data_image0
_cell_length_a       14.443
_cell_length_b       14.537
_cell_length_c       22.015
_cell_angle_alpha    90
_cell_angle_beta     99.973
_cell_angle_gamma    90

_symmetry_space_group_name_H-M    P 1
_symmetry_int_tables_number       1

loop_
  _symmetry_equiv_pos_as_xyz
  'x, y, z'

loop_
  _atom_site_label
  _atom_site_occupancy
  _atom_site_fract_x
  _atom_site_fract_y
  _atom_site_fract_z
  _atom_site_thermal_displace_type
  _atom_site_B_iso_or_equiv
  _atom_site_type_symbol
  Co1      1.0000 0.18990  0.81220  0.06070  Biso   1.000  Co
  Co2      1.0000 0.84670  0.16460  0.06800  Biso   1.000  Co
  Co3      1.0000 0.56960  0.99210  0.27560  Biso   1.000  Co
  Co4      1.0000 0.60260  0.11830  0.41220  Biso   1.000  Co
  Co5      1.0000 0.62130  0.91270  0.40550  Biso   1.000  Co
  Co6      1.0000 0.81010  0.31220  0.93930  Biso   1.000  Co
  Co7      1.0000 0.15330  0.66460  0.93200  Biso   1.000  Co
  Co8      1.0000 0.43040  0.49210  0.72440  Biso   1.000  Co
  Co9      1.0000 0.39740  0.61830  0.58780  Biso   1.000  Co
  Co10     1.0000 0.37870  0.41270  0.59450  Biso   1.000  Co
  H1       1.0000 0.05830  0.69100  0.02250  Biso   1.000  H
  H2       1.0000 0.04010  0.77650  0.97850  Biso   1.000  H
  H3       1.0000 0.71690  0.02700  0.35330  Biso   1.000  H
  H4       1.0000 0.30100  0.44400  0.03840  Biso   1.000  H
  H5       1.0000 0.39610  0.48420  0.02490  Biso   1.000  H
  H6       1.0000 0.39460  0.42630  0.08480  Biso   1.000  H
  H7       1.0000 0.47740  0.55830  0.14690  Biso   1.000  H
  H8       1.0000 0.47350  0.62050  0.08830  Biso   1.000  H
  H9       1.0000 0.42870  0.65500  0.14410  Biso   1.000  H
  H10      1.0000 0.23270  0.50720  0.13030  Biso   1.000  H
  H11      1.0000 0.32930  0.49710  0.17500  Biso   1.000  H
  H12      1.0000 0.28020  0.59340  0.16550  Biso   1.000  H
  H13      1.0000 0.33390  0.85910  0.83440  Biso   1.000  H
  H14      1.0000 0.38850  0.94910  0.85790  Biso   1.000  H
  H15      1.0000 0.23800  0.06000  0.92730  Biso   1.000  H
  H16      1.0000 0.31230  0.00780  0.97540  Biso   1.000  H
  H17      1.0000 0.34220  0.05150  0.91670  Biso   1.000  H
  H18      1.0000 0.14500  0.89210  0.83890  Biso   1.000  H
  H19      1.0000 0.14960  0.99850  0.85040  Biso   1.000  H
  H20      1.0000 0.20930  0.95370  0.80510  Biso   1.000  H
  H21      1.0000 0.41320  0.91310  0.91370  Biso   1.000  H
  H22      1.0000 0.11030  0.71750  0.29420  Biso   1.000  H
  H23      1.0000 0.18820  0.70100  0.25390  Biso   1.000  H
  H24      1.0000 0.13360  0.79470  0.24950  Biso   1.000  H
  H25      1.0000 0.02360  0.57730  0.25280  Biso   1.000  H
  H26      1.0000 0.98930  0.56560  0.18170  Biso   1.000  H
  H27      1.0000 0.09610  0.55440  0.20970  Biso   1.000  H
  H28      1.0000 0.94010  0.73380  0.24250  Biso   1.000  H
  H29      1.0000 0.96790  0.80620  0.19600  Biso   1.000  H
  H30      1.0000 0.91250  0.71730  0.17130  Biso   1.000  H
  H31      1.0000 0.06130  0.32550  0.28320  Biso   1.000  H
  H32      1.0000 0.98440  0.36570  0.23090  Biso   1.000  H
  H33      1.0000 0.97840  0.26290  0.25150  Biso   1.000  H
  H34      1.0000 0.17690  0.20570  0.25440  Biso   1.000  H
  H35      1.0000 0.09270  0.14590  0.22140  Biso   1.000  H
  H36      1.0000 0.17130  0.17790  0.18510  Biso   1.000  H
  H37      1.0000 0.18380  0.38010  0.21950  Biso   1.000  H
  H38      1.0000 0.17710  0.34570  0.15140  Biso   1.000  H
  H39      1.0000 0.10240  0.41510  0.16820  Biso   1.000  H
  H40      1.0000 0.47290  0.22690  0.16970  Biso   1.000  H
  H41      1.0000 0.37490  0.20960  0.18900  Biso   1.000  H
  H42      1.0000 0.40130  0.30820  0.16880  Biso   1.000  H
  H43      1.0000 0.36880  0.37160  0.27150  Biso   1.000  H
  H44      1.0000 0.34360  0.27230  0.29100  Biso   1.000  H
  H45      1.0000 0.42220  0.32880  0.33310  Biso   1.000  H
  H46      1.0000 0.59320  0.31970  0.24040  Biso   1.000  H
  H47      1.0000 0.52190  0.40030  0.24300  Biso   1.000  H
  H48      1.0000 0.57130  0.35300  0.30410  Biso   1.000  H
  H49      1.0000 0.29970  0.07500  0.29550  Biso   1.000  H
  H50      1.0000 0.31070  0.97630  0.26890  Biso   1.000  H
  H51      1.0000 0.21930  0.00230  0.29450  Biso   1.000  H
  H52      1.0000 0.31060  0.08950  0.41700  Biso   1.000  H
  H53      1.0000 0.22770  0.01860  0.41100  Biso   1.000  H
  H54      1.0000 0.32250  0.99830  0.45560  Biso   1.000  H
  H55      1.0000 0.33280  0.84060  0.33350  Biso   1.000  H
  H56      1.0000 0.33540  0.84590  0.40490  Biso   1.000  H
  H57      1.0000 0.24100  0.86380  0.35930  Biso   1.000  H
  H58      1.0000 0.73170  0.75640  0.20190  Biso   1.000  H
  H59      1.0000 0.69720  0.65410  0.19460  Biso   1.000  H
  H60      1.0000 0.62390  0.73450  0.18710  Biso   1.000  H
  H61      1.0000 0.76350  0.67200  0.35720  Biso   1.000  H
  H62      1.0000 0.78100  0.61330  0.30050  Biso   1.000  H
  H63      1.0000 0.82030  0.71380  0.30920  Biso   1.000  H
  H64      1.0000 0.59600  0.63570  0.32510  Biso   1.000  H
  H65      1.0000 0.54620  0.66010  0.25810  Biso   1.000  H
  H66      1.0000 0.62150  0.58150  0.26870  Biso   1.000  H
  H67      1.0000 0.83180  0.92320  0.64290  Biso   1.000  H
  H68      1.0000 0.72960  0.89540  0.61210  Biso   1.000  H
  H69      1.0000 0.81550  0.86540  0.58190  Biso   1.000  H
  H70      1.0000 0.87360  0.09060  0.53220  Biso   1.000  H
  H71      1.0000 0.92030  0.04140  0.59330  Biso   1.000  H
  H72      1.0000 0.90410  0.98730  0.53070  Biso   1.000  H
  H73      1.0000 0.73610  0.13650  0.57820  Biso   1.000  H
  H74      1.0000 0.67310  0.06230  0.60290  Biso   1.000  H
  H75      1.0000 0.77200  0.08690  0.64110  Biso   1.000  H
  H76      1.0000 0.87480  0.38760  0.35310  Biso   1.000  H
  H77      1.0000 0.85020  0.29700  0.31520  Biso   1.000  H
  H78      1.0000 0.77040  0.35320  0.33830  Biso   1.000  H
  H79      1.0000 0.87090  0.38950  0.46830  Biso   1.000  H
  H80      1.0000 0.76480  0.36090  0.45210  Biso   1.000  H
  H81      1.0000 0.83490  0.30230  0.49900  Biso   1.000  H
  H82      1.0000 0.99520  0.29240  0.43150  Biso   1.000  H
  H83      1.0000 0.95880  0.20290  0.45950  Biso   1.000  H
  H84      1.0000 0.96630  0.20660  0.38930  Biso   1.000  H
  H85      1.0000 0.31380  0.77840  0.18130  Biso   1.000  H
  H86      1.0000 0.44480  0.82800  0.24420  Biso   1.000  H
  H87      1.0000 0.44090  0.04850  0.14750  Biso   1.000  H
  H88      1.0000 0.31070  0.99800  0.08240  Biso   1.000  H
  H89      1.0000 0.98000  0.03460  0.15440  Biso   1.000  H
  H90      1.0000 0.09600  0.92970  0.15340  Biso   1.000  H
  H91      1.0000 0.04820  0.93430  0.97500  Biso   1.000  H
  H92      1.0000 0.92970  0.03960  0.97710  Biso   1.000  H
  H93      1.0000 0.80460  0.19570  0.19700  Biso   1.000  H
  H94      1.0000 0.70900  0.14430  0.26190  Biso   1.000  H
  H95      1.0000 0.64140  0.93420  0.15630  Biso   1.000  H
  H96      1.0000 0.73040  0.98930  0.08920  Biso   1.000  H
  H97      1.0000 0.42710  0.21080  0.58120  Biso   1.000  H
  H98      1.0000 0.49780  0.11610  0.52370  Biso   1.000  H
  H99      1.0000 0.56990  0.32160  0.43320  Biso   1.000  H
  H100     1.0000 0.48880  0.41710  0.48620  Biso   1.000  H
  H101     1.0000 0.94170  0.19100  0.97750  Biso   1.000  H
  H102     1.0000 0.95990  0.27650  0.02150  Biso   1.000  H
  H103     1.0000 0.28310  0.52700  0.64670  Biso   1.000  H
  H104     1.0000 0.69900  0.94400  0.96160  Biso   1.000  H
  H105     1.0000 0.60390  0.98420  0.97510  Biso   1.000  H
  H106     1.0000 0.60540  0.92630  0.91520  Biso   1.000  H
  H107     1.0000 0.52260  0.05830  0.85310  Biso   1.000  H
  H108     1.0000 0.52650  0.12050  0.91170  Biso   1.000  H
  H109     1.0000 0.57130  0.15500  0.85590  Biso   1.000  H
  H110     1.0000 0.76730  0.00720  0.86970  Biso   1.000  H
  H111     1.0000 0.67070  0.99710  0.82500  Biso   1.000  H
  H112     1.0000 0.71980  0.09340  0.83450  Biso   1.000  H
  H113     1.0000 0.66610  0.35910  0.16560  Biso   1.000  H
  H114     1.0000 0.61150  0.44910  0.14210  Biso   1.000  H
  H115     1.0000 0.76200  0.56000  0.07270  Biso   1.000  H
  H116     1.0000 0.68770  0.50780  0.02460  Biso   1.000  H
  H117     1.0000 0.65780  0.55150  0.08330  Biso   1.000  H
  H118     1.0000 0.85500  0.39210  0.16110  Biso   1.000  H
  H119     1.0000 0.85040  0.49850  0.14960  Biso   1.000  H
  H120     1.0000 0.79070  0.45370  0.19490  Biso   1.000  H
  H121     1.0000 0.58680  0.41310  0.08630  Biso   1.000  H
  H122     1.0000 0.88970  0.21750  0.70580  Biso   1.000  H
  H123     1.0000 0.81180  0.20100  0.74610  Biso   1.000  H
  H124     1.0000 0.86640  0.29470  0.75050  Biso   1.000  H
  H125     1.0000 0.97640  0.07730  0.74720  Biso   1.000  H
  H126     1.0000 0.01070  0.06560  0.81830  Biso   1.000  H
  H127     1.0000 0.90390  0.05440  0.79030  Biso   1.000  H
  H128     1.0000 0.05990  0.23380  0.75750  Biso   1.000  H
  H129     1.0000 0.03210  0.30620  0.80400  Biso   1.000  H
  H130     1.0000 0.08750  0.21730  0.82870  Biso   1.000  H
  H131     1.0000 0.93870  0.82550  0.71680  Biso   1.000  H
  H132     1.0000 0.01560  0.86570  0.76910  Biso   1.000  H
  H133     1.0000 0.02160  0.76290  0.74850  Biso   1.000  H
  H134     1.0000 0.82310  0.70570  0.74560  Biso   1.000  H
  H135     1.0000 0.90730  0.64590  0.77860  Biso   1.000  H
  H136     1.0000 0.82870  0.67790  0.81490  Biso   1.000  H
  H137     1.0000 0.81620  0.88010  0.78050  Biso   1.000  H
  H138     1.0000 0.82290  0.84570  0.84860  Biso   1.000  H
  H139     1.0000 0.89760  0.91510  0.83180  Biso   1.000  H
  H140     1.0000 0.52710  0.72690  0.83030  Biso   1.000  H
  H141     1.0000 0.62510  0.70960  0.81100  Biso   1.000  H
  H142     1.0000 0.59870  0.80820  0.83120  Biso   1.000  H
  H143     1.0000 0.63120  0.87160  0.72850  Biso   1.000  H
  H144     1.0000 0.65640  0.77230  0.70900  Biso   1.000  H
  H145     1.0000 0.57780  0.82880  0.66690  Biso   1.000  H
  H146     1.0000 0.40680  0.81970  0.75960  Biso   1.000  H
  H147     1.0000 0.47810  0.90030  0.75700  Biso   1.000  H
  H148     1.0000 0.42870  0.85300  0.69590  Biso   1.000  H
  H149     1.0000 0.70030  0.57500  0.70450  Biso   1.000  H
  H150     1.0000 0.68930  0.47630  0.73110  Biso   1.000  H
  H151     1.0000 0.78070  0.50230  0.70550  Biso   1.000  H
  H152     1.0000 0.68940  0.58950  0.58300  Biso   1.000  H
  H153     1.0000 0.77230  0.51860  0.58900  Biso   1.000  H
  H154     1.0000 0.67750  0.49830  0.54440  Biso   1.000  H
  H155     1.0000 0.66720  0.34060  0.66650  Biso   1.000  H
  H156     1.0000 0.66460  0.34590  0.59510  Biso   1.000  H
  H157     1.0000 0.75900  0.36380  0.64070  Biso   1.000  H
  H158     1.0000 0.26830  0.25640  0.79810  Biso   1.000  H
  H159     1.0000 0.30280  0.15410  0.80540  Biso   1.000  H
  H160     1.0000 0.37610  0.23450  0.81290  Biso   1.000  H
  H161     1.0000 0.23650  0.17200  0.64280  Biso   1.000  H
  H162     1.0000 0.21900  0.11330  0.69950  Biso   1.000  H
  H163     1.0000 0.17970  0.21380  0.69080  Biso   1.000  H
  H164     1.0000 0.40400  0.13570  0.67490  Biso   1.000  H
  H165     1.0000 0.45380  0.16010  0.74190  Biso   1.000  H
  H166     1.0000 0.37850  0.08150  0.73130  Biso   1.000  H
  H167     1.0000 0.16820  0.42320  0.35710  Biso   1.000  H
  H168     1.0000 0.27040  0.39540  0.38790  Biso   1.000  H
  H169     1.0000 0.18450  0.36540  0.41810  Biso   1.000  H
  H170     1.0000 0.12640  0.59060  0.46780  Biso   1.000  H
  H171     1.0000 0.07970  0.54140  0.40670  Biso   1.000  H
  H172     1.0000 0.09590  0.48730  0.46930  Biso   1.000  H
  H173     1.0000 0.26390  0.63650  0.42180  Biso   1.000  H
  H174     1.0000 0.32690  0.56230  0.39710  Biso   1.000  H
  H175     1.0000 0.22800  0.58690  0.35890  Biso   1.000  H
  H176     1.0000 0.12520  0.88760  0.64690  Biso   1.000  H
  H177     1.0000 0.14980  0.79700  0.68480  Biso   1.000  H
  H178     1.0000 0.22960  0.85320  0.66170  Biso   1.000  H
  H179     1.0000 0.12910  0.88950  0.53170  Biso   1.000  H
  H180     1.0000 0.23520  0.86090  0.54790  Biso   1.000  H
  H181     1.0000 0.16510  0.80230  0.50100  Biso   1.000  H
  H182     1.0000 0.00480  0.79240  0.56850  Biso   1.000  H
  H183     1.0000 0.04120  0.70290  0.54050  Biso   1.000  H
  H184     1.0000 0.03370  0.70660  0.61070  Biso   1.000  H
  H185     1.0000 0.68620  0.27840  0.81870  Biso   1.000  H
  H186     1.0000 0.55520  0.32800  0.75580  Biso   1.000  H
  H187     1.0000 0.55910  0.54850  0.85250  Biso   1.000  H
  H188     1.0000 0.68930  0.49800  0.91760  Biso   1.000  H
  H189     1.0000 0.02000  0.53460  0.84560  Biso   1.000  H
  H190     1.0000 0.90400  0.42970  0.84660  Biso   1.000  H
  H191     1.0000 0.95180  0.43430  0.02500  Biso   1.000  H
  H192     1.0000 0.07030  0.53960  0.02290  Biso   1.000  H
  H193     1.0000 0.19540  0.69570  0.80300  Biso   1.000  H
  H194     1.0000 0.29100  0.64430  0.73810  Biso   1.000  H
  H195     1.0000 0.35860  0.43420  0.84370  Biso   1.000  H
  H196     1.0000 0.26960  0.48930  0.91080  Biso   1.000  H
  H197     1.0000 0.57290  0.71080  0.41880  Biso   1.000  H
  H198     1.0000 0.50220  0.61610  0.47630  Biso   1.000  H
  H199     1.0000 0.43010  0.82160  0.56680  Biso   1.000  H
  H200     1.0000 0.51120  0.91710  0.51380  Biso   1.000  H
  C1       1.0000 0.28700  0.62800  0.04800  Biso   1.000  C
  C2       1.0000 0.34400  0.55700  0.09100  Biso   1.000  C
  C3       1.0000 0.36100  0.47000  0.05700  Biso   1.000  C
  C4       1.0000 0.44000  0.60200  0.12000  Biso   1.000  C
  C5       1.0000 0.29200  0.53700  0.14600  Biso   1.000  C
  C6       1.0000 0.24100  0.85500  0.93940  Biso   1.000  C
  C7       1.0000 0.26800  0.93100  0.89700  Biso   1.000  C
  C8       1.0000 0.35500  0.89700  0.87000  Biso   1.000  C
  C9       1.0000 0.29200  0.02100  0.93200  Biso   1.000  C
  C10      1.0000 0.18500  0.94500  0.84300  Biso   1.000  C
  C11      1.0000 0.08200  0.70700  0.13970  Biso   1.000  C
  C12      1.0000 0.05500  0.69000  0.20400  Biso   1.000  C
  C13      1.0000 0.12900  0.72900  0.25500  Biso   1.000  C
  C14      1.0000 0.04000  0.58700  0.21300  Biso   1.000  C
  C15      1.0000 0.96000  0.74200  0.20300  Biso   1.000  C
  C16      1.0000 0.01200  0.26100  0.13450  Biso   1.000  C
  C17      1.0000 0.07900  0.28200  0.19600  Biso   1.000  C
  C18      1.0000 0.02000  0.31200  0.24500  Biso   1.000  C
  C19      1.0000 0.13500  0.19500  0.21600  Biso   1.000  C
  C20      1.0000 0.14200  0.36300  0.18300  Biso   1.000  C
  C21      1.0000 0.50800  0.18900  0.28900  Biso   1.000  C
  C22      1.0000 0.46700  0.27600  0.25700  Biso   1.000  C
  C23      1.0000 0.42500  0.25300  0.19000  Biso   1.000  C
  C24      1.0000 0.39400  0.31600  0.29100  Biso   1.000  C
  C25      1.0000 0.54500  0.34300  0.26100  Biso   1.000  C
  C26      1.0000 0.43900  0.98700  0.37300  Biso   1.000  C
  C27      1.0000 0.33200  0.97700  0.36500  Biso   1.000  C
  C28      1.0000 0.28600  0.01100  0.30000  Biso   1.000  C
  C29      1.0000 0.29500  0.02500  0.41700  Biso   1.000  C
  C30      1.0000 0.30800  0.87200  0.36600  Biso   1.000  C
  C31      1.0000 0.65100  0.79900  0.30200  Biso   1.000  C
  C32      1.0000 0.68100  0.71000  0.27800  Biso   1.000  C
  C33      1.0000 0.68400  0.71400  0.20900  Biso   1.000  C
  C34      1.0000 0.76900  0.67400  0.31400  Biso   1.000  C
  C35      1.0000 0.60400  0.64000  0.28300  Biso   1.000  C
  C36      1.0000 0.71600  0.98500  0.50400  Biso   1.000  C
  C37      1.0000 0.78200  0.00400  0.56600  Biso   1.000  C
  C38      1.0000 0.79100  0.91300  0.60400  Biso   1.000  C
  C39      1.0000 0.87900  0.03400  0.55400  Biso   1.000  C
  C40      1.0000 0.73600  0.08000  0.60000  Biso   1.000  C
  C41      1.0000 0.78200  0.19400  0.40100  Biso   1.000  C
  C42      1.0000 0.85000  0.27800  0.40800  Biso   1.000  C
  C43      1.0000 0.83500  0.33400  0.34800  Biso   1.000  C
  C44      1.0000 0.82800  0.33800  0.46200  Biso   1.000  C
  C45      1.0000 0.95200  0.24200  0.42400  Biso   1.000  C
  C46      1.0000 0.34000  0.83400  0.17280  Biso   1.000  C
  C47      1.0000 0.41800  0.86500  0.21110  Biso   1.000  C
  C48      1.0000 0.41600  0.99100  0.15500  Biso   1.000  C
  C49      1.0000 0.33800  0.96100  0.11500  Biso   1.000  C
  C50      1.0000 0.99300  0.01400  0.11660  Biso   1.000  C
  C51      1.0000 0.06300  0.95200  0.11620  Biso   1.000  C
  C52      1.0000 0.03500  0.95400  0.01290  Biso   1.000  C
  C53      1.0000 0.96300  0.01800  0.01410  Biso   1.000  C
  C54      1.0000 0.77000  0.14200  0.18710  Biso   1.000  C
  C55      1.0000 0.71200  0.11100  0.22630  Biso   1.000  C
  C56      1.0000 0.67300  0.99000  0.16470  Biso   1.000  C
  C57      1.0000 0.72800  0.02200  0.12500  Biso   1.000  C
  C58      1.0000 0.45500  0.23600  0.55000  Biso   1.000  C
  C59      1.0000 0.49900  0.17900  0.51600  Biso   1.000  C
  C60      1.0000 0.53900  0.29700  0.46300  Biso   1.000  C
  C61      1.0000 0.49200  0.35500  0.49600  Biso   1.000  C
  C62      1.0000 0.71300  0.12800  0.95200  Biso   1.000  C
  C63      1.0000 0.65600  0.05700  0.90900  Biso   1.000  C
  C64      1.0000 0.63900  0.97000  0.94300  Biso   1.000  C
  C65      1.0000 0.56000  0.10200  0.88000  Biso   1.000  C
  C66      1.0000 0.70800  0.03700  0.85400  Biso   1.000  C
  C67      1.0000 0.75900  0.35500  0.06060  Biso   1.000  C
  C68      1.0000 0.73200  0.43100  0.10300  Biso   1.000  C
  C69      1.0000 0.64500  0.39700  0.13000  Biso   1.000  C
  C70      1.0000 0.70800  0.52100  0.06800  Biso   1.000  C
  C71      1.0000 0.81500  0.44500  0.15700  Biso   1.000  C
  C72      1.0000 0.91800  0.20700  0.86030  Biso   1.000  C
  C73      1.0000 0.94500  0.19000  0.79600  Biso   1.000  C
  C74      1.0000 0.87100  0.22900  0.74500  Biso   1.000  C
  C75      1.0000 0.96000  0.08700  0.78700  Biso   1.000  C
  C76      1.0000 0.04000  0.24200  0.79700  Biso   1.000  C
  C77      1.0000 0.98800  0.76100  0.86550  Biso   1.000  C
  C78      1.0000 0.92100  0.78200  0.80400  Biso   1.000  C
  C79      1.0000 0.98000  0.81200  0.75500  Biso   1.000  C
  C80      1.0000 0.86500  0.69500  0.78400  Biso   1.000  C
  C81      1.0000 0.85800  0.86300  0.81700  Biso   1.000  C
  C82      1.0000 0.49200  0.68900  0.71100  Biso   1.000  C
  C83      1.0000 0.53300  0.77600  0.74300  Biso   1.000  C
  C84      1.0000 0.57500  0.75300  0.81000  Biso   1.000  C
  C85      1.0000 0.60600  0.81600  0.70900  Biso   1.000  C
  C86      1.0000 0.45500  0.84300  0.73900  Biso   1.000  C
  C87      1.0000 0.56100  0.48700  0.62700  Biso   1.000  C
  C88      1.0000 0.66800  0.47700  0.63500  Biso   1.000  C
  C89      1.0000 0.71400  0.51100  0.70000  Biso   1.000  C
  C90      1.0000 0.70500  0.52500  0.58300  Biso   1.000  C
  C91      1.0000 0.69200  0.37200  0.63400  Biso   1.000  C
  C92      1.0000 0.34900  0.29900  0.69800  Biso   1.000  C
  C93      1.0000 0.31900  0.21000  0.72200  Biso   1.000  C
  C94      1.0000 0.31600  0.21400  0.79100  Biso   1.000  C
  C95      1.0000 0.23100  0.17400  0.68600  Biso   1.000  C
  C96      1.0000 0.39600  0.14000  0.71700  Biso   1.000  C
  C97      1.0000 0.28400  0.48500  0.49600  Biso   1.000  C
  C98      1.0000 0.21800  0.50400  0.43400  Biso   1.000  C
  C99      1.0000 0.20900  0.41300  0.39600  Biso   1.000  C
  C100     1.0000 0.12100  0.53400  0.44600  Biso   1.000  C
  C101     1.0000 0.26400  0.58000  0.40000  Biso   1.000  C
  C102     1.0000 0.21800  0.69400  0.59900  Biso   1.000  C
  C103     1.0000 0.15000  0.77800  0.59200  Biso   1.000  C
  C104     1.0000 0.16500  0.83400  0.65200  Biso   1.000  C
  C105     1.0000 0.17200  0.83800  0.53800  Biso   1.000  C
  C106     1.0000 0.04800  0.74200  0.57600  Biso   1.000  C
  C107     1.0000 0.66000  0.33400  0.82720  Biso   1.000  C
  C108     1.0000 0.58200  0.36500  0.78890  Biso   1.000  C
  C109     1.0000 0.58400  0.49100  0.84500  Biso   1.000  C
  C110     1.0000 0.66200  0.46100  0.88500  Biso   1.000  C
  C111     1.0000 0.00700  0.51400  0.88340  Biso   1.000  C
  C112     1.0000 0.93700  0.45200  0.88380  Biso   1.000  C
  C113     1.0000 0.96500  0.45400  0.98710  Biso   1.000  C
  C114     1.0000 0.03700  0.51800  0.98590  Biso   1.000  C
  C115     1.0000 0.23000  0.64200  0.81290  Biso   1.000  C
  C116     1.0000 0.28800  0.61100  0.77370  Biso   1.000  C
  C117     1.0000 0.32700  0.49000  0.83530  Biso   1.000  C
  C118     1.0000 0.27200  0.52200  0.87500  Biso   1.000  C
  C119     1.0000 0.54500  0.73600  0.45000  Biso   1.000  C
  C120     1.0000 0.50100  0.67900  0.48400  Biso   1.000  C
  C121     1.0000 0.46100  0.79700  0.53700  Biso   1.000  C
  C122     1.0000 0.50800  0.85500  0.50400  Biso   1.000  C
  N1       1.0000 0.30100  0.88100  0.12430  Biso   1.000  N
  N2       1.0000 0.45800  0.94400  0.20270  Biso   1.000  N
  N3       1.0000 0.94300  0.04700  0.06600  Biso   1.000  N
  N4       1.0000 0.08600  0.92200  0.06350  Biso   1.000  N
  N5       1.0000 0.77800  0.09900  0.13670  Biso   1.000  N
  N6       1.0000 0.66200  0.03700  0.21550  Biso   1.000  N
  N7       1.0000 0.45100  0.32500  0.54090  Biso   1.000  N
  N8       1.0000 0.54200  0.20800  0.47130  Biso   1.000  N
  N9       1.0000 0.69900  0.38100  0.87570  Biso   1.000  N
  N10      1.0000 0.54200  0.44400  0.79730  Biso   1.000  N
  N11      1.0000 0.05700  0.54700  0.93400  Biso   1.000  N
  N12      1.0000 0.91400  0.42200  0.93650  Biso   1.000  N
  N13      1.0000 0.22200  0.59900  0.86330  Biso   1.000  N
  N14      1.0000 0.33800  0.53700  0.78450  Biso   1.000  N
  N15      1.0000 0.54900  0.82500  0.45910  Biso   1.000  N
  N16      1.0000 0.45800  0.70800  0.52870  Biso   1.000  N
  O1       1.0000 0.28510  0.70680  0.06770  Biso   1.000  O
  O2       1.0000 0.08820  0.73530  0.99930  Biso   1.000  O
  O3       1.0000 0.24200  0.59850  0.99810  Biso   1.000  O
  O4       1.0000 0.65010  0.02100  0.35580  Biso   1.000  O
  O5       1.0000 0.22900  0.88230  0.99140  Biso   1.000  O
  O6       1.0000 0.23290  0.77720  0.91930  Biso   1.000  O
  O7       1.0000 0.14300  0.76260  0.13660  Biso   1.000  O
  O8       1.0000 0.03500  0.66700  0.09520  Biso   1.000  O
  O9       1.0000 0.94500  0.21070  0.13760  Biso   1.000  O
  O10      1.0000 0.03000  0.29800  0.08870  Biso   1.000  O
  O11      1.0000 0.50700  0.11600  0.26120  Biso   1.000  O
  O12      1.0000 0.54000  0.19700  0.34520  Biso   1.000  O
  O13      1.0000 0.48100  0.93400  0.34170  Biso   1.000  O
  O14      1.0000 0.47900  0.03700  0.41110  Biso   1.000  O
  O15      1.0000 0.62200  0.86200  0.26600  Biso   1.000  O
  O16      1.0000 0.65600  0.80400  0.35930  Biso   1.000  O
  O17      1.0000 0.73400  0.92100  0.47600  Biso   1.000  O
  O18      1.0000 0.65100  0.03200  0.48860  Biso   1.000  O
  O19      1.0000 0.71300  0.19900  0.42400  Biso   1.000  O
  O20      1.0000 0.80600  0.12700  0.37300  Biso   1.000  O
  O21      1.0000 0.71490  0.20680  0.93230  Biso   1.000  O
  O22      1.0000 0.91180  0.23530  0.00070  Biso   1.000  O
  O23      1.0000 0.75800  0.09850  0.00190  Biso   1.000  O
  O24      1.0000 0.34990  0.52100  0.64420  Biso   1.000  O
  O25      1.0000 0.77100  0.38230  0.00860  Biso   1.000  O
  O26      1.0000 0.76710  0.27720  0.08070  Biso   1.000  O
  O27      1.0000 0.85700  0.26260  0.86340  Biso   1.000  O
  O28      1.0000 0.96500  0.16700  0.90480  Biso   1.000  O
  O29      1.0000 0.05500  0.71070  0.86240  Biso   1.000  O
  O30      1.0000 0.97000  0.79800  0.91130  Biso   1.000  O
  O31      1.0000 0.49300  0.61600  0.73880  Biso   1.000  O
  O32      1.0000 0.46000  0.69700  0.65480  Biso   1.000  O
  O33      1.0000 0.51900  0.43400  0.65830  Biso   1.000  O
  O34      1.0000 0.52100  0.53700  0.58890  Biso   1.000  O
  O35      1.0000 0.37800  0.36200  0.73400  Biso   1.000  O
  O36      1.0000 0.34400  0.30400  0.64070  Biso   1.000  O
  O37      1.0000 0.26600  0.42100  0.52400  Biso   1.000  O
  O38      1.0000 0.34900  0.53200  0.51140  Biso   1.000  O
  O39      1.0000 0.28700  0.69900  0.57600  Biso   1.000  O
  O40      1.0000 0.19400  0.62700  0.62700  Biso   1.000  O
