data_image0
_cell_length_a       6.6059
_cell_length_b       9.8638
_cell_length_c       13.187
_cell_angle_alpha    79.317
_cell_angle_beta     86.349
_cell_angle_gamma    83.794

_symmetry_space_group_name_H-M    P 1
_symmetry_int_tables_number       1

loop_
  _symmetry_equiv_pos_as_xyz
  'x, y, z'

loop_
  _atom_site_label
  _atom_site_occupancy
  _atom_site_fract_x
  _atom_site_fract_y
  _atom_site_fract_z
  _atom_site_thermal_displace_type
  _atom_site_B_iso_or_equiv
  _atom_site_type_symbol
  U1       1.0000 0.61684  0.38640  0.19348  Biso   1.000  U
  U2       1.0000 0.94876  0.83166  0.25478  Biso   1.000  U
  U3       1.0000 0.38316  0.61360  0.80652  Biso   1.000  U
  U4       1.0000 0.05124  0.16834  0.74522  Biso   1.000  U
  H1       1.0000 0.96620  0.18100  0.19960  Biso   1.000  H
  H2       1.0000 0.00480  0.23470  0.27960  Biso   1.000  H
  H3       1.0000 0.23200  0.46110  0.06920  Biso   1.000  H
  H4       1.0000 0.16890  0.35970  0.16370  Biso   1.000  H
  H5       1.0000 0.33980  0.39800  0.44820  Biso   1.000  H
  H6       1.0000 0.68060  0.35950  0.46890  Biso   1.000  H
  H7       1.0000 0.77300  0.96450  0.97620  Biso   1.000  H
  H8       1.0000 0.54360  0.81830  0.05160  Biso   1.000  H
  H9       1.0000 0.03380  0.81900  0.80040  Biso   1.000  H
  H10      1.0000 0.99520  0.76530  0.72040  Biso   1.000  H
  H11      1.0000 0.76800  0.53890  0.93080  Biso   1.000  H
  H12      1.0000 0.83110  0.64030  0.83630  Biso   1.000  H
  H13      1.0000 0.66020  0.60200  0.55180  Biso   1.000  H
  H14      1.0000 0.31940  0.64050  0.53110  Biso   1.000  H
  H15      1.0000 0.22700  0.03550  0.02380  Biso   1.000  H
  H16      1.0000 0.45640  0.18170  0.94840  Biso   1.000  H
  C1       1.0000 0.32840  0.58280  0.34420  Biso   1.000  C
  C2       1.0000 0.39920  0.48630  0.44130  Biso   1.000  C
  C3       1.0000 0.63390  0.45870  0.45750  Biso   1.000  C
  C4       1.0000 0.75870  0.54110  0.37210  Biso   1.000  C
  C5       1.0000 0.74040  0.10010  0.07960  Biso   1.000  C
  C6       1.0000 0.66120  0.01360  0.01160  Biso   1.000  C
  C7       1.0000 0.50220  0.91180  0.06540  Biso   1.000  C
  C8       1.0000 0.44780  0.90520  0.17770  Biso   1.000  C
  C9       1.0000 0.67160  0.41720  0.65580  Biso   1.000  C
  C10      1.0000 0.60080  0.51370  0.55870  Biso   1.000  C
  C11      1.0000 0.36610  0.54130  0.54250  Biso   1.000  C
  C12      1.0000 0.24130  0.45890  0.62790  Biso   1.000  C
  C13      1.0000 0.25960  0.89990  0.92040  Biso   1.000  C
  C14      1.0000 0.33880  0.98640  0.98840  Biso   1.000  C
  C15      1.0000 0.49780  0.08820  0.93460  Biso   1.000  C
  C16      1.0000 0.55220  0.09480  0.82230  Biso   1.000  C
  O1       1.0000 0.53260  0.26550  0.29820  Biso   1.000  O
  O2       1.0000 0.69570  0.50470  0.08390  Biso   1.000  O
  O3       1.0000 0.92400  0.93240  0.35390  Biso   1.000  O
  O4       1.0000 0.96770  0.73900  0.15310  Biso   1.000  O
  O5       1.0000 0.40680  0.56270  0.25750  Biso   1.000  O
  O6       1.0000 0.19420  0.67910  0.35500  Biso   1.000  O
  O7       1.0000 0.81750  0.48570  0.29540  Biso   1.000  O
  O8       1.0000 0.78520  0.66180  0.37890  Biso   1.000  O
  O9       1.0000 0.65530  0.21810  0.08400  Biso   1.000  O
  O10      1.0000 0.89410  0.04630  0.13210  Biso   1.000  O
  O11      1.0000 0.58770  0.88750  0.24140  Biso   1.000  O
  O12      1.0000 0.26360  0.92270  0.20850  Biso   1.000  O
  O13      1.0000 0.96490  0.26100  0.21860  Biso   1.000  O
  O14      1.0000 0.29060  0.38720  0.12310  Biso   1.000  O
  O15      1.0000 0.46740  0.73450  0.70180  Biso   1.000  O
  O16      1.0000 0.30430  0.49530  0.91610  Biso   1.000  O
  O17      1.0000 0.07600  0.06760  0.64610  Biso   1.000  O
  O18      1.0000 0.03230  0.26100  0.84690  Biso   1.000  O
  O19      1.0000 0.59320  0.43730  0.74250  Biso   1.000  O
  O20      1.0000 0.80580  0.32090  0.64500  Biso   1.000  O
  O21      1.0000 0.18250  0.51430  0.70460  Biso   1.000  O
  O22      1.0000 0.21480  0.33820  0.62110  Biso   1.000  O
  O23      1.0000 0.34470  0.78190  0.91600  Biso   1.000  O
  O24      1.0000 0.10590  0.95370  0.86790  Biso   1.000  O
  O25      1.0000 0.41230  0.11250  0.75860  Biso   1.000  O
  O26      1.0000 0.73640  0.07730  0.79150  Biso   1.000  O
  O27      1.0000 0.03510  0.73900  0.78140  Biso   1.000  O
  O28      1.0000 0.70940  0.61280  0.87690  Biso   1.000  O
