data_image0
_cell_length_a       9.205
_cell_length_b       9.7441
_cell_length_c       22.4015
_cell_angle_alpha    90
_cell_angle_beta     90
_cell_angle_gamma    116.992

_symmetry_space_group_name_H-M    P 1
_symmetry_int_tables_number       1

loop_
  _symmetry_equiv_pos_as_xyz
  'x, y, z'

loop_
  _atom_site_label
  _atom_site_occupancy
  _atom_site_fract_x
  _atom_site_fract_y
  _atom_site_fract_z
  _atom_site_thermal_displace_type
  _atom_site_B_iso_or_equiv
  _atom_site_type_symbol
  Nd1      1.0000 0.38289  0.14173  0.00887  Biso   1.000  Nd
  Nd2      1.0000 0.11711  0.85827  0.50887  Biso   1.000  Nd
  Nd3      1.0000 0.61711  0.85827  0.99113  Biso   1.000  Nd
  Nd4      1.0000 0.88289  0.14173  0.49113  Biso   1.000  Nd
  Ag1      1.0000 0.98122  0.82112  0.85263  Biso   1.000  Ag
  Ag2      1.0000 0.51878  0.17888  0.35263  Biso   1.000  Ag
  Ag3      1.0000 0.01878  0.17888  0.14737  Biso   1.000  Ag
  Ag4      1.0000 0.48122  0.82112  0.64737  Biso   1.000  Ag
  H1       1.0000 0.81720  0.52860  0.93290  Biso   1.000  H
  H2       1.0000 0.21940  0.68040  0.84030  Biso   1.000  H
  H3       1.0000 0.25970  0.47450  0.86900  Biso   1.000  H
  H4       1.0000 0.06330  0.28380  0.92640  Biso   1.000  H
  H5       1.0000 0.00870  0.85860  0.71960  Biso   1.000  H
  H6       1.0000 0.88690  0.09350  0.83130  Biso   1.000  H
  H7       1.0000 0.85450  0.23420  0.75590  Biso   1.000  H
  H8       1.0000 0.89830  0.18440  0.65810  Biso   1.000  H
  H9       1.0000 0.68280  0.47140  0.43290  Biso   1.000  H
  H10      1.0000 0.28060  0.31960  0.34030  Biso   1.000  H
  H11      1.0000 0.24030  0.52550  0.36900  Biso   1.000  H
  H12      1.0000 0.43670  0.71620  0.42640  Biso   1.000  H
  H13      1.0000 0.49130  0.14140  0.21960  Biso   1.000  H
  H14      1.0000 0.61310  0.90650  0.33130  Biso   1.000  H
  H15      1.0000 0.64550  0.76580  0.25590  Biso   1.000  H
  H16      1.0000 0.60170  0.81560  0.15810  Biso   1.000  H
  H17      1.0000 0.18280  0.47140  0.06710  Biso   1.000  H
  H18      1.0000 0.78060  0.31960  0.15970  Biso   1.000  H
  H19      1.0000 0.74030  0.52550  0.13100  Biso   1.000  H
  H20      1.0000 0.93670  0.71620  0.07360  Biso   1.000  H
  H21      1.0000 0.99130  0.14140  0.28040  Biso   1.000  H
  H22      1.0000 0.11310  0.90650  0.16870  Biso   1.000  H
  H23      1.0000 0.14550  0.76580  0.24410  Biso   1.000  H
  H24      1.0000 0.10170  0.81560  0.34190  Biso   1.000  H
  H25      1.0000 0.31720  0.52860  0.56710  Biso   1.000  H
  H26      1.0000 0.71940  0.68040  0.65970  Biso   1.000  H
  H27      1.0000 0.75970  0.47450  0.63100  Biso   1.000  H
  H28      1.0000 0.56330  0.28380  0.57360  Biso   1.000  H
  H29      1.0000 0.50870  0.85860  0.78040  Biso   1.000  H
  H30      1.0000 0.38690  0.09350  0.66870  Biso   1.000  H
  H31      1.0000 0.35450  0.23420  0.74410  Biso   1.000  H
  H32      1.0000 0.39830  0.18440  0.84190  Biso   1.000  H
  C1       1.0000 0.91710  0.38580  0.93540  Biso   1.000  C
  C2       1.0000 0.90550  0.51590  0.91910  Biso   1.000  C
  C3       1.0000 0.14340  0.60650  0.86530  Biso   1.000  C
  C4       1.0000 0.16730  0.48240  0.88130  Biso   1.000  C
  C5       1.0000 0.05150  0.37060  0.91590  Biso   1.000  C
  C6       1.0000 0.78320  0.26000  0.97120  Biso   1.000  C
  C7       1.0000 0.95990  0.01460  0.67840  Biso   1.000  C
  C8       1.0000 0.97760  0.93550  0.72670  Biso   1.000  C
  C9       1.0000 0.90620  0.07350  0.79230  Biso   1.000  C
  C10      1.0000 0.88580  0.15800  0.74740  Biso   1.000  C
  C11      1.0000 0.91220  0.12880  0.68950  Biso   1.000  C
  C12      1.0000 0.99420  0.97430  0.61710  Biso   1.000  C
  C13      1.0000 0.00290  0.97930  0.96710  Biso   1.000  C
  C14      1.0000 0.50900  0.50760  0.03490  Biso   1.000  C
  C15      1.0000 0.58290  0.61420  0.43540  Biso   1.000  C
  C16      1.0000 0.59450  0.48410  0.41910  Biso   1.000  C
  C17      1.0000 0.35660  0.39350  0.36530  Biso   1.000  C
  C18      1.0000 0.33270  0.51760  0.38130  Biso   1.000  C
  C19      1.0000 0.44850  0.62940  0.41590  Biso   1.000  C
  C20      1.0000 0.71680  0.74000  0.47120  Biso   1.000  C
  C21      1.0000 0.54010  0.98540  0.17840  Biso   1.000  C
  C22      1.0000 0.52240  0.06450  0.22670  Biso   1.000  C
  C23      1.0000 0.59380  0.92650  0.29230  Biso   1.000  C
  C24      1.0000 0.61420  0.84200  0.24740  Biso   1.000  C
  C25      1.0000 0.58780  0.87120  0.18950  Biso   1.000  C
  C26      1.0000 0.50580  0.02570  0.11710  Biso   1.000  C
  C27      1.0000 0.49710  0.02070  0.46710  Biso   1.000  C
  C28      1.0000 0.99100  0.49240  0.53490  Biso   1.000  C
  C29      1.0000 0.08290  0.61420  0.06460  Biso   1.000  C
  C30      1.0000 0.09450  0.48410  0.08090  Biso   1.000  C
  C31      1.0000 0.85660  0.39350  0.13470  Biso   1.000  C
  C32      1.0000 0.83270  0.51760  0.11870  Biso   1.000  C
  C33      1.0000 0.94850  0.62940  0.08410  Biso   1.000  C
  C34      1.0000 0.21680  0.74000  0.02880  Biso   1.000  C
  C35      1.0000 0.04010  0.98540  0.32160  Biso   1.000  C
  C36      1.0000 0.02240  0.06450  0.27330  Biso   1.000  C
  C37      1.0000 0.09380  0.92650  0.20770  Biso   1.000  C
  C38      1.0000 0.11420  0.84200  0.25260  Biso   1.000  C
  C39      1.0000 0.08780  0.87120  0.31050  Biso   1.000  C
  C40      1.0000 0.00580  0.02570  0.38290  Biso   1.000  C
  C41      1.0000 0.99710  0.02070  0.03290  Biso   1.000  C
  C42      1.0000 0.49100  0.49240  0.96510  Biso   1.000  C
  C43      1.0000 0.41710  0.38580  0.56460  Biso   1.000  C
  C44      1.0000 0.40550  0.51590  0.58090  Biso   1.000  C
  C45      1.0000 0.64340  0.60650  0.63470  Biso   1.000  C
  C46      1.0000 0.66730  0.48240  0.61870  Biso   1.000  C
  C47      1.0000 0.55150  0.37060  0.58410  Biso   1.000  C
  C48      1.0000 0.28320  0.26000  0.52880  Biso   1.000  C
  C49      1.0000 0.45990  0.01460  0.82160  Biso   1.000  C
  C50      1.0000 0.47760  0.93550  0.77330  Biso   1.000  C
  C51      1.0000 0.40620  0.07350  0.70770  Biso   1.000  C
  C52      1.0000 0.38580  0.15800  0.75260  Biso   1.000  C
  C53      1.0000 0.41220  0.12880  0.81050  Biso   1.000  C
  C54      1.0000 0.49420  0.97430  0.88290  Biso   1.000  C
  C55      1.0000 0.50290  0.97930  0.53290  Biso   1.000  C
  C56      1.0000 0.00900  0.50760  0.46510  Biso   1.000  C
  N1       1.0000 0.01560  0.62640  0.88390  Biso   1.000  N
  N2       1.0000 0.95260  0.96360  0.78320  Biso   1.000  N
  N3       1.0000 0.48440  0.37360  0.38390  Biso   1.000  N
  N4       1.0000 0.54740  0.03640  0.28320  Biso   1.000  N
  N5       1.0000 0.98440  0.37360  0.11610  Biso   1.000  N
  N6       1.0000 0.04740  0.03640  0.21680  Biso   1.000  N
  N7       1.0000 0.51560  0.62640  0.61610  Biso   1.000  N
  N8       1.0000 0.45260  0.96360  0.71680  Biso   1.000  N
  O1       1.0000 0.67790  0.29140  0.99527  Biso   1.000  O
  O2       1.0000 0.78710  0.13370  0.97272  Biso   1.000  O
  O3       1.0000 0.05910  0.88660  0.61362  Biso   1.000  O
  O4       1.0000 0.95710  0.02820  0.57248  Biso   1.000  O
  O5       1.0000 0.87040  0.88310  0.94454  Biso   1.000  O
  O6       1.0000 0.13700  0.04010  0.94104  Biso   1.000  O
  O7       1.0000 0.44970  0.38530  0.06386  Biso   1.000  O
  O8       1.0000 0.57880  0.64160  0.05526  Biso   1.000  O
  O9       1.0000 0.82210  0.70860  0.49527  Biso   1.000  O
  O10      1.0000 0.71290  0.86630  0.47272  Biso   1.000  O
  O11      1.0000 0.44090  0.11340  0.11362  Biso   1.000  O
  O12      1.0000 0.54290  0.97180  0.07248  Biso   1.000  O
  O13      1.0000 0.62960  0.11690  0.44454  Biso   1.000  O
  O14      1.0000 0.36300  0.95990  0.44104  Biso   1.000  O
  O15      1.0000 0.05030  0.61470  0.56386  Biso   1.000  O
  O16      1.0000 0.92120  0.35840  0.55526  Biso   1.000  O
  O17      1.0000 0.32210  0.70860  0.00473  Biso   1.000  O
  O18      1.0000 0.21290  0.86630  0.02728  Biso   1.000  O
  O19      1.0000 0.94090  0.11340  0.38638  Biso   1.000  O
  O20      1.0000 0.04290  0.97180  0.42752  Biso   1.000  O
  O21      1.0000 0.12960  0.11690  0.05546  Biso   1.000  O
  O22      1.0000 0.86300  0.95990  0.05896  Biso   1.000  O
  O23      1.0000 0.55030  0.61470  0.93614  Biso   1.000  O
  O24      1.0000 0.42120  0.35840  0.94474  Biso   1.000  O
  O25      1.0000 0.17790  0.29140  0.50473  Biso   1.000  O
  O26      1.0000 0.28710  0.13370  0.52728  Biso   1.000  O
  O27      1.0000 0.55910  0.88660  0.88638  Biso   1.000  O
  O28      1.0000 0.45710  0.02820  0.92752  Biso   1.000  O
  O29      1.0000 0.37040  0.88310  0.55546  Biso   1.000  O
  O30      1.0000 0.63700  0.04010  0.55896  Biso   1.000  O
  O31      1.0000 0.94970  0.38530  0.43614  Biso   1.000  O
  O32      1.0000 0.07880  0.64160  0.44474  Biso   1.000  O
