data_image0
_cell_length_a       13.6257
_cell_length_b       25.2675
_cell_length_c       16.8185
_cell_angle_alpha    90
_cell_angle_beta     105.815
_cell_angle_gamma    90

_symmetry_space_group_name_H-M    "P 1"
_symmetry_int_tables_number       1

loop_
  _symmetry_equiv_pos_as_xyz
  'x, y, z'

loop_
  _atom_site_label
  _atom_site_occupancy
  _atom_site_fract_x
  _atom_site_fract_y
  _atom_site_fract_z
  _atom_site_thermal_displace_type
  _atom_site_B_iso_or_equiv
  _atom_site_type_symbol
  Co1      1.0000 0.10481  0.28176  0.09094  Biso   1.000  Co
  Co2      1.0000 0.25295  0.24425  0.26047  Biso   1.000  Co
  O1       1.0000 0.74006  0.20592  0.71410  Biso   1.000  O
  O2       1.0000 0.63580  0.17792  0.13712  Biso   1.000  O
  O3       1.0000 0.16714  0.21257  0.13306  Biso   1.000  O
  O4       1.0000 0.00394  0.20045  0.12490  Biso   1.000  O
  O5       1.0000 0.13573  0.96147  0.10044  Biso   1.000  O
  O6       1.0000 0.96634  0.82404  0.34638  Biso   1.000  O
  O7       1.0000 0.85975  0.79601  0.22813  Biso   1.000  O
  O8       1.0000 0.35007  0.17504  0.26578  Biso   1.000  O
  O9       1.0000 0.21001  0.17393  0.30650  Biso   1.000  O
  O10      1.0000 0.36134  0.94045  0.41064  Biso   1.000  O
  O11      1.0000 0.77273  0.82277  0.41311  Biso   1.000  O
  O12      1.0000 0.66672  0.78853  0.29831  Biso   1.000  O
  N1       1.0000 0.02207  0.27599  0.97153  Biso   1.000  N
  N2       1.0000 0.87264  0.26282  0.72019  Biso   1.000  N
  H1       1.0000 0.89860  0.28320  0.68860  Biso   1.000  H
  N3       1.0000 0.47511  0.20411  0.13235  Biso   1.000  N
  H2       1.0000 0.43320  0.20890  0.16340  Biso   1.000  H
  N4       1.0000 0.33595  0.23303  0.88117  Biso   1.000  N
  C1       1.0000 0.94278  0.24257  0.94537  Biso   1.000  C
  H3       1.0000 0.92370  0.22140  0.98550  Biso   1.000  H
  C2       1.0000 0.88767  0.23721  0.86392  Biso   1.000  C
  H4       1.0000 0.83170  0.21340  0.84870  Biso   1.000  H
  C3       1.0000 0.91587  0.26750  0.80419  Biso   1.000  C
  C4       1.0000 0.99723  0.30292  0.83084  Biso   1.000  C
  H5       1.0000 0.01740  0.32480  0.79220  Biso   1.000  H
  C5       1.0000 0.04758  0.30571  0.91348  Biso   1.000  C
  H6       1.0000 0.10300  0.32970  0.93060  Biso   1.000  H
  C6       1.0000 0.79338  0.23004  0.67939  Biso   1.000  C
  C7       1.0000 0.78296  0.22752  0.58776  Biso   1.000  C
  H7       1.0000 0.85140  0.22150  0.57960  Biso   1.000  H
  H8       1.0000 0.75830  0.26230  0.56300  Biso   1.000  H
  C8       1.0000 0.71140  0.18485  0.54162  Biso   1.000  C
  H9       1.0000 0.64170  0.19130  0.54670  Biso   1.000  H
  H10      1.0000 0.73430  0.14980  0.56620  Biso   1.000  H
  C9       1.0000 0.71000  0.18485  0.45056  Biso   1.000  C
  H11      1.0000 0.78100  0.18160  0.44660  Biso   1.000  H
  H12      1.0000 0.68300  0.21930  0.42590  Biso   1.000  H
  C10      1.0000 0.64620  0.14051  0.40001  Biso   1.000  C
  H13      1.0000 0.57510  0.14350  0.40360  Biso   1.000  H
  H14      1.0000 0.67330  0.10600  0.42400  Biso   1.000  H
  C11      1.0000 0.64640  0.14209  0.30878  Biso   1.000  C
  H15      1.0000 0.71760  0.14080  0.30510  Biso   1.000  H
  H16      1.0000 0.61030  0.11060  0.28010  Biso   1.000  H
  C12      1.0000 0.59480  0.19196  0.26599  Biso   1.000  C
  H17      1.0000 0.52990  0.19730  0.28070  Biso   1.000  H
  H18      1.0000 0.63920  0.22280  0.28690  Biso   1.000  H
  C13      1.0000 0.57265  0.19009  0.17318  Biso   1.000  C
  C14      1.0000 0.43332  0.21187  0.04739  Biso   1.000  C
  C15      1.0000 0.48904  0.21481  0.98915  Biso   1.000  C
  H19      1.0000 0.56080  0.20960  0.00490  Biso   1.000  H
  C16      1.0000 0.43691  0.22544  0.90787  Biso   1.000  C
  H20      1.0000 0.47520  0.22750  0.86850  Biso   1.000  H
  C17      1.0000 0.28357  0.22969  0.93783  Biso   1.000  C
  H21      1.0000 0.21190  0.23510  0.92040  Biso   1.000  H
  C18      1.0000 0.32805  0.21878  0.01995  Biso   1.000  C
  H22      1.0000 0.28740  0.21600  0.05750  Biso   1.000  H
  C19      1.0000 0.08936  0.18146  0.12960  Biso   1.000  C
  C20      1.0000 0.10511  0.12352  0.12658  Biso   1.000  C
  C21      1.0000 0.02857  0.08992  0.13649  Biso   1.000  C
  H23      1.0000 0.96940  0.10440  0.14780  Biso   1.000  H
  C22      1.0000 0.03760  0.03571  0.13002  Biso   1.000  C
  H24      1.0000 0.98580  0.01280  0.13800  Biso   1.000  H
  C23      1.0000 0.12329  0.01517  0.11173  Biso   1.000  C
  C24      1.0000 0.20082  0.04796  0.10141  Biso   1.000  C
  H25      1.0000 0.25920  0.03350  0.08890  Biso   1.000  H
  C25      1.0000 0.19138  0.10212  0.10964  Biso   1.000  C
  H26      1.0000 0.24440  0.12490  0.10370  Biso   1.000  H
  C26      1.0000 0.08461  0.92770  0.14149  Biso   1.000  C
  C27      1.0000 0.99950  0.90087  0.09653  Biso   1.000  C
  H27      1.0000 0.97490  0.90570  0.03850  Biso   1.000  H
  C28      1.0000 0.95020  0.86671  0.13773  Biso   1.000  C
  H28      1.0000 0.89150  0.84790  0.10750  Biso   1.000  H
  C29      1.0000 0.98587  0.85979  0.22266  Biso   1.000  C
  C30      1.0000 0.07250  0.88723  0.26634  Biso   1.000  C
  H29      1.0000 0.09780  0.88250  0.32440  Biso   1.000  H
  C31      1.0000 0.12200  0.92137  0.22578  Biso   1.000  C
  H30      1.0000 0.18100  0.94020  0.25560  Biso   1.000  H
  C32      1.0000 0.93306  0.82387  0.26823  Biso   1.000  C
  C33      1.0000 0.28816  0.15044  0.29633  Biso   1.000  C
  C34      1.0000 0.30645  0.09407  0.32209  Biso   1.000  C
  C35      1.0000 0.24012  0.06797  0.35925  Biso   1.000  C
  H31      1.0000 0.18110  0.08570  0.36530  Biso   1.000  H
  C36      1.0000 0.25961  0.01667  0.38732  Biso   1.000  C
  H32      1.0000 0.21450  0.99910  0.41280  Biso   1.000  H
  C37      1.0000 0.34629  0.99083  0.37785  Biso   1.000  C
  C38      1.0000 0.41131  0.01538  0.33878  Biso   1.000  C
  H33      1.0000 0.46880  0.99710  0.33070  Biso   1.000  H
  C39      1.0000 0.39084  0.06729  0.31156  Biso   1.000  C
  H34      1.0000 0.43540  0.08460  0.28530  Biso   1.000  H
  C40      1.0000 0.44246  0.91091  0.39756  Biso   1.000  C
  C41      1.0000 0.43000  0.88445  0.32420  Biso   1.000  C
  H35      1.0000 0.36790  0.88730  0.28160  Biso   1.000  H
  C42      1.0000 0.50910  0.85362  0.31330  Biso   1.000  C
  H36      1.0000 0.50130  0.83490  0.26290  Biso   1.000  H
  C43      1.0000 0.59973  0.84975  0.37520  Biso   1.000  C
  C44      1.0000 0.60930  0.87564  0.44940  Biso   1.000  C
  H37      1.0000 0.67060  0.87240  0.49270  Biso   1.000  H
  C45      1.0000 0.52990  0.90637  0.46102  Biso   1.000  C
  H38      1.0000 0.53600  0.92400  0.51210  Biso   1.000  H
  C46      1.0000 0.68617  0.81806  0.36138  Biso   1.000  C
  Co3      1.0000 0.89519  0.78176  0.40906  Biso   1.000  Co
  Co4      1.0000 0.74705  0.74425  0.23953  Biso   1.000  Co
  O13      1.0000 0.25994  0.70592  0.78590  Biso   1.000  O
  O14      1.0000 0.36420  0.67792  0.36288  Biso   1.000  O
  O15      1.0000 0.83286  0.71257  0.36694  Biso   1.000  O
  O16      1.0000 0.99606  0.70045  0.37510  Biso   1.000  O
  O17      1.0000 0.86427  0.46147  0.39956  Biso   1.000  O
  O18      1.0000 0.03366  0.32404  0.15362  Biso   1.000  O
  O19      1.0000 0.14025  0.29601  0.27187  Biso   1.000  O
  O20      1.0000 0.64993  0.67504  0.23422  Biso   1.000  O
  O21      1.0000 0.78999  0.67393  0.19350  Biso   1.000  O
  O22      1.0000 0.63866  0.44045  0.08936  Biso   1.000  O
  O23      1.0000 0.22727  0.32277  0.08689  Biso   1.000  O
  O24      1.0000 0.33328  0.28853  0.20169  Biso   1.000  O
  N5       1.0000 0.97793  0.77599  0.52847  Biso   1.000  N
  N6       1.0000 0.12736  0.76282  0.77981  Biso   1.000  N
  H39      1.0000 0.10140  0.78320  0.81140  Biso   1.000  H
  N7       1.0000 0.52489  0.70411  0.36765  Biso   1.000  N
  H40      1.0000 0.56680  0.70890  0.33660  Biso   1.000  H
  N8       1.0000 0.66405  0.73303  0.61883  Biso   1.000  N
  C47      1.0000 0.05722  0.74257  0.55463  Biso   1.000  C
  H41      1.0000 0.07630  0.72140  0.51450  Biso   1.000  H
  C48      1.0000 0.11233  0.73721  0.63608  Biso   1.000  C
  H42      1.0000 0.16830  0.71340  0.65130  Biso   1.000  H
  C49      1.0000 0.08413  0.76750  0.69581  Biso   1.000  C
  C50      1.0000 0.00277  0.80292  0.66916  Biso   1.000  C
  H43      1.0000 0.98260  0.82480  0.70780  Biso   1.000  H
  C51      1.0000 0.95242  0.80571  0.58652  Biso   1.000  C
  H44      1.0000 0.89700  0.82970  0.56940  Biso   1.000  H
  C52      1.0000 0.20662  0.73004  0.82061  Biso   1.000  C
  C53      1.0000 0.21704  0.72752  0.91224  Biso   1.000  C
  H45      1.0000 0.14860  0.72150  0.92040  Biso   1.000  H
  H46      1.0000 0.24170  0.76230  0.93700  Biso   1.000  H
  C54      1.0000 0.28860  0.68485  0.95838  Biso   1.000  C
  H47      1.0000 0.35830  0.69130  0.95330  Biso   1.000  H
  H48      1.0000 0.26570  0.64980  0.93380  Biso   1.000  H
  C55      1.0000 0.29000  0.68485  0.04944  Biso   1.000  C
  H49      1.0000 0.21900  0.68160  0.05340  Biso   1.000  H
  H50      1.0000 0.31700  0.71930  0.07410  Biso   1.000  H
  C56      1.0000 0.35380  0.64051  0.09999  Biso   1.000  C
  H51      1.0000 0.42490  0.64350  0.09640  Biso   1.000  H
  H52      1.0000 0.32670  0.60600  0.07600  Biso   1.000  H
  C57      1.0000 0.35360  0.64209  0.19122  Biso   1.000  C
  H53      1.0000 0.28240  0.64080  0.19490  Biso   1.000  H
  H54      1.0000 0.38970  0.61060  0.21990  Biso   1.000  H
  C58      1.0000 0.40520  0.69196  0.23401  Biso   1.000  C
  H55      1.0000 0.47010  0.69730  0.21930  Biso   1.000  H
  H56      1.0000 0.36080  0.72280  0.21310  Biso   1.000  H
  C59      1.0000 0.42735  0.69009  0.32682  Biso   1.000  C
  C60      1.0000 0.56668  0.71187  0.45261  Biso   1.000  C
  C61      1.0000 0.51096  0.71481  0.51085  Biso   1.000  C
  H57      1.0000 0.43920  0.70960  0.49510  Biso   1.000  H
  C62      1.0000 0.56309  0.72544  0.59213  Biso   1.000  C
  H58      1.0000 0.52480  0.72750  0.63150  Biso   1.000  H
  C63      1.0000 0.71643  0.72969  0.56217  Biso   1.000  C
  H59      1.0000 0.78810  0.73510  0.57960  Biso   1.000  H
  C64      1.0000 0.67195  0.71878  0.48005  Biso   1.000  C
  H60      1.0000 0.71260  0.71600  0.44250  Biso   1.000  H
  C65      1.0000 0.91064  0.68146  0.37040  Biso   1.000  C
  C66      1.0000 0.89489  0.62352  0.37342  Biso   1.000  C
  C67      1.0000 0.97143  0.58992  0.36351  Biso   1.000  C
  H61      1.0000 0.03060  0.60440  0.35220  Biso   1.000  H
  C68      1.0000 0.96240  0.53571  0.36998  Biso   1.000  C
  H62      1.0000 0.01420  0.51280  0.36200  Biso   1.000  H
  C69      1.0000 0.87671  0.51517  0.38827  Biso   1.000  C
  C70      1.0000 0.79918  0.54796  0.39859  Biso   1.000  C
  H63      1.0000 0.74080  0.53350  0.41110  Biso   1.000  H
  C71      1.0000 0.80862  0.60212  0.39036  Biso   1.000  C
  H64      1.0000 0.75560  0.62490  0.39630  Biso   1.000  H
  C72      1.0000 0.91539  0.42770  0.35851  Biso   1.000  C
  C73      1.0000 0.00050  0.40087  0.40347  Biso   1.000  C
  H65      1.0000 0.02510  0.40570  0.46150  Biso   1.000  H
  C74      1.0000 0.04980  0.36671  0.36227  Biso   1.000  C
  H66      1.0000 0.10850  0.34790  0.39250  Biso   1.000  H
  C75      1.0000 0.01413  0.35979  0.27734  Biso   1.000  C
  C76      1.0000 0.92750  0.38723  0.23366  Biso   1.000  C
  H67      1.0000 0.90220  0.38250  0.17560  Biso   1.000  H
  C77      1.0000 0.87800  0.42137  0.27422  Biso   1.000  C
  H68      1.0000 0.81900  0.44020  0.24440  Biso   1.000  H
  C78      1.0000 0.06694  0.32387  0.23177  Biso   1.000  C
  C79      1.0000 0.71184  0.65044  0.20367  Biso   1.000  C
  C80      1.0000 0.69355  0.59407  0.17791  Biso   1.000  C
  C81      1.0000 0.75988  0.56797  0.14075  Biso   1.000  C
  H69      1.0000 0.81890  0.58570  0.13470  Biso   1.000  H
  C82      1.0000 0.74039  0.51667  0.11268  Biso   1.000  C
  H70      1.0000 0.78550  0.49910  0.08720  Biso   1.000  H
  C83      1.0000 0.65371  0.49083  0.12215  Biso   1.000  C
  C84      1.0000 0.58869  0.51538  0.16122  Biso   1.000  C
  H71      1.0000 0.53120  0.49710  0.16930  Biso   1.000  H
  C85      1.0000 0.60916  0.56729  0.18844  Biso   1.000  C
  H72      1.0000 0.56460  0.58460  0.21470  Biso   1.000  H
  C86      1.0000 0.55754  0.41091  0.10244  Biso   1.000  C
  C87      1.0000 0.57000  0.38445  0.17580  Biso   1.000  C
  H73      1.0000 0.63210  0.38730  0.21840  Biso   1.000  H
  C88      1.0000 0.49090  0.35362  0.18670  Biso   1.000  C
  H74      1.0000 0.49870  0.33490  0.23710  Biso   1.000  H
  C89      1.0000 0.40027  0.34975  0.12480  Biso   1.000  C
  C90      1.0000 0.39070  0.37564  0.05060  Biso   1.000  C
  H75      1.0000 0.32940  0.37240  0.00730  Biso   1.000  H
  C91      1.0000 0.47010  0.40637  0.03898  Biso   1.000  C
  H76      1.0000 0.46400  0.42400  0.98790  Biso   1.000  H
  C92      1.0000 0.31383  0.31806  0.13862  Biso   1.000  C
  Co5      1.0000 0.89519  0.71824  0.90906  Biso   1.000  Co
  Co6      1.0000 0.74705  0.75575  0.73953  Biso   1.000  Co
  O25      1.0000 0.25994  0.79408  0.28590  Biso   1.000  O
  O26      1.0000 0.36420  0.82208  0.86288  Biso   1.000  O
  O27      1.0000 0.83286  0.78743  0.86694  Biso   1.000  O
  O28      1.0000 0.99606  0.79955  0.87510  Biso   1.000  O
  O29      1.0000 0.86427  0.03853  0.89956  Biso   1.000  O
  O30      1.0000 0.03366  0.17596  0.65362  Biso   1.000  O
  O31      1.0000 0.14025  0.20399  0.77187  Biso   1.000  O
  O32      1.0000 0.64993  0.82496  0.73422  Biso   1.000  O
  O33      1.0000 0.78999  0.82607  0.69350  Biso   1.000  O
  O34      1.0000 0.63866  0.05955  0.58936  Biso   1.000  O
  O35      1.0000 0.22727  0.17723  0.58689  Biso   1.000  O
  O36      1.0000 0.33328  0.21147  0.70169  Biso   1.000  O
  N9       1.0000 0.97793  0.72401  0.02847  Biso   1.000  N
  N10      1.0000 0.12736  0.73718  0.27981  Biso   1.000  N
  H77      1.0000 0.10140  0.71680  0.31140  Biso   1.000  H
  N11      1.0000 0.52489  0.79589  0.86765  Biso   1.000  N
  H78      1.0000 0.56680  0.79110  0.83660  Biso   1.000  H
  N12      1.0000 0.66405  0.76697  0.11883  Biso   1.000  N
  C93      1.0000 0.05722  0.75743  0.05463  Biso   1.000  C
  H79      1.0000 0.07630  0.77860  0.01450  Biso   1.000  H
  C94      1.0000 0.11233  0.76279  0.13608  Biso   1.000  C
  H80      1.0000 0.16830  0.78660  0.15130  Biso   1.000  H
  C95      1.0000 0.08413  0.73250  0.19581  Biso   1.000  C
  C96      1.0000 0.00277  0.69708  0.16916  Biso   1.000  C
  H81      1.0000 0.98260  0.67520  0.20780  Biso   1.000  H
  C97      1.0000 0.95242  0.69429  0.08652  Biso   1.000  C
  H82      1.0000 0.89700  0.67030  0.06940  Biso   1.000  H
  C98      1.0000 0.20662  0.76996  0.32061  Biso   1.000  C
  C99      1.0000 0.21704  0.77248  0.41224  Biso   1.000  C
  H83      1.0000 0.14860  0.77850  0.42040  Biso   1.000  H
  H84      1.0000 0.24170  0.73770  0.43700  Biso   1.000  H
  C100     1.0000 0.28860  0.81515  0.45838  Biso   1.000  C
  H85      1.0000 0.35830  0.80870  0.45330  Biso   1.000  H
  H86      1.0000 0.26570  0.85020  0.43380  Biso   1.000  H
  C101     1.0000 0.29000  0.81515  0.54944  Biso   1.000  C
  H87      1.0000 0.21900  0.81840  0.55340  Biso   1.000  H
  H88      1.0000 0.31700  0.78070  0.57410  Biso   1.000  H
  C102     1.0000 0.35380  0.85949  0.59999  Biso   1.000  C
  H89      1.0000 0.42490  0.85650  0.59640  Biso   1.000  H
  H90      1.0000 0.32670  0.89400  0.57600  Biso   1.000  H
  C103     1.0000 0.35360  0.85791  0.69122  Biso   1.000  C
  H91      1.0000 0.28240  0.85920  0.69490  Biso   1.000  H
  H92      1.0000 0.38970  0.88940  0.71990  Biso   1.000  H
  C104     1.0000 0.40520  0.80804  0.73401  Biso   1.000  C
  H93      1.0000 0.47010  0.80270  0.71930  Biso   1.000  H
  H94      1.0000 0.36080  0.77720  0.71310  Biso   1.000  H
  C105     1.0000 0.42735  0.80991  0.82682  Biso   1.000  C
  C106     1.0000 0.56668  0.78813  0.95261  Biso   1.000  C
  C107     1.0000 0.51096  0.78519  0.01085  Biso   1.000  C
  H95      1.0000 0.43920  0.79040  0.99510  Biso   1.000  H
  C108     1.0000 0.56309  0.77456  0.09213  Biso   1.000  C
  H96      1.0000 0.52480  0.77250  0.13150  Biso   1.000  H
  C109     1.0000 0.71643  0.77031  0.06217  Biso   1.000  C
  H97      1.0000 0.78810  0.76490  0.07960  Biso   1.000  H
  C110     1.0000 0.67195  0.78122  0.98005  Biso   1.000  C
  H98      1.0000 0.71260  0.78400  0.94250  Biso   1.000  H
  C111     1.0000 0.91064  0.81854  0.87040  Biso   1.000  C
  C112     1.0000 0.89489  0.87648  0.87342  Biso   1.000  C
  C113     1.0000 0.97143  0.91008  0.86351  Biso   1.000  C
  H99      1.0000 0.03060  0.89560  0.85220  Biso   1.000  H
  C114     1.0000 0.96240  0.96429  0.86998  Biso   1.000  C
  H100     1.0000 0.01420  0.98720  0.86200  Biso   1.000  H
  C115     1.0000 0.87671  0.98483  0.88827  Biso   1.000  C
  C116     1.0000 0.79918  0.95204  0.89859  Biso   1.000  C
  H101     1.0000 0.74080  0.96650  0.91110  Biso   1.000  H
  C117     1.0000 0.80862  0.89788  0.89036  Biso   1.000  C
  H102     1.0000 0.75560  0.87510  0.89630  Biso   1.000  H
  C118     1.0000 0.91539  0.07230  0.85851  Biso   1.000  C
  C119     1.0000 0.00050  0.09913  0.90347  Biso   1.000  C
  H103     1.0000 0.02510  0.09430  0.96150  Biso   1.000  H
  C120     1.0000 0.04980  0.13329  0.86227  Biso   1.000  C
  H104     1.0000 0.10850  0.15210  0.89250  Biso   1.000  H
  C121     1.0000 0.01413  0.14021  0.77734  Biso   1.000  C
  C122     1.0000 0.92750  0.11277  0.73366  Biso   1.000  C
  H105     1.0000 0.90220  0.11750  0.67560  Biso   1.000  H
  C123     1.0000 0.87800  0.07863  0.77422  Biso   1.000  C
  H106     1.0000 0.81900  0.05980  0.74440  Biso   1.000  H
  C124     1.0000 0.06694  0.17613  0.73177  Biso   1.000  C
  C125     1.0000 0.71184  0.84956  0.70367  Biso   1.000  C
  C126     1.0000 0.69355  0.90593  0.67791  Biso   1.000  C
  C127     1.0000 0.75988  0.93203  0.64075  Biso   1.000  C
  H107     1.0000 0.81890  0.91430  0.63470  Biso   1.000  H
  C128     1.0000 0.74039  0.98333  0.61268  Biso   1.000  C
  H108     1.0000 0.78550  0.00090  0.58720  Biso   1.000  H
  C129     1.0000 0.65371  0.00917  0.62215  Biso   1.000  C
  C130     1.0000 0.58869  0.98462  0.66122  Biso   1.000  C
  H109     1.0000 0.53120  0.00290  0.66930  Biso   1.000  H
  C131     1.0000 0.60916  0.93271  0.68844  Biso   1.000  C
  H110     1.0000 0.56460  0.91540  0.71470  Biso   1.000  H
  C132     1.0000 0.55754  0.08909  0.60244  Biso   1.000  C
  C133     1.0000 0.57000  0.11555  0.67580  Biso   1.000  C
  H111     1.0000 0.63210  0.11270  0.71840  Biso   1.000  H
  C134     1.0000 0.49090  0.14638  0.68670  Biso   1.000  C
  H112     1.0000 0.49870  0.16510  0.73710  Biso   1.000  H
  C135     1.0000 0.40027  0.15025  0.62480  Biso   1.000  C
  C136     1.0000 0.39070  0.12436  0.55060  Biso   1.000  C
  H113     1.0000 0.32940  0.12760  0.50730  Biso   1.000  H
  C137     1.0000 0.47010  0.09363  0.53898  Biso   1.000  C
  H114     1.0000 0.46400  0.07600  0.48790  Biso   1.000  H
  C138     1.0000 0.31383  0.18194  0.63862  Biso   1.000  C
  Co7      1.0000 0.10481  0.21824  0.59094  Biso   1.000  Co
  Co8      1.0000 0.25295  0.25575  0.76047  Biso   1.000  Co
  O37      1.0000 0.74006  0.29408  0.21410  Biso   1.000  O
  O38      1.0000 0.63580  0.32208  0.63712  Biso   1.000  O
  O39      1.0000 0.16714  0.28743  0.63306  Biso   1.000  O
  O40      1.0000 0.00394  0.29955  0.62490  Biso   1.000  O
  O41      1.0000 0.13573  0.53853  0.60044  Biso   1.000  O
  O42      1.0000 0.96634  0.67596  0.84638  Biso   1.000  O
  O43      1.0000 0.85975  0.70399  0.72813  Biso   1.000  O
  O44      1.0000 0.35007  0.32496  0.76578  Biso   1.000  O
  O45      1.0000 0.21001  0.32607  0.80650  Biso   1.000  O
  O46      1.0000 0.36134  0.55955  0.91064  Biso   1.000  O
  O47      1.0000 0.77273  0.67723  0.91311  Biso   1.000  O
  O48      1.0000 0.66672  0.71147  0.79831  Biso   1.000  O
  N13      1.0000 0.02207  0.22401  0.47153  Biso   1.000  N
  N14      1.0000 0.87264  0.23718  0.22019  Biso   1.000  N
  H115     1.0000 0.89860  0.21680  0.18860  Biso   1.000  H
  N15      1.0000 0.47511  0.29589  0.63235  Biso   1.000  N
  H116     1.0000 0.43320  0.29110  0.66340  Biso   1.000  H
  N16      1.0000 0.33595  0.26697  0.38117  Biso   1.000  N
  C139     1.0000 0.94278  0.25743  0.44537  Biso   1.000  C
  H117     1.0000 0.92370  0.27860  0.48550  Biso   1.000  H
  C140     1.0000 0.88767  0.26279  0.36392  Biso   1.000  C
  H118     1.0000 0.83170  0.28660  0.34870  Biso   1.000  H
  C141     1.0000 0.91587  0.23250  0.30419  Biso   1.000  C
  C142     1.0000 0.99723  0.19708  0.33084  Biso   1.000  C
  H119     1.0000 0.01740  0.17520  0.29220  Biso   1.000  H
  C143     1.0000 0.04758  0.19429  0.41348  Biso   1.000  C
  H120     1.0000 0.10300  0.17030  0.43060  Biso   1.000  H
  C144     1.0000 0.79338  0.26996  0.17939  Biso   1.000  C
  C145     1.0000 0.78296  0.27248  0.08776  Biso   1.000  C
  H121     1.0000 0.85140  0.27850  0.07960  Biso   1.000  H
  H122     1.0000 0.75830  0.23770  0.06300  Biso   1.000  H
  C146     1.0000 0.71140  0.31515  0.04162  Biso   1.000  C
  H123     1.0000 0.64170  0.30870  0.04670  Biso   1.000  H
  H124     1.0000 0.73430  0.35020  0.06620  Biso   1.000  H
  C147     1.0000 0.71000  0.31515  0.95056  Biso   1.000  C
  H125     1.0000 0.78100  0.31840  0.94660  Biso   1.000  H
  H126     1.0000 0.68300  0.28070  0.92590  Biso   1.000  H
  C148     1.0000 0.64620  0.35949  0.90001  Biso   1.000  C
  H127     1.0000 0.57510  0.35650  0.90360  Biso   1.000  H
  H128     1.0000 0.67330  0.39400  0.92400  Biso   1.000  H
  C149     1.0000 0.64640  0.35791  0.80878  Biso   1.000  C
  H129     1.0000 0.71760  0.35920  0.80510  Biso   1.000  H
  H130     1.0000 0.61030  0.38940  0.78010  Biso   1.000  H
  C150     1.0000 0.59480  0.30804  0.76599  Biso   1.000  C
  H131     1.0000 0.52990  0.30270  0.78070  Biso   1.000  H
  H132     1.0000 0.63920  0.27720  0.78690  Biso   1.000  H
  C151     1.0000 0.57265  0.30991  0.67318  Biso   1.000  C
  C152     1.0000 0.43332  0.28813  0.54739  Biso   1.000  C
  C153     1.0000 0.48904  0.28519  0.48915  Biso   1.000  C
  H133     1.0000 0.56080  0.29040  0.50490  Biso   1.000  H
  C154     1.0000 0.43691  0.27456  0.40787  Biso   1.000  C
  H134     1.0000 0.47520  0.27250  0.36850  Biso   1.000  H
  C155     1.0000 0.28357  0.27031  0.43783  Biso   1.000  C
  H135     1.0000 0.21190  0.26490  0.42040  Biso   1.000  H
  C156     1.0000 0.32805  0.28122  0.51995  Biso   1.000  C
  H136     1.0000 0.28740  0.28400  0.55750  Biso   1.000  H
  C157     1.0000 0.08936  0.31854  0.62960  Biso   1.000  C
  C158     1.0000 0.10511  0.37648  0.62658  Biso   1.000  C
  C159     1.0000 0.02857  0.41008  0.63649  Biso   1.000  C
  H137     1.0000 0.96940  0.39560  0.64780  Biso   1.000  H
  C160     1.0000 0.03760  0.46429  0.63002  Biso   1.000  C
  H138     1.0000 0.98580  0.48720  0.63800  Biso   1.000  H
  C161     1.0000 0.12329  0.48483  0.61173  Biso   1.000  C
  C162     1.0000 0.20082  0.45204  0.60141  Biso   1.000  C
  H139     1.0000 0.25920  0.46650  0.58890  Biso   1.000  H
  C163     1.0000 0.19138  0.39788  0.60964  Biso   1.000  C
  H140     1.0000 0.24440  0.37510  0.60370  Biso   1.000  H
  C164     1.0000 0.08461  0.57230  0.64149  Biso   1.000  C
  C165     1.0000 0.99950  0.59913  0.59653  Biso   1.000  C
  H141     1.0000 0.97490  0.59430  0.53850  Biso   1.000  H
  C166     1.0000 0.95020  0.63329  0.63773  Biso   1.000  C
  H142     1.0000 0.89150  0.65210  0.60750  Biso   1.000  H
  C167     1.0000 0.98587  0.64021  0.72266  Biso   1.000  C
  C168     1.0000 0.07250  0.61277  0.76634  Biso   1.000  C
  H143     1.0000 0.09780  0.61750  0.82440  Biso   1.000  H
  C169     1.0000 0.12200  0.57863  0.72578  Biso   1.000  C
  H144     1.0000 0.18100  0.55980  0.75560  Biso   1.000  H
  C170     1.0000 0.93306  0.67613  0.76823  Biso   1.000  C
  C171     1.0000 0.28816  0.34956  0.79633  Biso   1.000  C
  C172     1.0000 0.30645  0.40593  0.82209  Biso   1.000  C
  C173     1.0000 0.24012  0.43203  0.85925  Biso   1.000  C
  H145     1.0000 0.18110  0.41430  0.86530  Biso   1.000  H
  C174     1.0000 0.25961  0.48333  0.88732  Biso   1.000  C
  H146     1.0000 0.21450  0.50090  0.91280  Biso   1.000  H
  C175     1.0000 0.34629  0.50917  0.87785  Biso   1.000  C
  C176     1.0000 0.41131  0.48462  0.83878  Biso   1.000  C
  H147     1.0000 0.46880  0.50290  0.83070  Biso   1.000  H
  C177     1.0000 0.39084  0.43271  0.81156  Biso   1.000  C
  H148     1.0000 0.43540  0.41540  0.78530  Biso   1.000  H
  C178     1.0000 0.44246  0.58909  0.89756  Biso   1.000  C
  C179     1.0000 0.43000  0.61555  0.82420  Biso   1.000  C
  H149     1.0000 0.36790  0.61270  0.78160  Biso   1.000  H
  C180     1.0000 0.50910  0.64638  0.81330  Biso   1.000  C
  H150     1.0000 0.50130  0.66510  0.76290  Biso   1.000  H
  C181     1.0000 0.59973  0.65025  0.87520  Biso   1.000  C
  C182     1.0000 0.60930  0.62436  0.94940  Biso   1.000  C
  H151     1.0000 0.67060  0.62760  0.99270  Biso   1.000  H
  C183     1.0000 0.52990  0.59363  0.96102  Biso   1.000  C
  H152     1.0000 0.53600  0.57600  0.01210  Biso   1.000  H
  C184     1.0000 0.68617  0.68194  0.86138  Biso   1.000  C
