data_image0
_cell_length_a       8.7238
_cell_length_b       11.6272
_cell_length_c       8.2747
_cell_angle_alpha    90
_cell_angle_beta     90
_cell_angle_gamma    90

_symmetry_space_group_name_H-M    "P 1"
_symmetry_int_tables_number       1

loop_
  _symmetry_equiv_pos_as_xyz
  'x, y, z'

loop_
  _atom_site_label
  _atom_site_occupancy
  _atom_site_fract_x
  _atom_site_fract_y
  _atom_site_fract_z
  _atom_site_thermal_displace_type
  _atom_site_B_iso_or_equiv
  _atom_site_type_symbol
  O1       1.0000 0.58387  0.32227  0.58900  Biso   1.000  O
  O2       1.0000 0.23808  0.09475  0.38367  Biso   1.000  O
  O3       1.0000 0.41236  0.31689  0.39500  Biso   1.000  O
  C1       1.0000 0.47015  0.28001  0.52253  Biso   1.000  C
  H1       1.0000 0.42200  0.21230  0.57110  Biso   1.000  H
  O4       1.0000 0.91613  0.67773  0.58900  Biso   1.000  O
  O5       1.0000 0.26192  0.90525  0.38367  Biso   1.000  O
  O6       1.0000 0.08764  0.68311  0.39500  Biso   1.000  O
  C2       1.0000 0.02985  0.71999  0.52253  Biso   1.000  C
  H2       1.0000 0.07800  0.78770  0.57110  Biso   1.000  H
  O7       1.0000 0.91613  0.82227  0.91100  Biso   1.000  O
  O8       1.0000 0.26192  0.59475  0.11633  Biso   1.000  O
  O9       1.0000 0.08764  0.81689  0.10500  Biso   1.000  O
  C3       1.0000 0.02985  0.78001  0.97747  Biso   1.000  C
  H3       1.0000 0.07800  0.71230  0.92890  Biso   1.000  H
  O10      1.0000 0.58387  0.17773  0.91100  Biso   1.000  O
  O11      1.0000 0.23808  0.40525  0.11633  Biso   1.000  O
  O12      1.0000 0.41236  0.18311  0.10500  Biso   1.000  O
  C4       1.0000 0.47015  0.21999  0.97747  Biso   1.000  C
  H4       1.0000 0.42200  0.28770  0.92890  Biso   1.000  H
  O13      1.0000 0.41613  0.67773  0.41100  Biso   1.000  O
  O14      1.0000 0.76192  0.90525  0.61633  Biso   1.000  O
  O15      1.0000 0.58764  0.68311  0.60500  Biso   1.000  O
  C5       1.0000 0.52985  0.71999  0.47747  Biso   1.000  C
  H5       1.0000 0.57800  0.78770  0.42890  Biso   1.000  H
  O16      1.0000 0.08387  0.32227  0.41100  Biso   1.000  O
  O17      1.0000 0.73808  0.09475  0.61633  Biso   1.000  O
  O18      1.0000 0.91236  0.31689  0.60500  Biso   1.000  O
  C6       1.0000 0.97015  0.28001  0.47747  Biso   1.000  C
  H6       1.0000 0.92200  0.21230  0.42890  Biso   1.000  H
  O19      1.0000 0.08387  0.17773  0.08900  Biso   1.000  O
  O20      1.0000 0.73808  0.40525  0.88367  Biso   1.000  O
  O21      1.0000 0.91236  0.18311  0.89500  Biso   1.000  O
  C7       1.0000 0.97015  0.21999  0.02253  Biso   1.000  C
  H7       1.0000 0.92200  0.28770  0.07110  Biso   1.000  H
  O22      1.0000 0.41613  0.82227  0.08900  Biso   1.000  O
  O23      1.0000 0.76192  0.59475  0.88367  Biso   1.000  O
  O24      1.0000 0.58764  0.81689  0.89500  Biso   1.000  O
  C8       1.0000 0.52985  0.78001  0.02253  Biso   1.000  C
  H8       1.0000 0.57800  0.71230  0.07110  Biso   1.000  H
  Co1      1.0000 0.23720  0.25000  0.25000  Biso   1.000  Co
  Co2      1.0000 0.26280  0.75000  0.25000  Biso   1.000  Co
  Co3      1.0000 0.76280  0.75000  0.75000  Biso   1.000  Co
  Co4      1.0000 0.73720  0.25000  0.75000  Biso   1.000  Co
  C9       1.0000 0.25000  0.00000  0.31430  Biso   1.000  C
  H9       1.0000 0.25000  0.00000  0.20190  Biso   1.000  H
  C10      1.0000 0.25000  0.50000  0.18570  Biso   1.000  C
  H10      1.0000 0.25000  0.50000  0.29810  Biso   1.000  H
  C11      1.0000 0.75000  0.00000  0.68570  Biso   1.000  C
  H11      1.0000 0.75000  0.00000  0.79810  Biso   1.000  H
  C12      1.0000 0.75000  0.50000  0.81430  Biso   1.000  C
  H12      1.0000 0.75000  0.50000  0.70190  Biso   1.000  H
