data_GOYXAV_freeONLY
_audit_creation_date              2015-10-16
_audit_creation_method            'Materials Studio'
_symmetry_space_group_name_H-M    'P1'
_symmetry_Int_Tables_number       1
_symmetry_cell_setting            triclinic
loop_
_symmetry_equiv_pos_as_xyz
  x,y,z
_cell_length_a                    9.5280
_cell_length_b                    12.0112
_cell_length_c                    16.8990
_cell_angle_alpha                 96.3289
_cell_angle_beta                  90.0000
_cell_angle_gamma                 113.3680
loop_
_atom_site_label
_atom_site_type_symbol
_atom_site_fract_x
_atom_site_fract_y
_atom_site_fract_z
_atom_site_U_iso_or_equiv
_atom_site_adp_type
_atom_site_occupancy
Sm1    Sm    0.79640   0.99086   0.06579   0.01267  Uiso   1.00
Sm2    Sm    0.19446   0.99086   0.56579   0.01267  Uiso   1.00
Sm3    Sm    0.20360   0.00914   0.93421   0.01267  Uiso   1.00
Sm4    Sm    0.80554   0.00914   0.43421   0.01267  Uiso   1.00
Ag1    Ag    0.22294   0.68394   0.41638   0.01267  Uiso   1.00
Ag2    Ag    0.53900   0.31606   0.08362   0.01267  Uiso   1.00
Ag3    Ag    0.77706   0.31606   0.58362   0.01267  Uiso   1.00
Ag4    Ag    0.46100   0.68394   0.91638   0.01267  Uiso   1.00
H1     H     0.46620   0.09940   0.33210   0.01267  Uiso   1.00
H2     H     0.44750   0.69840   0.55000   0.01267  Uiso   1.00
H3     H     0.49110   0.42040   0.37120   0.01267  Uiso   1.00
H4     H     0.08920   0.41900   0.45860   0.01267  Uiso   1.00
H5     H     0.92930   0.42040   0.87120   0.01267  Uiso   1.00
H6     H     0.32980   0.41900   0.95860   0.01267  Uiso   1.00
H7     H     0.50890   0.57960   0.62880   0.01267  Uiso   1.00
H8     H     0.91080   0.58100   0.54140   0.01267  Uiso   1.00
H9     H     0.88150   0.80960   0.72060   0.01267  Uiso   1.00
H10    H     0.07190   0.19040   0.77940   0.01267  Uiso   1.00
H11    H     0.03030   0.28820   0.67790   0.01267  Uiso   1.00
H12    H     0.01050   0.37320   0.11920   0.01267  Uiso   1.00
H13    H     0.11850   0.19040   0.27940   0.01267  Uiso   1.00
H14    H     0.67020   0.58100   0.04140   0.01267  Uiso   1.00
H15    H     0.96970   0.71180   0.32210   0.01267  Uiso   1.00
H16    H     0.60650   0.19760   0.72940   0.01267  Uiso   1.00
H17    H     0.39350   0.80240   0.27060   0.01267  Uiso   1.00
H18    H     0.07070   0.57960   0.12880   0.01267  Uiso   1.00
H19    H     0.92810   0.80960   0.22060   0.01267  Uiso   1.00
H20    H     0.59110   0.19760   0.22940   0.01267  Uiso   1.00
H21    H     0.63730   0.62680   0.38080   0.01267  Uiso   1.00
H22    H     0.36680   0.90060   0.16790   0.01267  Uiso   1.00
H23    H     0.53380   0.90060   0.66790   0.01267  Uiso   1.00
H24    H     0.98950   0.62680   0.88080   0.01267  Uiso   1.00
H25    H     0.40890   0.80240   0.77060   0.01267  Uiso   1.00
H26    H     0.36270   0.37320   0.61920   0.01267  Uiso   1.00
H27    H     0.74210   0.71180   0.82210   0.01267  Uiso   1.00
H28    H     0.55250   0.30160   0.45000   0.01267  Uiso   1.00
H29    H     0.25790   0.28820   0.17790   0.01267  Uiso   1.00
H30    H     0.63320   0.09940   0.83210   0.01267  Uiso   1.00
H31    H     0.74910   0.30160   0.95000   0.01267  Uiso   1.00
H32    H     0.25090   0.69840   0.05000   0.01267  Uiso   1.00
C1     C     0.02480   0.81080   0.23030   0.01267  Uiso   1.00
C2     C     0.85460   0.12820   0.81570   0.01267  Uiso   1.00
C3     C     0.58050   0.86480   0.69920   0.01267  Uiso   1.00
C4     C     0.79310   0.07040   0.25490   0.01267  Uiso   1.00
C5     C     0.77030   0.38460   0.95350   0.01267  Uiso   1.00
C6     C     0.21400   0.18920   0.26970   0.01267  Uiso   1.00
C7     C     0.46360   0.93020   0.48770   0.01267  Uiso   1.00
C8     C     0.46660   0.93020   0.98770   0.01267  Uiso   1.00
C9     C     0.05090   0.75160   0.29100   0.01267  Uiso   1.00
C10    C     0.82330   0.54940   0.50770   0.01267  Uiso   1.00
C11    C     0.72640   0.87180   0.68430   0.01267  Uiso   1.00
C12    C     0.71570   0.13520   0.80080   0.01267  Uiso   1.00
C13    C     0.61430   0.38460   0.45350   0.01267  Uiso   1.00
C14    C     0.17670   0.45060   0.49230   0.01267  Uiso   1.00
C15    C     0.87950   0.45560   0.90660   0.01267  Uiso   1.00
C16    C     0.50580   0.80440   0.76070   0.01267  Uiso   1.00
C17    C     0.87160   0.76020   0.97470   0.01267  Uiso   1.00
C18    C     0.27360   0.12820   0.31570   0.01267  Uiso   1.00
C19    C     0.70070   0.75160   0.79100   0.01267  Uiso   1.00
C20    C     0.94910   0.24840   0.70900   0.01267  Uiso   1.00
C21    C     0.42390   0.54440   0.59340   0.01267  Uiso   1.00
C22    C     0.53340   0.06980   0.01230   0.01267  Uiso   1.00
C23    C     0.81920   0.94200   0.62170   0.01267  Uiso   1.00
C24    C     0.12050   0.54440   0.09340   0.01267  Uiso   1.00
C25    C     0.27730   0.07040   0.75490   0.01267  Uiso   1.00
C26    C     0.27390   0.45060   0.99230   0.01267  Uiso   1.00
C27    C     0.72270   0.92960   0.24510   0.01267  Uiso   1.00
C28    C     0.18080   0.05800   0.37830   0.01267  Uiso   1.00
C29    C     0.79020   0.62800   0.46450   0.01267  Uiso   1.00
C30    C     0.88860   0.76020   0.47470   0.01267  Uiso   1.00
C31    C     0.14540   0.87180   0.18430   0.01267  Uiso   1.00
C32    C     0.97520   0.18920   0.76970   0.01267  Uiso   1.00
C33    C     0.53640   0.06980   0.51230   0.01267  Uiso   1.00
C34    C     0.72610   0.54940   0.00770   0.01267  Uiso   1.00
C35    C     0.41950   0.13520   0.30080   0.01267  Uiso   1.00
C36    C     0.29930   0.24840   0.20900   0.01267  Uiso   1.00
C37    C     0.12280   0.94200   0.12170   0.01267  Uiso   1.00
C38    C     0.49420   0.19560   0.23930   0.01267  Uiso   1.00
C39    C     0.57610   0.45560   0.40660   0.01267  Uiso   1.00
C40    C     0.38570   0.61540   0.54650   0.01267  Uiso   1.00
C41    C     0.33710   0.42220   0.58810   0.01267  Uiso   1.00
C42    C     0.29860   0.80440   0.26070   0.01267  Uiso   1.00
C43    C     0.22970   0.61540   0.04650   0.01267  Uiso   1.00
C44    C     0.11140   0.23980   0.52530   0.01267  Uiso   1.00
C45    C     0.08510   0.42220   0.08810   0.01267  Uiso   1.00
C46    C     0.20690   0.92960   0.74510   0.01267  Uiso   1.00
C47    C     0.70140   0.19560   0.73930   0.01267  Uiso   1.00
C48    C     0.20980   0.37200   0.53550   0.01267  Uiso   1.00
C49    C     0.78600   0.81080   0.73030   0.01267  Uiso   1.00
C50    C     0.87720   0.05800   0.87830   0.01267  Uiso   1.00
C51    C     0.83780   0.62800   0.96450   0.01267  Uiso   1.00
C52    C     0.28430   0.86480   0.19920   0.01267  Uiso   1.00
C53    C     0.12840   0.23980   0.02530   0.01267  Uiso   1.00
C54    C     0.66290   0.57780   0.41190   0.01267  Uiso   1.00
C55    C     0.16220   0.37200   0.03550   0.01267  Uiso   1.00
C56    C     0.91490   0.57780   0.91190   0.01267  Uiso   1.00
N1     N     0.18610   0.74820   0.30710   0.01267  Uiso   1.00
N2     N     0.30530   0.57040   0.99670   0.01267  Uiso   1.00
N3     N     0.69470   0.42960   0.00330   0.01267  Uiso   1.00
N4     N     0.43790   0.25180   0.19290   0.01267  Uiso   1.00
N5     N     0.26510   0.57040   0.49670   0.01267  Uiso   1.00
N6     N     0.73490   0.42960   0.50330   0.01267  Uiso   1.00
N7     N     0.56210   0.74820   0.80710   0.01267  Uiso   1.00
N8     N     0.81390   0.25180   0.69290   0.01267  Uiso   1.00
O1     O     0.16890   0.88060   0.80700   0.01267  Uiso   1.00
O2     O     0.19530   0.87740   0.67570   0.01267  Uiso   1.00
O3     O     0.53280   0.88620   0.44030   0.01267  Uiso   1.00
O4     O     0.77430   0.02180   0.92640   0.01267  Uiso   1.00
O5     O     0.22570   0.97820   0.07360   0.01267  Uiso   1.00
O6     O     0.99970   0.04320   0.87870   0.01267  Uiso   1.00
O7     O     0.83370   0.82860   0.45250   0.01267  Uiso   1.00
O8     O     0.00030   0.95680   0.12130   0.01267  Uiso   1.00
O9     O     0.53270   0.87260   0.01840   0.01267  Uiso   1.00
O10    O     0.22800   0.20840   0.99440   0.01267  Uiso   1.00
O11    O     0.46720   0.11380   0.55970   0.01267  Uiso   1.00
O12    O     0.66010   0.12740   0.48160   0.01267  Uiso   1.00
O13    O     0.68210   0.87740   0.17570   0.01267  Uiso   1.00
O14    O     0.64660   0.11380   0.05970   0.01267  Uiso   1.00
O15    O     0.46730   0.12740   0.98160   0.01267  Uiso   1.00
O16    O     0.01960   0.79160   0.50560   0.01267  Uiso   1.00
O17    O     0.80470   0.12260   0.32430   0.01267  Uiso   1.00
O18    O     0.95650   0.95680   0.62130   0.01267  Uiso   1.00
O19    O     0.77200   0.79160   0.00560   0.01267  Uiso   1.00
O20    O     0.98040   0.20840   0.49440   0.01267  Uiso   1.00
O21    O     0.99490   0.82860   0.95250   0.01267  Uiso   1.00
O22    O     0.33990   0.87260   0.51840   0.01267  Uiso   1.00
O23    O     0.71170   0.88060   0.30700   0.01267  Uiso   1.00
O24    O     0.28830   0.11940   0.69300   0.01267  Uiso   1.00
O25    O     0.16630   0.17140   0.54750   0.01267  Uiso   1.00
O26    O     0.04350   0.04320   0.37870   0.01267  Uiso   1.00
O27    O     0.24750   0.02180   0.42640   0.01267  Uiso   1.00
O28    O     0.83110   0.11940   0.19300   0.01267  Uiso   1.00
O29    O     0.31790   0.12260   0.82430   0.01267  Uiso   1.00
O30    O     0.75250   0.97820   0.57360   0.01267  Uiso   1.00
O31    O     0.00510   0.17140   0.04750   0.01267  Uiso   1.00
O32    O     0.35340   0.88620   0.94030   0.01267  Uiso   1.00
