data_GOYYIE_freeONLY
_audit_creation_date              2015-10-16
_audit_creation_method            'Materials Studio'
_symmetry_space_group_name_H-M    'P1'
_symmetry_Int_Tables_number       1
_symmetry_cell_setting            triclinic
loop_
_symmetry_equiv_pos_as_xyz
  x,y,z
_cell_length_a                    9.3780
_cell_length_b                    11.9991
_cell_length_c                    16.5080
_cell_angle_alpha                 96.1973
_cell_angle_beta                  90.0000
_cell_angle_gamma                 113.0030
loop_
_atom_site_label
_atom_site_type_symbol
_atom_site_fract_x
_atom_site_fract_y
_atom_site_fract_z
_atom_site_U_iso_or_equiv
_atom_site_adp_type
_atom_site_occupancy
Yb1    Yb    0.80260   0.00940   0.93410   0.01267  Uiso   1.00
Yb2    Yb    0.79320   0.99060   0.56590   0.01267  Uiso   1.00
Yb3    Yb    0.20680   0.00940   0.43410   0.01267  Uiso   1.00
Yb4    Yb    0.19740   0.99060   0.06590   0.01267  Uiso   1.00
Ag1    Ag    0.53379   0.31804   0.57925   0.01267  Uiso   1.00
Ag2    Ag    0.21575   0.68196   0.92075   0.01267  Uiso   1.00
Ag3    Ag    0.78425   0.31804   0.07925   0.01267  Uiso   1.00
Ag4    Ag    0.46621   0.68196   0.42075   0.01267  Uiso   1.00
H1     H     0.04330   0.30020   0.18370   0.01267  Uiso   1.00
H2     H     0.95670   0.69980   0.81630   0.01267  Uiso   1.00
H3     H     0.43620   0.69460   0.06130   0.01267  Uiso   1.00
H4     H     0.41020   0.80420   0.27500   0.01267  Uiso   1.00
H5     H     0.74160   0.30540   0.43870   0.01267  Uiso   1.00
H6     H     0.58980   0.19580   0.72500   0.01267  Uiso   1.00
H7     H     0.25690   0.30020   0.68370   0.01267  Uiso   1.00
H8     H     0.88890   0.81260   0.22030   0.01267  Uiso   1.00
H9     H     0.66730   0.58460   0.53920   0.01267  Uiso   1.00
H10    H     0.98950   0.36280   0.61420   0.01267  Uiso   1.00
H11    H     0.63170   0.09840   0.33190   0.01267  Uiso   1.00
H12    H     0.53330   0.90160   0.16810   0.01267  Uiso   1.00
H13    H     0.37330   0.36280   0.11420   0.01267  Uiso   1.00
H14    H     0.60600   0.19580   0.22500   0.01267  Uiso   1.00
H15    H     0.46670   0.09840   0.83190   0.01267  Uiso   1.00
H16    H     0.74310   0.69980   0.31630   0.01267  Uiso   1.00
H17    H     0.11110   0.18740   0.77970   0.01267  Uiso   1.00
H18    H     0.51070   0.56860   0.13330   0.01267  Uiso   1.00
H19    H     0.36830   0.90160   0.66810   0.01267  Uiso   1.00
H20    H     0.07630   0.18740   0.27970   0.01267  Uiso   1.00
H21    H     0.91730   0.58460   0.03920   0.01267  Uiso   1.00
H22    H     0.92370   0.81260   0.72030   0.01267  Uiso   1.00
H23    H     0.62670   0.63720   0.88580   0.01267  Uiso   1.00
H24    H     0.94210   0.43140   0.36670   0.01267  Uiso   1.00
H25    H     0.39400   0.80420   0.77500   0.01267  Uiso   1.00
H26    H     0.25840   0.69460   0.56130   0.01267  Uiso   1.00
H27    H     0.56380   0.30540   0.93870   0.01267  Uiso   1.00
H28    H     0.05790   0.56860   0.63330   0.01267  Uiso   1.00
H29    H     0.33270   0.41540   0.46080   0.01267  Uiso   1.00
H30    H     0.48930   0.43140   0.86670   0.01267  Uiso   1.00
H31    H     0.01050   0.63720   0.38580   0.01267  Uiso   1.00
H32    H     0.08270   0.41540   0.96080   0.01267  Uiso   1.00
C1     C     0.34190   0.41420   0.08730   0.01267  Uiso   1.00
C2     C     0.70270   0.19560   0.23730   0.01267  Uiso   1.00
C3     C     0.29730   0.80440   0.76270   0.01267  Uiso   1.00
C4     C     0.87960   0.76660   0.47620   0.01267  Uiso   1.00
C5     C     0.13970   0.87140   0.68370   0.01267  Uiso   1.00
C6     C     0.27540   0.06960   0.25510   0.01267  Uiso   1.00
C7     C     0.65810   0.58580   0.91270   0.01267  Uiso   1.00
C8     C     0.28420   0.86520   0.69970   0.01267  Uiso   1.00
C9     C     0.72460   0.93040   0.74490   0.01267  Uiso   1.00
C10    C     0.29650   0.25440   0.71150   0.01267  Uiso   1.00
C11    C     0.79100   0.63340   0.96390   0.01267  Uiso   1.00
C12    C     0.17020   0.05240   0.87880   0.01267  Uiso   1.00
C13    C     0.62070   0.38920   0.94670   0.01267  Uiso   1.00
C14    C     0.79000   0.81060   0.22910   0.01267  Uiso   1.00
C15    C     0.11780   0.94760   0.62120   0.01267  Uiso   1.00
C16    C     0.92770   0.58580   0.41270   0.01267  Uiso   1.00
C17    C     0.97940   0.18940   0.27090   0.01267  Uiso   1.00
C18    C     0.76850   0.38920   0.44670   0.01267  Uiso   1.00
C19    C     0.95790   0.25440   0.21150   0.01267  Uiso   1.00
C20    C     0.23150   0.61080   0.55330   0.01267  Uiso   1.00
C21    C     0.88220   0.05240   0.37880   0.01267  Uiso   1.00
C22    C     0.50710   0.80440   0.26270   0.01267  Uiso   1.00
C23    C     0.17220   0.44680   0.99460   0.01267  Uiso   1.00
C24    C     0.57580   0.46500   0.90270   0.01267  Uiso   1.00
C25    C     0.21000   0.18940   0.77090   0.01267  Uiso   1.00
C26    C     0.73170   0.87140   0.18370   0.01267  Uiso   1.00
C27    C     0.49290   0.19560   0.73730   0.01267  Uiso   1.00
C28    C     0.82780   0.55320   0.00540   0.01267  Uiso   1.00
C29    C     0.26830   0.12860   0.81630   0.01267  Uiso   1.00
C30    C     0.15760   0.36660   0.53610   0.01267  Uiso   1.00
C31    C     0.02060   0.81060   0.72910   0.01267  Uiso   1.00
C32    C     0.11300   0.23340   0.02380   0.01267  Uiso   1.00
C33    C     0.82980   0.94760   0.12120   0.01267  Uiso   1.00
C34    C     0.46680   0.93240   0.49000   0.01267  Uiso   1.00
C35    C     0.84240   0.63340   0.46390   0.01267  Uiso   1.00
C36    C     0.58100   0.86520   0.19970   0.01267  Uiso   1.00
C37    C     0.72540   0.55320   0.50540   0.01267  Uiso   1.00
C38    C     0.53440   0.06760   0.01000   0.01267  Uiso   1.00
C39    C     0.07230   0.41420   0.58730   0.01267  Uiso   1.00
C40    C     0.88920   0.46500   0.40270   0.01267  Uiso   1.00
C41    C     0.11080   0.53500   0.59730   0.01267  Uiso   1.00
C42    C     0.41900   0.13480   0.80030   0.01267  Uiso   1.00
C43    C     0.71580   0.13480   0.30030   0.01267  Uiso   1.00
C44    C     0.79420   0.06960   0.75510   0.01267  Uiso   1.00
C45    C     0.42420   0.53500   0.09730   0.01267  Uiso   1.00
C46    C     0.20580   0.93040   0.24490   0.01267  Uiso   1.00
C47    C     0.27460   0.44680   0.49460   0.01267  Uiso   1.00
C48    C     0.04210   0.74560   0.78850   0.01267  Uiso   1.00
C49    C     0.53320   0.06760   0.51000   0.01267  Uiso   1.00
C50    C     0.20900   0.36660   0.03610   0.01267  Uiso   1.00
C51    C     0.86030   0.12860   0.31630   0.01267  Uiso   1.00
C52    C     0.46560   0.93240   0.99000   0.01267  Uiso   1.00
C53    C     0.88700   0.76660   0.97620   0.01267  Uiso   1.00
C54    C     0.37930   0.61080   0.05330   0.01267  Uiso   1.00
C55    C     0.70350   0.74560   0.28850   0.01267  Uiso   1.00
C56    C     0.12040   0.23340   0.52380   0.01267  Uiso   1.00
N1     N     0.69120   0.43420   0.49990   0.01267  Uiso   1.00
N2     N     0.25700   0.56580   0.00010   0.01267  Uiso   1.00
N3     N     0.30880   0.56580   0.50010   0.01267  Uiso   1.00
N4     N     0.56550   0.74540   0.30760   0.01267  Uiso   1.00
N5     N     0.82010   0.25460   0.19240   0.01267  Uiso   1.00
N6     N     0.43450   0.25460   0.69240   0.01267  Uiso   1.00
N7     N     0.17990   0.74540   0.80760   0.01267  Uiso   1.00
N8     N     0.74300   0.43420   0.99990   0.01267  Uiso   1.00
O1     O     0.97500   0.19780   0.99150   0.01267  Uiso   1.00
O2     O     0.96760   0.96340   0.12400   0.01267  Uiso   1.00
O3     O     0.99100   0.16160   0.54490   0.01267  Uiso   1.00
O4     O     0.46180   0.11680   0.05570   0.01267  Uiso   1.00
O5     O     0.33830   0.87380   0.02080   0.01267  Uiso   1.00
O6     O     0.22280   0.19780   0.49150   0.01267  Uiso   1.00
O7     O     0.17060   0.16160   0.04490   0.01267  Uiso   1.00
O8     O     0.22360   0.99040   0.57250   0.01267  Uiso   1.00
O9     O     0.00420   0.03660   0.37600   0.01267  Uiso   1.00
O10    O     0.80370   0.12260   0.82580   0.01267  Uiso   1.00
O11    O     0.53820   0.88320   0.94430   0.01267  Uiso   1.00
O12    O     0.23320   0.00960   0.92750   0.01267  Uiso   1.00
O13    O     0.99580   0.96340   0.62400   0.01267  Uiso   1.00
O14    O     0.02500   0.80220   0.00850   0.01267  Uiso   1.00
O15    O     0.82660   0.11880   0.69070   0.01267  Uiso   1.00
O16    O     0.70780   0.88120   0.80930   0.01267  Uiso   1.00
O17    O     0.65500   0.11680   0.55570   0.01267  Uiso   1.00
O18    O     0.00900   0.83840   0.45510   0.01267  Uiso   1.00
O19    O     0.34500   0.88320   0.44430   0.01267  Uiso   1.00
O20    O     0.76680   0.99040   0.07250   0.01267  Uiso   1.00
O21    O     0.31890   0.12260   0.32580   0.01267  Uiso   1.00
O22    O     0.19630   0.87740   0.17420   0.01267  Uiso   1.00
O23    O     0.82940   0.83840   0.95510   0.01267  Uiso   1.00
O24    O     0.17340   0.88120   0.30930   0.01267  Uiso   1.00
O25    O     0.77720   0.80220   0.50850   0.01267  Uiso   1.00
O26    O     0.77640   0.00960   0.42750   0.01267  Uiso   1.00
O27    O     0.29220   0.11880   0.19070   0.01267  Uiso   1.00
O28    O     0.68110   0.87740   0.67420   0.01267  Uiso   1.00
O29    O     0.46450   0.12620   0.47920   0.01267  Uiso   1.00
O30    O     0.03240   0.03660   0.87600   0.01267  Uiso   1.00
O31    O     0.66170   0.12620   0.97920   0.01267  Uiso   1.00
O32    O     0.53550   0.87380   0.52080   0.01267  Uiso   1.00
