data_image0
_cell_length_a       13.4109
_cell_length_b       16.2568
_cell_length_c       27.9028
_cell_angle_alpha    90
_cell_angle_beta     98.984
_cell_angle_gamma    90

_symmetry_space_group_name_H-M    "P 1"
_symmetry_int_tables_number       1

loop_
  _symmetry_equiv_pos_as_xyz
  'x, y, z'

loop_
  _atom_site_label
  _atom_site_occupancy
  _atom_site_fract_x
  _atom_site_fract_y
  _atom_site_fract_z
  _atom_site_thermal_displace_type
  _atom_site_B_iso_or_equiv
  _atom_site_type_symbol
  Ba1      1.0000 0.37181  0.74371  0.82015  Biso   1.000  Ba
  Ba2      1.0000 0.65078  0.86001  0.76807  Biso   1.000  Ba
  Ba3      1.0000 0.38622  0.59438  0.95900  Biso   1.000  Ba
  C1       1.0000 0.61250  0.58770  0.81462  Biso   1.000  C
  C2       1.0000 0.62090  0.67380  0.79620  Biso   1.000  C
  O1       1.0000 0.68560  0.68740  0.76950  Biso   1.000  O
  O2       1.0000 0.56530  0.72850  0.81014  Biso   1.000  O
  C3       1.0000 0.60480  0.57280  0.86295  Biso   1.000  C
  C4       1.0000 0.59050  0.64430  0.89520  Biso   1.000  C
  O3       1.0000 0.50250  0.66640  0.89923  Biso   1.000  O
  O4       1.0000 0.66980  0.67840  0.91671  Biso   1.000  O
  C5       1.0000 0.62110  0.49360  0.88182  Biso   1.000  C
  C6       1.0000 0.62210  0.47770  0.93467  Biso   1.000  C
  O5       1.0000 0.56210  0.51500  0.95718  Biso   1.000  O
  O6       1.0000 0.68360  0.42390  0.95419  Biso   1.000  O
  C7       1.0000 0.63920  0.42910  0.85146  Biso   1.000  C
  C8       1.0000 0.67020  0.34490  0.87279  Biso   1.000  C
  O7       1.0000 0.60120  0.29660  0.87956  Biso   1.000  O
  O8       1.0000 0.76200  0.33010  0.88096  Biso   1.000  O
  C9       1.0000 0.63070  0.44190  0.80130  Biso   1.000  C
  C10      1.0000 0.62600  0.37130  0.76689  Biso   1.000  C
  O9       1.0000 0.68660  0.31200  0.77463  Biso   1.000  O
  O10      1.0000 0.55530  0.37430  0.73114  Biso   1.000  O
  C11      1.0000 0.61930  0.52180  0.78326  Biso   1.000  C
  C12      1.0000 0.61540  0.53990  0.72950  Biso   1.000  C
  O11      1.0000 0.69190  0.52560  0.71034  Biso   1.000  O
  O12      1.0000 0.53450  0.57280  0.70863  Biso   1.000  O
  O13      1.0000 0.47600  0.85230  0.89160  Biso   1.000  O
  O14      1.0000 0.25540  0.88290  0.82740  Biso   1.000  O
  O15      1.0000 0.77130  0.79900  0.85956  Biso   1.000  O
  O16      1.0000 0.59860  0.95820  0.84435  Biso   1.000  O
  O17      1.0000 0.62220  0.95700  0.68600  Biso   1.000  O
  O18      1.0000 0.56520  0.75890  0.68530  Biso   1.000  O
  O19      1.0000 0.34640  0.43420  0.91610  Biso   1.000  O
  O20      1.0000 0.50880  0.67540  0.03950  Biso   1.000  O
  O21      1.0000 0.33220  0.76050  0.97300  Biso   1.000  O
  O22      1.0000 0.38360  0.60530  0.76130  Biso   1.000  O
  Ba4      1.0000 0.87181  0.24371  0.32015  Biso   1.000  Ba
  Ba5      1.0000 0.15078  0.36001  0.26807  Biso   1.000  Ba
  Ba6      1.0000 0.88622  0.09438  0.45900  Biso   1.000  Ba
  C13      1.0000 0.11250  0.08770  0.31462  Biso   1.000  C
  C14      1.0000 0.12090  0.17380  0.29620  Biso   1.000  C
  O23      1.0000 0.18560  0.18740  0.26950  Biso   1.000  O
  O24      1.0000 0.06530  0.22850  0.31014  Biso   1.000  O
  C15      1.0000 0.10480  0.07280  0.36295  Biso   1.000  C
  C16      1.0000 0.09050  0.14430  0.39520  Biso   1.000  C
  O25      1.0000 0.00250  0.16640  0.39923  Biso   1.000  O
  O26      1.0000 0.16980  0.17840  0.41671  Biso   1.000  O
  C17      1.0000 0.12110  0.99360  0.38182  Biso   1.000  C
  C18      1.0000 0.12210  0.97770  0.43467  Biso   1.000  C
  O27      1.0000 0.06210  0.01500  0.45718  Biso   1.000  O
  O28      1.0000 0.18360  0.92390  0.45419  Biso   1.000  O
  C19      1.0000 0.13920  0.92910  0.35146  Biso   1.000  C
  C20      1.0000 0.17020  0.84490  0.37279  Biso   1.000  C
  O29      1.0000 0.10120  0.79660  0.37956  Biso   1.000  O
  O30      1.0000 0.26200  0.83010  0.38096  Biso   1.000  O
  C21      1.0000 0.13070  0.94190  0.30130  Biso   1.000  C
  C22      1.0000 0.12600  0.87130  0.26689  Biso   1.000  C
  O31      1.0000 0.18660  0.81200  0.27463  Biso   1.000  O
  O32      1.0000 0.05530  0.87430  0.23114  Biso   1.000  O
  C23      1.0000 0.11930  0.02180  0.28326  Biso   1.000  C
  C24      1.0000 0.11540  0.03990  0.22950  Biso   1.000  C
  O33      1.0000 0.19190  0.02560  0.21034  Biso   1.000  O
  O34      1.0000 0.03450  0.07280  0.20863  Biso   1.000  O
  O35      1.0000 0.97600  0.35230  0.39160  Biso   1.000  O
  O36      1.0000 0.75540  0.38290  0.32740  Biso   1.000  O
  O37      1.0000 0.27130  0.29900  0.35956  Biso   1.000  O
  O38      1.0000 0.09860  0.45820  0.34435  Biso   1.000  O
  O39      1.0000 0.12220  0.45700  0.18600  Biso   1.000  O
  O40      1.0000 0.06520  0.25890  0.18530  Biso   1.000  O
  O41      1.0000 0.84640  0.93420  0.41610  Biso   1.000  O
  O42      1.0000 0.00880  0.17540  0.53950  Biso   1.000  O
  O43      1.0000 0.83220  0.26050  0.47300  Biso   1.000  O
  O44      1.0000 0.88360  0.10530  0.26130  Biso   1.000  O
  Ba7      1.0000 0.12819  0.74371  0.17985  Biso   1.000  Ba
  Ba8      1.0000 0.84922  0.86001  0.23193  Biso   1.000  Ba
  Ba9      1.0000 0.11378  0.59438  0.04100  Biso   1.000  Ba
  C25      1.0000 0.88750  0.58770  0.18538  Biso   1.000  C
  C26      1.0000 0.87910  0.67380  0.20380  Biso   1.000  C
  O45      1.0000 0.81440  0.68740  0.23050  Biso   1.000  O
  O46      1.0000 0.93470  0.72850  0.18986  Biso   1.000  O
  C27      1.0000 0.89520  0.57280  0.13705  Biso   1.000  C
  C28      1.0000 0.90950  0.64430  0.10480  Biso   1.000  C
  O47      1.0000 0.99750  0.66640  0.10077  Biso   1.000  O
  O48      1.0000 0.83020  0.67840  0.08329  Biso   1.000  O
  C29      1.0000 0.87890  0.49360  0.11818  Biso   1.000  C
  C30      1.0000 0.87790  0.47770  0.06533  Biso   1.000  C
  O49      1.0000 0.93790  0.51500  0.04282  Biso   1.000  O
  O50      1.0000 0.81640  0.42390  0.04581  Biso   1.000  O
  C31      1.0000 0.86080  0.42910  0.14854  Biso   1.000  C
  C32      1.0000 0.82980  0.34490  0.12721  Biso   1.000  C
  O51      1.0000 0.89880  0.29660  0.12044  Biso   1.000  O
  O52      1.0000 0.73800  0.33010  0.11904  Biso   1.000  O
  C33      1.0000 0.86930  0.44190  0.19870  Biso   1.000  C
  C34      1.0000 0.87400  0.37130  0.23311  Biso   1.000  C
  O53      1.0000 0.81340  0.31200  0.22537  Biso   1.000  O
  O54      1.0000 0.94470  0.37430  0.26886  Biso   1.000  O
  C35      1.0000 0.88070  0.52180  0.21674  Biso   1.000  C
  C36      1.0000 0.88460  0.53990  0.27050  Biso   1.000  C
  O55      1.0000 0.80810  0.52560  0.28966  Biso   1.000  O
  O56      1.0000 0.96550  0.57280  0.29137  Biso   1.000  O
  O57      1.0000 0.02400  0.85230  0.10840  Biso   1.000  O
  O58      1.0000 0.24460  0.88290  0.17260  Biso   1.000  O
  O59      1.0000 0.72870  0.79900  0.14044  Biso   1.000  O
  O60      1.0000 0.90140  0.95820  0.15565  Biso   1.000  O
  O61      1.0000 0.87780  0.95700  0.31400  Biso   1.000  O
  O62      1.0000 0.93480  0.75890  0.31470  Biso   1.000  O
  O63      1.0000 0.15360  0.43420  0.08390  Biso   1.000  O
  O64      1.0000 0.99120  0.67540  0.96050  Biso   1.000  O
  O65      1.0000 0.16780  0.76050  0.02700  Biso   1.000  O
  O66      1.0000 0.11640  0.60530  0.23870  Biso   1.000  O
  Ba10     1.0000 0.62819  0.24371  0.67985  Biso   1.000  Ba
  Ba11     1.0000 0.34922  0.36001  0.73193  Biso   1.000  Ba
  Ba12     1.0000 0.61378  0.09438  0.54100  Biso   1.000  Ba
  C37      1.0000 0.38750  0.08770  0.68538  Biso   1.000  C
  C38      1.0000 0.37910  0.17380  0.70380  Biso   1.000  C
  O67      1.0000 0.31440  0.18740  0.73050  Biso   1.000  O
  O68      1.0000 0.43470  0.22850  0.68986  Biso   1.000  O
  C39      1.0000 0.39520  0.07280  0.63705  Biso   1.000  C
  C40      1.0000 0.40950  0.14430  0.60480  Biso   1.000  C
  O69      1.0000 0.49750  0.16640  0.60077  Biso   1.000  O
  O70      1.0000 0.33020  0.17840  0.58329  Biso   1.000  O
  C41      1.0000 0.37890  0.99360  0.61818  Biso   1.000  C
  C42      1.0000 0.37790  0.97770  0.56533  Biso   1.000  C
  O71      1.0000 0.43790  0.01500  0.54282  Biso   1.000  O
  O72      1.0000 0.31640  0.92390  0.54581  Biso   1.000  O
  C43      1.0000 0.36080  0.92910  0.64854  Biso   1.000  C
  C44      1.0000 0.32980  0.84490  0.62721  Biso   1.000  C
  O73      1.0000 0.39880  0.79660  0.62044  Biso   1.000  O
  O74      1.0000 0.23800  0.83010  0.61904  Biso   1.000  O
  C45      1.0000 0.36930  0.94190  0.69870  Biso   1.000  C
  C46      1.0000 0.37400  0.87130  0.73311  Biso   1.000  C
  O75      1.0000 0.31340  0.81200  0.72537  Biso   1.000  O
  O76      1.0000 0.44470  0.87430  0.76886  Biso   1.000  O
  C47      1.0000 0.38070  0.02180  0.71674  Biso   1.000  C
  C48      1.0000 0.38460  0.03990  0.77050  Biso   1.000  C
  O77      1.0000 0.30810  0.02560  0.78966  Biso   1.000  O
  O78      1.0000 0.46550  0.07280  0.79137  Biso   1.000  O
  O79      1.0000 0.52400  0.35230  0.60840  Biso   1.000  O
  O80      1.0000 0.74460  0.38290  0.67260  Biso   1.000  O
  O81      1.0000 0.22870  0.29900  0.64044  Biso   1.000  O
  O82      1.0000 0.40140  0.45820  0.65565  Biso   1.000  O
  O83      1.0000 0.37780  0.45700  0.81400  Biso   1.000  O
  O84      1.0000 0.43480  0.25890  0.81470  Biso   1.000  O
  O85      1.0000 0.65360  0.93420  0.58390  Biso   1.000  O
  O86      1.0000 0.49120  0.17540  0.46050  Biso   1.000  O
  O87      1.0000 0.66780  0.26050  0.52700  Biso   1.000  O
  O88      1.0000 0.61640  0.10530  0.73870  Biso   1.000  O
  Ba13     1.0000 0.62819  0.25629  0.17985  Biso   1.000  Ba
  Ba14     1.0000 0.34922  0.13999  0.23193  Biso   1.000  Ba
  Ba15     1.0000 0.61378  0.40562  0.04100  Biso   1.000  Ba
  C49      1.0000 0.38750  0.41230  0.18538  Biso   1.000  C
  C50      1.0000 0.37910  0.32620  0.20380  Biso   1.000  C
  O89      1.0000 0.31440  0.31260  0.23050  Biso   1.000  O
  O90      1.0000 0.43470  0.27150  0.18986  Biso   1.000  O
  C51      1.0000 0.39520  0.42720  0.13705  Biso   1.000  C
  C52      1.0000 0.40950  0.35570  0.10480  Biso   1.000  C
  O91      1.0000 0.49750  0.33360  0.10077  Biso   1.000  O
  O92      1.0000 0.33020  0.32160  0.08329  Biso   1.000  O
  C53      1.0000 0.37890  0.50640  0.11818  Biso   1.000  C
  C54      1.0000 0.37790  0.52230  0.06533  Biso   1.000  C
  O93      1.0000 0.43790  0.48500  0.04282  Biso   1.000  O
  O94      1.0000 0.31640  0.57610  0.04581  Biso   1.000  O
  C55      1.0000 0.36080  0.57090  0.14854  Biso   1.000  C
  C56      1.0000 0.32980  0.65510  0.12721  Biso   1.000  C
  O95      1.0000 0.39880  0.70340  0.12044  Biso   1.000  O
  O96      1.0000 0.23800  0.66990  0.11904  Biso   1.000  O
  C57      1.0000 0.36930  0.55810  0.19870  Biso   1.000  C
  C58      1.0000 0.37400  0.62870  0.23311  Biso   1.000  C
  O97      1.0000 0.31340  0.68800  0.22537  Biso   1.000  O
  O98      1.0000 0.44470  0.62570  0.26886  Biso   1.000  O
  C59      1.0000 0.38070  0.47820  0.21674  Biso   1.000  C
  C60      1.0000 0.38460  0.46010  0.27050  Biso   1.000  C
  O99      1.0000 0.30810  0.47440  0.28966  Biso   1.000  O
  O100     1.0000 0.46550  0.42720  0.29137  Biso   1.000  O
  O101     1.0000 0.52400  0.14770  0.10840  Biso   1.000  O
  O102     1.0000 0.74460  0.11710  0.17260  Biso   1.000  O
  O103     1.0000 0.22870  0.20100  0.14044  Biso   1.000  O
  O104     1.0000 0.40140  0.04180  0.15565  Biso   1.000  O
  O105     1.0000 0.37780  0.04300  0.31400  Biso   1.000  O
  O106     1.0000 0.43480  0.24110  0.31470  Biso   1.000  O
  O107     1.0000 0.65360  0.56580  0.08390  Biso   1.000  O
  O108     1.0000 0.49120  0.32460  0.96050  Biso   1.000  O
  O109     1.0000 0.66780  0.23950  0.02700  Biso   1.000  O
  O110     1.0000 0.61640  0.39470  0.23870  Biso   1.000  O
  Ba16     1.0000 0.12819  0.75629  0.67985  Biso   1.000  Ba
  Ba17     1.0000 0.84922  0.63999  0.73193  Biso   1.000  Ba
  Ba18     1.0000 0.11378  0.90562  0.54100  Biso   1.000  Ba
  C61      1.0000 0.88750  0.91230  0.68538  Biso   1.000  C
  C62      1.0000 0.87910  0.82620  0.70380  Biso   1.000  C
  O111     1.0000 0.81440  0.81260  0.73050  Biso   1.000  O
  O112     1.0000 0.93470  0.77150  0.68986  Biso   1.000  O
  C63      1.0000 0.89520  0.92720  0.63705  Biso   1.000  C
  C64      1.0000 0.90950  0.85570  0.60480  Biso   1.000  C
  O113     1.0000 0.99750  0.83360  0.60077  Biso   1.000  O
  O114     1.0000 0.83020  0.82160  0.58329  Biso   1.000  O
  C65      1.0000 0.87890  0.00640  0.61818  Biso   1.000  C
  C66      1.0000 0.87790  0.02230  0.56533  Biso   1.000  C
  O115     1.0000 0.93790  0.98500  0.54282  Biso   1.000  O
  O116     1.0000 0.81640  0.07610  0.54581  Biso   1.000  O
  C67      1.0000 0.86080  0.07090  0.64854  Biso   1.000  C
  C68      1.0000 0.82980  0.15510  0.62721  Biso   1.000  C
  O117     1.0000 0.89880  0.20340  0.62044  Biso   1.000  O
  O118     1.0000 0.73800  0.16990  0.61904  Biso   1.000  O
  C69      1.0000 0.86930  0.05810  0.69870  Biso   1.000  C
  C70      1.0000 0.87400  0.12870  0.73311  Biso   1.000  C
  O119     1.0000 0.81340  0.18800  0.72537  Biso   1.000  O
  O120     1.0000 0.94470  0.12570  0.76886  Biso   1.000  O
  C71      1.0000 0.88070  0.97820  0.71674  Biso   1.000  C
  C72      1.0000 0.88460  0.96010  0.77050  Biso   1.000  C
  O121     1.0000 0.80810  0.97440  0.78966  Biso   1.000  O
  O122     1.0000 0.96550  0.92720  0.79137  Biso   1.000  O
  O123     1.0000 0.02400  0.64770  0.60840  Biso   1.000  O
  O124     1.0000 0.24460  0.61710  0.67260  Biso   1.000  O
  O125     1.0000 0.72870  0.70100  0.64044  Biso   1.000  O
  O126     1.0000 0.90140  0.54180  0.65565  Biso   1.000  O
  O127     1.0000 0.87780  0.54300  0.81400  Biso   1.000  O
  O128     1.0000 0.93480  0.74110  0.81470  Biso   1.000  O
  O129     1.0000 0.15360  0.06580  0.58390  Biso   1.000  O
  O130     1.0000 0.99120  0.82460  0.46050  Biso   1.000  O
  O131     1.0000 0.16780  0.73950  0.52700  Biso   1.000  O
  O132     1.0000 0.11640  0.89470  0.73870  Biso   1.000  O
  Ba19     1.0000 0.87181  0.25629  0.82015  Biso   1.000  Ba
  Ba20     1.0000 0.15078  0.13999  0.76807  Biso   1.000  Ba
  Ba21     1.0000 0.88622  0.40562  0.95900  Biso   1.000  Ba
  C73      1.0000 0.11250  0.41230  0.81462  Biso   1.000  C
  C74      1.0000 0.12090  0.32620  0.79620  Biso   1.000  C
  O133     1.0000 0.18560  0.31260  0.76950  Biso   1.000  O
  O134     1.0000 0.06530  0.27150  0.81014  Biso   1.000  O
  C75      1.0000 0.10480  0.42720  0.86295  Biso   1.000  C
  C76      1.0000 0.09050  0.35570  0.89520  Biso   1.000  C
  O135     1.0000 0.00250  0.33360  0.89923  Biso   1.000  O
  O136     1.0000 0.16980  0.32160  0.91671  Biso   1.000  O
  C77      1.0000 0.12110  0.50640  0.88182  Biso   1.000  C
  C78      1.0000 0.12210  0.52230  0.93467  Biso   1.000  C
  O137     1.0000 0.06210  0.48500  0.95718  Biso   1.000  O
  O138     1.0000 0.18360  0.57610  0.95419  Biso   1.000  O
  C79      1.0000 0.13920  0.57090  0.85146  Biso   1.000  C
  C80      1.0000 0.17020  0.65510  0.87279  Biso   1.000  C
  O139     1.0000 0.10120  0.70340  0.87956  Biso   1.000  O
  O140     1.0000 0.26200  0.66990  0.88096  Biso   1.000  O
  C81      1.0000 0.13070  0.55810  0.80130  Biso   1.000  C
  C82      1.0000 0.12600  0.62870  0.76689  Biso   1.000  C
  O141     1.0000 0.18660  0.68800  0.77463  Biso   1.000  O
  O142     1.0000 0.05530  0.62570  0.73114  Biso   1.000  O
  C83      1.0000 0.11930  0.47820  0.78326  Biso   1.000  C
  C84      1.0000 0.11540  0.46010  0.72950  Biso   1.000  C
  O143     1.0000 0.19190  0.47440  0.71034  Biso   1.000  O
  O144     1.0000 0.03450  0.42720  0.70863  Biso   1.000  O
  O145     1.0000 0.97600  0.14770  0.89160  Biso   1.000  O
  O146     1.0000 0.75540  0.11710  0.82740  Biso   1.000  O
  O147     1.0000 0.27130  0.20100  0.85956  Biso   1.000  O
  O148     1.0000 0.09860  0.04180  0.84435  Biso   1.000  O
  O149     1.0000 0.12220  0.04300  0.68600  Biso   1.000  O
  O150     1.0000 0.06520  0.24110  0.68530  Biso   1.000  O
  O151     1.0000 0.84640  0.56580  0.91610  Biso   1.000  O
  O152     1.0000 0.00880  0.32460  0.03950  Biso   1.000  O
  O153     1.0000 0.83220  0.23950  0.97300  Biso   1.000  O
  O154     1.0000 0.88360  0.39470  0.76130  Biso   1.000  O
  Ba22     1.0000 0.37181  0.75629  0.32015  Biso   1.000  Ba
  Ba23     1.0000 0.65078  0.63999  0.26807  Biso   1.000  Ba
  Ba24     1.0000 0.38622  0.90562  0.45900  Biso   1.000  Ba
  C85      1.0000 0.61250  0.91230  0.31462  Biso   1.000  C
  C86      1.0000 0.62090  0.82620  0.29620  Biso   1.000  C
  O155     1.0000 0.68560  0.81260  0.26950  Biso   1.000  O
  O156     1.0000 0.56530  0.77150  0.31014  Biso   1.000  O
  C87      1.0000 0.60480  0.92720  0.36295  Biso   1.000  C
  C88      1.0000 0.59050  0.85570  0.39520  Biso   1.000  C
  O157     1.0000 0.50250  0.83360  0.39923  Biso   1.000  O
  O158     1.0000 0.66980  0.82160  0.41671  Biso   1.000  O
  C89      1.0000 0.62110  0.00640  0.38182  Biso   1.000  C
  C90      1.0000 0.62210  0.02230  0.43467  Biso   1.000  C
  O159     1.0000 0.56210  0.98500  0.45718  Biso   1.000  O
  O160     1.0000 0.68360  0.07610  0.45419  Biso   1.000  O
  C91      1.0000 0.63920  0.07090  0.35146  Biso   1.000  C
  C92      1.0000 0.67020  0.15510  0.37279  Biso   1.000  C
  O161     1.0000 0.60120  0.20340  0.37956  Biso   1.000  O
  O162     1.0000 0.76200  0.16990  0.38096  Biso   1.000  O
  C93      1.0000 0.63070  0.05810  0.30130  Biso   1.000  C
  C94      1.0000 0.62600  0.12870  0.26689  Biso   1.000  C
  O163     1.0000 0.68660  0.18800  0.27463  Biso   1.000  O
  O164     1.0000 0.55530  0.12570  0.23114  Biso   1.000  O
  C95      1.0000 0.61930  0.97820  0.28326  Biso   1.000  C
  C96      1.0000 0.61540  0.96010  0.22950  Biso   1.000  C
  O165     1.0000 0.69190  0.97440  0.21034  Biso   1.000  O
  O166     1.0000 0.53450  0.92720  0.20863  Biso   1.000  O
  O167     1.0000 0.47600  0.64770  0.39160  Biso   1.000  O
  O168     1.0000 0.25540  0.61710  0.32740  Biso   1.000  O
  O169     1.0000 0.77130  0.70100  0.35956  Biso   1.000  O
  O170     1.0000 0.59860  0.54180  0.34435  Biso   1.000  O
  O171     1.0000 0.62220  0.54300  0.18600  Biso   1.000  O
  O172     1.0000 0.56520  0.74110  0.18530  Biso   1.000  O
  O173     1.0000 0.34640  0.06580  0.41610  Biso   1.000  O
  O174     1.0000 0.50880  0.82460  0.53950  Biso   1.000  O
  O175     1.0000 0.33220  0.73950  0.47300  Biso   1.000  O
  O176     1.0000 0.38360  0.89470  0.26130  Biso   1.000  O
