data_image0
_cell_length_a       10.798
_cell_length_b       15.8375
_cell_length_c       15.8375
_cell_angle_alpha    94.8089
_cell_angle_beta     103.458
_cell_angle_gamma    103.458

_symmetry_space_group_name_H-M    P 1
_symmetry_int_tables_number       1

loop_
  _symmetry_equiv_pos_as_xyz
  'x, y, z'

loop_
  _atom_site_label
  _atom_site_occupancy
  _atom_site_fract_x
  _atom_site_fract_y
  _atom_site_fract_z
  _atom_site_thermal_displace_type
  _atom_site_B_iso_or_equiv
  _atom_site_type_symbol
  Co1      1.0000 0.04150  0.93370  0.77210  Biso   1.000  Co
  Co2      1.0000 0.27970  0.42200  0.26060  Biso   1.000  Co
  Co3      1.0000 0.54150  0.77210  0.93370  Biso   1.000  Co
  Co4      1.0000 0.77970  0.26060  0.42200  Biso   1.000  Co
  H1       1.0000 0.82840  0.76380  0.94600  Biso   1.000  H
  H2       1.0000 0.74750  0.86410  0.70250  Biso   1.000  H
  H3       1.0000 0.16830  0.30280  0.08420  Biso   1.000  H
  H4       1.0000 0.25230  0.55230  0.13970  Biso   1.000  H
  H5       1.0000 0.11840  0.63000  0.06660  Biso   1.000  H
  H6       1.0000 0.01510  0.44200  0.25680  Biso   1.000  H
  H7       1.0000 0.45280  0.72610  0.44970  Biso   1.000  H
  H8       1.0000 0.59250  0.76550  0.60110  Biso   1.000  H
  H9       1.0000 0.73590  0.60880  0.42520  Biso   1.000  H
  H10      1.0000 0.30880  0.60950  0.34970  Biso   1.000  H
  H11      1.0000 0.02370  0.84050  0.58850  Biso   1.000  H
  H12      1.0000 0.87240  0.74110  0.48230  Biso   1.000  H
  H13      1.0000 0.57910  0.49280  0.33040  Biso   1.000  H
  H14      1.0000 0.96350  0.68360  0.99800  Biso   1.000  H
  H15      1.0000 0.85800  0.06460  0.95360  Biso   1.000  H
  H16      1.0000 0.55900  0.62220  0.05120  Biso   1.000  H
  H17      1.0000 0.83930  0.49270  0.17730  Biso   1.000  H
  H18      1.0000 0.66740  0.88190  0.11210  Biso   1.000  H
  H19      1.0000 0.00660  0.18420  0.01280  Biso   1.000  H
  H20      1.0000 0.10110  0.25670  0.30330  Biso   1.000  H
  H21      1.0000 0.80310  0.01570  0.18010  Biso   1.000  H
  H22      1.0000 0.90700  0.14740  0.23640  Biso   1.000  H
  H23      1.0000 0.76070  0.92080  0.89400  Biso   1.000  H
  H24      1.0000 0.71550  0.54860  0.09540  Biso   1.000  H
  H25      1.0000 0.32840  0.94600  0.76380  Biso   1.000  H
  H26      1.0000 0.24750  0.70250  0.86410  Biso   1.000  H
  H27      1.0000 0.66830  0.08420  0.30280  Biso   1.000  H
  H28      1.0000 0.75230  0.13970  0.55230  Biso   1.000  H
  H29      1.0000 0.61840  0.06660  0.63000  Biso   1.000  H
  H30      1.0000 0.51510  0.25680  0.44200  Biso   1.000  H
  H31      1.0000 0.95280  0.44970  0.72610  Biso   1.000  H
  H32      1.0000 0.09250  0.60110  0.76550  Biso   1.000  H
  H33      1.0000 0.23590  0.42520  0.60880  Biso   1.000  H
  H34      1.0000 0.80880  0.34970  0.60950  Biso   1.000  H
  H35      1.0000 0.52370  0.58850  0.84050  Biso   1.000  H
  H36      1.0000 0.37240  0.48230  0.74110  Biso   1.000  H
  H37      1.0000 0.07910  0.33040  0.49280  Biso   1.000  H
  H38      1.0000 0.46350  0.99800  0.68360  Biso   1.000  H
  H39      1.0000 0.35800  0.95360  0.06460  Biso   1.000  H
  H40      1.0000 0.05900  0.05120  0.62220  Biso   1.000  H
  H41      1.0000 0.33930  0.17730  0.49270  Biso   1.000  H
  H42      1.0000 0.16740  0.11210  0.88190  Biso   1.000  H
  H43      1.0000 0.50660  0.01280  0.18420  Biso   1.000  H
  H44      1.0000 0.60110  0.30330  0.25670  Biso   1.000  H
  H45      1.0000 0.30310  0.18010  0.01570  Biso   1.000  H
  H46      1.0000 0.40700  0.23640  0.14740  Biso   1.000  H
  H47      1.0000 0.26070  0.89400  0.92080  Biso   1.000  H
  H48      1.0000 0.21550  0.09540  0.54860  Biso   1.000  H
  C1       1.0000 0.80110  0.72030  0.97870  Biso   1.000  C
  C2       1.0000 0.77240  0.83760  0.65680  Biso   1.000  C
  C3       1.0000 0.11720  0.27030  0.11610  Biso   1.000  C
  C4       1.0000 0.16850  0.54400  0.14880  Biso   1.000  C
  C5       1.0000 0.09050  0.59170  0.10390  Biso   1.000  C
  C6       1.0000 0.96020  0.13780  0.11560  Biso   1.000  C
  C7       1.0000 0.86580  0.05200  0.07340  Biso   1.000  C
  C8       1.0000 0.70660  0.73730  0.51770  Biso   1.000  C
  C9       1.0000 0.60870  0.67180  0.44860  Biso   1.000  C
  C10      1.0000 0.03060  0.47740  0.21440  Biso   1.000  C
  C11      1.0000 0.87080  0.62230  0.07490  Biso   1.000  C
  C12      1.0000 0.96810  0.57780  0.11920  Biso   1.000  C
  C13      1.0000 0.47980  0.67950  0.42690  Biso   1.000  C
  C14      1.0000 0.67830  0.77960  0.59500  Biso   1.000  C
  C15      1.0000 0.64710  0.60810  0.41230  Biso   1.000  C
  C16      1.0000 0.39680  0.60830  0.36710  Biso   1.000  C
  C17      1.0000 0.93620  0.82500  0.59100  Biso   1.000  C
  C18      1.0000 0.84210  0.76570  0.52630  Biso   1.000  C
  C19      1.0000 0.55270  0.53930  0.35390  Biso   1.000  C
  C20      1.0000 0.88580  0.67600  0.01560  Biso   1.000  C
  C21      1.0000 0.83140  0.02470  0.98990  Biso   1.000  C
  C22      1.0000 0.64090  0.63840  0.03940  Biso   1.000  C
  C23      1.0000 0.92520  0.51090  0.17210  Biso   1.000  C
  C24      1.0000 0.70970  0.91860  0.07880  Biso   1.000  C
  C25      1.0000 0.02520  0.19560  0.07360  Biso   1.000  C
  C26      1.0000 0.07350  0.24520  0.24240  Biso   1.000  C
  C27      1.0000 0.79400  0.99810  0.12090  Biso   1.000  C
  C28      1.0000 0.96730  0.17200  0.20620  Biso   1.000  C
  C29      1.0000 0.75900  0.94180  0.95020  Biso   1.000  C
  C30      1.0000 0.74210  0.59950  0.07170  Biso   1.000  C
  C31      1.0000 0.30110  0.97870  0.72030  Biso   1.000  C
  C32      1.0000 0.27240  0.65680  0.83760  Biso   1.000  C
  C33      1.0000 0.61720  0.11610  0.27030  Biso   1.000  C
  C34      1.0000 0.66850  0.14880  0.54400  Biso   1.000  C
  C35      1.0000 0.59050  0.10390  0.59170  Biso   1.000  C
  C36      1.0000 0.46020  0.11560  0.13780  Biso   1.000  C
  C37      1.0000 0.36580  0.07340  0.05200  Biso   1.000  C
  C38      1.0000 0.20660  0.51770  0.73730  Biso   1.000  C
  C39      1.0000 0.10870  0.44860  0.67180  Biso   1.000  C
  C40      1.0000 0.53060  0.21440  0.47740  Biso   1.000  C
  C41      1.0000 0.37080  0.07490  0.62230  Biso   1.000  C
  C42      1.0000 0.46810  0.11920  0.57780  Biso   1.000  C
  C43      1.0000 0.97980  0.42690  0.67950  Biso   1.000  C
  C44      1.0000 0.17830  0.59500  0.77960  Biso   1.000  C
  C45      1.0000 0.14710  0.41230  0.60810  Biso   1.000  C
  C46      1.0000 0.89680  0.36710  0.60830  Biso   1.000  C
  C47      1.0000 0.43620  0.59100  0.82500  Biso   1.000  C
  C48      1.0000 0.34210  0.52630  0.76570  Biso   1.000  C
  C49      1.0000 0.05270  0.35390  0.53930  Biso   1.000  C
  C50      1.0000 0.38580  0.01560  0.67600  Biso   1.000  C
  C51      1.0000 0.33140  0.98990  0.02470  Biso   1.000  C
  C52      1.0000 0.14090  0.03940  0.63840  Biso   1.000  C
  C53      1.0000 0.42520  0.17210  0.51090  Biso   1.000  C
  C54      1.0000 0.20970  0.07880  0.91860  Biso   1.000  C
  C55      1.0000 0.52520  0.07360  0.19560  Biso   1.000  C
  C56      1.0000 0.57350  0.24240  0.24520  Biso   1.000  C
  C57      1.0000 0.29400  0.12090  0.99810  Biso   1.000  C
  C58      1.0000 0.46730  0.20620  0.17200  Biso   1.000  C
  C59      1.0000 0.25900  0.95020  0.94180  Biso   1.000  C
  C60      1.0000 0.24210  0.07170  0.59950  Biso   1.000  C
  N1       1.0000 0.67100  0.70270  0.98830  Biso   1.000  N
  N2       1.0000 0.89910  0.86000  0.65760  Biso   1.000  N
  N3       1.0000 0.14150  0.49060  0.20040  Biso   1.000  N
  N4       1.0000 0.42540  0.53890  0.33130  Biso   1.000  N
  N5       1.0000 0.13800  0.29890  0.20010  Biso   1.000  N
  N6       1.0000 0.68570  0.89170  0.99430  Biso   1.000  N
  N7       1.0000 0.02330  0.78170  0.82810  Biso   1.000  N
  N8       1.0000 0.30680  0.36930  0.41050  Biso   1.000  N
  N9       1.0000 0.47260  0.44820  0.15440  Biso   1.000  N
  N10      1.0000 0.84530  0.04140  0.75160  Biso   1.000  N
  N11      1.0000 0.17100  0.98830  0.70270  Biso   1.000  N
  N12      1.0000 0.39910  0.65760  0.86000  Biso   1.000  N
  N13      1.0000 0.64150  0.20040  0.49060  Biso   1.000  N
  N14      1.0000 0.92540  0.33130  0.53890  Biso   1.000  N
  N15      1.0000 0.63800  0.20010  0.29890  Biso   1.000  N
  N16      1.0000 0.18570  0.99430  0.89170  Biso   1.000  N
  N17      1.0000 0.52330  0.82810  0.78170  Biso   1.000  N
  N18      1.0000 0.80680  0.41050  0.36930  Biso   1.000  N
  N19      1.0000 0.97260  0.15440  0.44820  Biso   1.000  N
  N20      1.0000 0.34530  0.75160  0.04140  Biso   1.000  N
  O1       1.0000 0.10080  0.81210  0.78330  Biso   1.000  O
  O2       1.0000 0.22140  0.41280  0.38440  Biso   1.000  O
  O3       1.0000 0.95020  0.83570  0.84330  Biso   1.000  O
  O4       1.0000 0.36700  0.34780  0.35920  Biso   1.000  O
  O5       1.0000 0.92950  0.01330  0.80070  Biso   1.000  O
  O6       1.0000 0.38580  0.38950  0.18010  Biso   1.000  O
  O7       1.0000 0.00380  0.71190  0.85410  Biso   1.000  O
  O8       1.0000 0.31560  0.34640  0.48460  Biso   1.000  O
  O9       1.0000 0.57860  0.42530  0.15230  Biso   1.000  O
  O10      1.0000 0.75770  0.05660  0.77180  Biso   1.000  O
  O11      1.0000 0.45870  0.52040  0.14060  Biso   1.000  O
  O12      1.0000 0.86500  0.05900  0.68260  Biso   1.000  O
  O13      1.0000 0.60080  0.78330  0.81210  Biso   1.000  O
  O14      1.0000 0.72140  0.38440  0.41280  Biso   1.000  O
  O15      1.0000 0.45020  0.84330  0.83570  Biso   1.000  O
  O16      1.0000 0.86700  0.35920  0.34780  Biso   1.000  O
  O17      1.0000 0.42950  0.80070  0.01330  Biso   1.000  O
  O18      1.0000 0.88580  0.18010  0.38950  Biso   1.000  O
  O19      1.0000 0.50380  0.85410  0.71190  Biso   1.000  O
  O20      1.0000 0.81560  0.48460  0.34640  Biso   1.000  O
  O21      1.0000 0.07860  0.15230  0.42530  Biso   1.000  O
  O22      1.0000 0.25770  0.77180  0.05660  Biso   1.000  O
  O23      1.0000 0.95870  0.14060  0.52040  Biso   1.000  O
  O24      1.0000 0.36500  0.68260  0.05900  Biso   1.000  O
