data_image0
_cell_length_a       11.34
_cell_length_b       15.77
_cell_length_c       22.9
_cell_angle_alpha    90
_cell_angle_beta     97.98
_cell_angle_gamma    90

_symmetry_space_group_name_H-M    "P 1"
_symmetry_int_tables_number       1

loop_
  _symmetry_equiv_pos_as_xyz
  'x, y, z'

loop_
  _atom_site_label
  _atom_site_occupancy
  _atom_site_fract_x
  _atom_site_fract_y
  _atom_site_fract_z
  _atom_site_thermal_displace_type
  _atom_site_B_iso_or_equiv
  _atom_site_type_symbol
  Cu1      1.0000 0.38700  0.75661  0.72854  Biso   1.000  Cu
  N1       1.0000 0.26610  0.67360  0.68880  Biso   1.000  N
  N2       1.0000 0.17620  0.55060  0.66760  Biso   1.000  N
  N3       1.0000 0.10820  0.61300  0.64180  Biso   1.000  N
  N4       1.0000 0.48970  0.72970  0.66830  Biso   1.000  N
  N5       1.0000 0.64050  0.66600  0.63180  Biso   1.000  N
  N6       1.0000 0.55890  0.69520  0.58740  Biso   1.000  N
  N7       1.0000 0.51750  0.83380  0.76880  Biso   1.000  N
  C1       1.0000 0.56450  0.84010  0.82440  Biso   1.000  C
  H1       1.0000 0.54070  0.81010  0.85580  Biso   1.000  H
  N8       1.0000 0.65080  0.89630  0.82800  Biso   1.000  N
  N9       1.0000 0.65730  0.92480  0.77460  Biso   1.000  N
  C2       1.0000 0.57490  0.88620  0.73800  Biso   1.000  C
  H2       1.0000 0.55980  0.89440  0.69740  Biso   1.000  H
  N10      1.0000 0.27360  0.78880  0.78400  Biso   1.000  N
  C3       1.0000 0.24170  0.86750  0.79490  Biso   1.000  C
  H3       1.0000 0.27350  0.91670  0.78110  Biso   1.000  H
  N11      1.0000 0.15660  0.86380  0.82910  Biso   1.000  N
  N12      1.0000 0.13580  0.78270  0.83930  Biso   1.000  N
  C4       1.0000 0.20810  0.73640  0.81140  Biso   1.000  C
  H4       1.0000 0.21220  0.67750  0.81120  Biso   1.000  H
  C5       1.0000 0.27000  0.58970  0.69510  Biso   1.000  C
  H5       1.0000 0.33330  0.56140  0.71690  Biso   1.000  H
  C6       1.0000 0.16300  0.68570  0.65360  Biso   1.000  C
  H6       1.0000 0.13420  0.73810  0.63960  Biso   1.000  H
  C7       1.0000 0.99270  0.59450  0.60700  Biso   1.000  C
  H7       1.0000 0.95270  0.64780  0.59610  Biso   1.000  H
  H8       1.0000 0.94440  0.56360  0.63150  Biso   1.000  H
  C8       1.0000 0.99910  0.54490  0.55250  Biso   1.000  C
  C9       1.0000 0.07810  0.56600  0.51290  Biso   1.000  C
  H9       1.0000 0.13120  0.61070  0.52140  Biso   1.000  H
  C10      1.0000 0.92250  0.47860  0.53800  Biso   1.000  C
  H10      1.0000 0.86930  0.46370  0.56370  Biso   1.000  H
  C11      1.0000 0.59530  0.68790  0.67920  Biso   1.000  C
  H11      1.0000 0.63240  0.67590  0.71710  Biso   1.000  H
  C12      1.0000 0.47210  0.73230  0.60950  Biso   1.000  C
  H12      1.0000 0.40650  0.75720  0.58710  Biso   1.000  H
  C13      1.0000 0.56670  0.67530  0.52600  Biso   1.000  C
  H13      1.0000 0.64760  0.68460  0.51810  Biso   1.000  H
  H14      1.0000 0.51460  0.71280  0.50060  Biso   1.000  H
  C14      1.0000 0.53170  0.58400  0.51200  Biso   1.000  C
  C15      1.0000 0.42570  0.55320  0.52330  Biso   1.000  C
  H15      1.0000 0.37320  0.58860  0.53950  Biso   1.000  H
  C16      1.0000 0.60530  0.53070  0.48900  Biso   1.000  C
  H16      1.0000 0.67880  0.55040  0.48120  Biso   1.000  H
  C17      1.0000 0.74050  0.99180  0.76130  Biso   1.000  C
  H17      1.0000 0.79810  0.96830  0.73820  Biso   1.000  H
  H18      1.0000 0.78330  0.01390  0.79770  Biso   1.000  H
  C18      1.0000 0.67140  0.06340  0.72690  Biso   1.000  C
  C19      1.0000 0.64030  0.05530  0.66650  Biso   1.000  C
  H19      1.0000 0.66670  0.00860  0.64710  Biso   1.000  H
  C20      1.0000 0.57100  0.11540  0.63510  Biso   1.000  C
  H20      1.0000 0.54900  0.10850  0.59480  Biso   1.000  H
  C21      1.0000 0.53330  0.18630  0.66290  Biso   1.000  C
  C22      1.0000 0.56910  0.19590  0.72320  Biso   1.000  C
  H21      1.0000 0.54790  0.24440  0.74230  Biso   1.000  H
  C23      1.0000 0.63600  0.13360  0.75460  Biso   1.000  C
  H22      1.0000 0.65710  0.13950  0.79510  Biso   1.000  H
  C24      1.0000 0.04300  0.75320  0.87140  Biso   1.000  C
  H23      1.0000 0.99330  0.80070  0.87940  Biso   1.000  H
  H24      1.0000 0.07860  0.72960  0.90890  Biso   1.000  H
  Cu2      1.0000 0.11300  0.25661  0.77146  Biso   1.000  Cu
  N13      1.0000 0.23390  0.17360  0.81120  Biso   1.000  N
  N14      1.0000 0.32380  0.05060  0.83240  Biso   1.000  N
  N15      1.0000 0.39180  0.11300  0.85820  Biso   1.000  N
  N16      1.0000 0.01030  0.22970  0.83170  Biso   1.000  N
  N17      1.0000 0.85950  0.16600  0.86820  Biso   1.000  N
  N18      1.0000 0.94110  0.19520  0.91260  Biso   1.000  N
  N19      1.0000 0.98250  0.33380  0.73120  Biso   1.000  N
  C25      1.0000 0.93550  0.34010  0.67560  Biso   1.000  C
  H25      1.0000 0.95930  0.31010  0.64420  Biso   1.000  H
  N20      1.0000 0.84920  0.39630  0.67200  Biso   1.000  N
  N21      1.0000 0.84270  0.42480  0.72540  Biso   1.000  N
  C26      1.0000 0.92510  0.38620  0.76200  Biso   1.000  C
  H26      1.0000 0.94020  0.39440  0.80260  Biso   1.000  H
  N22      1.0000 0.22640  0.28880  0.71600  Biso   1.000  N
  C27      1.0000 0.25830  0.36750  0.70510  Biso   1.000  C
  H27      1.0000 0.22650  0.41670  0.71890  Biso   1.000  H
  N23      1.0000 0.34340  0.36380  0.67090  Biso   1.000  N
  N24      1.0000 0.36420  0.28270  0.66070  Biso   1.000  N
  C28      1.0000 0.29190  0.23640  0.68860  Biso   1.000  C
  H28      1.0000 0.28780  0.17750  0.68880  Biso   1.000  H
  C29      1.0000 0.23000  0.08970  0.80490  Biso   1.000  C
  H29      1.0000 0.16670  0.06140  0.78310  Biso   1.000  H
  C30      1.0000 0.33700  0.18570  0.84640  Biso   1.000  C
  H30      1.0000 0.36580  0.23810  0.86040  Biso   1.000  H
  C31      1.0000 0.50730  0.09450  0.89300  Biso   1.000  C
  H31      1.0000 0.54730  0.14780  0.90390  Biso   1.000  H
  H32      1.0000 0.55560  0.06360  0.86850  Biso   1.000  H
  C32      1.0000 0.50090  0.04490  0.94750  Biso   1.000  C
  C33      1.0000 0.42190  0.06600  0.98710  Biso   1.000  C
  H33      1.0000 0.36880  0.11070  0.97860  Biso   1.000  H
  C34      1.0000 0.57750  0.97860  0.96200  Biso   1.000  C
  H34      1.0000 0.63070  0.96370  0.93630  Biso   1.000  H
  C35      1.0000 0.90470  0.18790  0.82080  Biso   1.000  C
  H35      1.0000 0.86760  0.17590  0.78290  Biso   1.000  H
  C36      1.0000 0.02790  0.23230  0.89050  Biso   1.000  C
  H36      1.0000 0.09350  0.25720  0.91290  Biso   1.000  H
  C37      1.0000 0.93330  0.17530  0.97400  Biso   1.000  C
  H37      1.0000 0.85240  0.18460  0.98190  Biso   1.000  H
  H38      1.0000 0.98540  0.21280  0.99940  Biso   1.000  H
  C38      1.0000 0.96830  0.08400  0.98800  Biso   1.000  C
  C39      1.0000 0.07430  0.05320  0.97670  Biso   1.000  C
  H39      1.0000 0.12680  0.08860  0.96050  Biso   1.000  H
  C40      1.0000 0.89470  0.03070  0.01100  Biso   1.000  C
  H40      1.0000 0.82120  0.05040  0.01880  Biso   1.000  H
  C41      1.0000 0.75950  0.49180  0.73870  Biso   1.000  C
  H41      1.0000 0.70190  0.46830  0.76180  Biso   1.000  H
  H42      1.0000 0.71670  0.51390  0.70230  Biso   1.000  H
  C42      1.0000 0.82860  0.56340  0.77310  Biso   1.000  C
  C43      1.0000 0.85970  0.55530  0.83350  Biso   1.000  C
  H43      1.0000 0.83330  0.50860  0.85290  Biso   1.000  H
  C44      1.0000 0.92900  0.61540  0.86490  Biso   1.000  C
  H44      1.0000 0.95100  0.60850  0.90520  Biso   1.000  H
  C45      1.0000 0.96670  0.68630  0.83710  Biso   1.000  C
  C46      1.0000 0.93090  0.69590  0.77680  Biso   1.000  C
  H45      1.0000 0.95210  0.74440  0.75770  Biso   1.000  H
  C47      1.0000 0.86400  0.63360  0.74540  Biso   1.000  C
  H46      1.0000 0.84290  0.63950  0.70490  Biso   1.000  H
  C48      1.0000 0.45700  0.25320  0.62860  Biso   1.000  C
  H47      1.0000 0.50670  0.30070  0.62060  Biso   1.000  H
  H48      1.0000 0.42140  0.22960  0.59110  Biso   1.000  H
  Cu3      1.0000 0.61300  0.24339  0.27146  Biso   1.000  Cu
  N25      1.0000 0.73390  0.32640  0.31120  Biso   1.000  N
  N26      1.0000 0.82380  0.44940  0.33240  Biso   1.000  N
  N27      1.0000 0.89180  0.38700  0.35820  Biso   1.000  N
  N28      1.0000 0.51030  0.27030  0.33170  Biso   1.000  N
  N29      1.0000 0.35950  0.33400  0.36820  Biso   1.000  N
  N30      1.0000 0.44110  0.30480  0.41260  Biso   1.000  N
  N31      1.0000 0.48250  0.16620  0.23120  Biso   1.000  N
  C49      1.0000 0.43550  0.15990  0.17560  Biso   1.000  C
  H49      1.0000 0.45930  0.18990  0.14420  Biso   1.000  H
  N32      1.0000 0.34920  0.10370  0.17200  Biso   1.000  N
  N33      1.0000 0.34270  0.07520  0.22540  Biso   1.000  N
  C50      1.0000 0.42510  0.11380  0.26200  Biso   1.000  C
  H50      1.0000 0.44020  0.10560  0.30260  Biso   1.000  H
  N34      1.0000 0.72640  0.21120  0.21600  Biso   1.000  N
  C51      1.0000 0.75830  0.13250  0.20510  Biso   1.000  C
  H51      1.0000 0.72650  0.08330  0.21890  Biso   1.000  H
  N35      1.0000 0.84340  0.13620  0.17090  Biso   1.000  N
  N36      1.0000 0.86420  0.21730  0.16070  Biso   1.000  N
  C52      1.0000 0.79190  0.26360  0.18860  Biso   1.000  C
  H52      1.0000 0.78780  0.32250  0.18880  Biso   1.000  H
  C53      1.0000 0.73000  0.41030  0.30490  Biso   1.000  C
  H53      1.0000 0.66670  0.43860  0.28310  Biso   1.000  H
  C54      1.0000 0.83700  0.31430  0.34640  Biso   1.000  C
  H54      1.0000 0.86580  0.26190  0.36040  Biso   1.000  H
  C55      1.0000 0.00730  0.40550  0.39300  Biso   1.000  C
  H55      1.0000 0.04730  0.35220  0.40390  Biso   1.000  H
  H56      1.0000 0.05560  0.43640  0.36850  Biso   1.000  H
  C56      1.0000 0.00090  0.45510  0.44750  Biso   1.000  C
  C57      1.0000 0.92190  0.43400  0.48710  Biso   1.000  C
  H57      1.0000 0.86880  0.38930  0.47860  Biso   1.000  H
  C58      1.0000 0.07750  0.52140  0.46200  Biso   1.000  C
  H58      1.0000 0.13070  0.53630  0.43630  Biso   1.000  H
  C59      1.0000 0.40470  0.31210  0.32080  Biso   1.000  C
  H59      1.0000 0.36760  0.32410  0.28290  Biso   1.000  H
  C60      1.0000 0.52790  0.26770  0.39050  Biso   1.000  C
  H60      1.0000 0.59350  0.24280  0.41290  Biso   1.000  H
  C61      1.0000 0.43330  0.32470  0.47400  Biso   1.000  C
  H61      1.0000 0.35240  0.31540  0.48190  Biso   1.000  H
  H62      1.0000 0.48540  0.28720  0.49940  Biso   1.000  H
  C62      1.0000 0.46830  0.41600  0.48800  Biso   1.000  C
  C63      1.0000 0.57430  0.44680  0.47670  Biso   1.000  C
  H63      1.0000 0.62680  0.41140  0.46050  Biso   1.000  H
  C64      1.0000 0.39470  0.46930  0.51100  Biso   1.000  C
  H64      1.0000 0.32120  0.44960  0.51880  Biso   1.000  H
  C65      1.0000 0.25950  0.00820  0.23870  Biso   1.000  C
  H65      1.0000 0.20190  0.03170  0.26180  Biso   1.000  H
  H66      1.0000 0.21670  0.98610  0.20230  Biso   1.000  H
  C66      1.0000 0.32860  0.93660  0.27310  Biso   1.000  C
  C67      1.0000 0.35970  0.94470  0.33350  Biso   1.000  C
  H67      1.0000 0.33330  0.99140  0.35290  Biso   1.000  H
  C68      1.0000 0.42900  0.88460  0.36490  Biso   1.000  C
  H68      1.0000 0.45100  0.89150  0.40520  Biso   1.000  H
  C69      1.0000 0.46670  0.81370  0.33710  Biso   1.000  C
  C70      1.0000 0.43090  0.80410  0.27680  Biso   1.000  C
  H69      1.0000 0.45210  0.75560  0.25770  Biso   1.000  H
  C71      1.0000 0.36400  0.86640  0.24540  Biso   1.000  C
  H70      1.0000 0.34290  0.86050  0.20490  Biso   1.000  H
  C72      1.0000 0.95700  0.24680  0.12860  Biso   1.000  C
  H71      1.0000 0.00670  0.19930  0.12060  Biso   1.000  H
  H72      1.0000 0.92140  0.27040  0.09110  Biso   1.000  H
  Cu4      1.0000 0.88700  0.74339  0.22854  Biso   1.000  Cu
  N37      1.0000 0.76610  0.82640  0.18880  Biso   1.000  N
  N38      1.0000 0.67620  0.94940  0.16760  Biso   1.000  N
  N39      1.0000 0.60820  0.88700  0.14180  Biso   1.000  N
  N40      1.0000 0.98970  0.77030  0.16830  Biso   1.000  N
  N41      1.0000 0.14050  0.83400  0.13180  Biso   1.000  N
  N42      1.0000 0.05890  0.80480  0.08740  Biso   1.000  N
  N43      1.0000 0.01750  0.66620  0.26880  Biso   1.000  N
  C73      1.0000 0.06450  0.65990  0.32440  Biso   1.000  C
  H73      1.0000 0.04070  0.68990  0.35580  Biso   1.000  H
  N44      1.0000 0.15080  0.60370  0.32800  Biso   1.000  N
  N45      1.0000 0.15730  0.57520  0.27460  Biso   1.000  N
  C74      1.0000 0.07490  0.61380  0.23800  Biso   1.000  C
  H74      1.0000 0.05980  0.60560  0.19740  Biso   1.000  H
  N46      1.0000 0.77360  0.71120  0.28400  Biso   1.000  N
  C75      1.0000 0.74170  0.63250  0.29490  Biso   1.000  C
  H75      1.0000 0.77350  0.58330  0.28110  Biso   1.000  H
  N47      1.0000 0.65660  0.63620  0.32910  Biso   1.000  N
  N48      1.0000 0.63580  0.71730  0.33930  Biso   1.000  N
  C76      1.0000 0.70810  0.76360  0.31140  Biso   1.000  C
  H76      1.0000 0.71220  0.82250  0.31120  Biso   1.000  H
  C77      1.0000 0.77000  0.91030  0.19510  Biso   1.000  C
  H77      1.0000 0.83330  0.93860  0.21690  Biso   1.000  H
  C78      1.0000 0.66300  0.81430  0.15360  Biso   1.000  C
  H78      1.0000 0.63420  0.76190  0.13960  Biso   1.000  H
  C79      1.0000 0.49270  0.90550  0.10700  Biso   1.000  C
  H79      1.0000 0.45270  0.85220  0.09610  Biso   1.000  H
  H80      1.0000 0.44440  0.93640  0.13150  Biso   1.000  H
  C80      1.0000 0.49910  0.95510  0.05250  Biso   1.000  C
  C81      1.0000 0.57810  0.93400  0.01290  Biso   1.000  C
  H81      1.0000 0.63120  0.88930  0.02140  Biso   1.000  H
  C82      1.0000 0.42250  0.02140  0.03800  Biso   1.000  C
  H82      1.0000 0.36930  0.03630  0.06370  Biso   1.000  H
  C83      1.0000 0.09530  0.81210  0.17920  Biso   1.000  C
  H83      1.0000 0.13240  0.82410  0.21710  Biso   1.000  H
  C84      1.0000 0.97210  0.76770  0.10950  Biso   1.000  C
  H84      1.0000 0.90650  0.74280  0.08710  Biso   1.000  H
  C85      1.0000 0.06670  0.82470  0.02600  Biso   1.000  C
  H85      1.0000 0.14760  0.81540  0.01810  Biso   1.000  H
  H86      1.0000 0.01460  0.78720  0.00060  Biso   1.000  H
  C86      1.0000 0.03170  0.91600  0.01200  Biso   1.000  C
  C87      1.0000 0.92570  0.94680  0.02330  Biso   1.000  C
  H87      1.0000 0.87320  0.91140  0.03950  Biso   1.000  H
  C88      1.0000 0.10530  0.96930  0.98900  Biso   1.000  C
  H88      1.0000 0.17880  0.94960  0.98120  Biso   1.000  H
  C89      1.0000 0.24050  0.50820  0.26130  Biso   1.000  C
  H89      1.0000 0.29810  0.53170  0.23820  Biso   1.000  H
  H90      1.0000 0.28330  0.48610  0.29770  Biso   1.000  H
  C90      1.0000 0.17140  0.43660  0.22690  Biso   1.000  C
  C91      1.0000 0.14030  0.44470  0.16650  Biso   1.000  C
  H91      1.0000 0.16670  0.49140  0.14710  Biso   1.000  H
  C92      1.0000 0.07100  0.38460  0.13510  Biso   1.000  C
  H92      1.0000 0.04900  0.39150  0.09480  Biso   1.000  H
  C93      1.0000 0.03330  0.31370  0.16290  Biso   1.000  C
  C94      1.0000 0.06910  0.30410  0.22320  Biso   1.000  C
  H93      1.0000 0.04790  0.25560  0.24230  Biso   1.000  H
  C95      1.0000 0.13600  0.36640  0.25460  Biso   1.000  C
  H94      1.0000 0.15710  0.36050  0.29510  Biso   1.000  H
  C96      1.0000 0.54300  0.74680  0.37140  Biso   1.000  C
  H95      1.0000 0.49330  0.69930  0.37940  Biso   1.000  H
  H96      1.0000 0.57860  0.77040  0.40890  Biso   1.000  H
