data_image0
_cell_length_a       12.6739
_cell_length_b       12.6739
_cell_length_c       23.307
_cell_angle_alpha    83.0025
_cell_angle_beta     83.0025
_cell_angle_gamma    62.8056

_symmetry_space_group_name_H-M    P 1
_symmetry_int_tables_number       1

loop_
  _symmetry_equiv_pos_as_xyz
  'x, y, z'

loop_
  _atom_site_label
  _atom_site_occupancy
  _atom_site_fract_x
  _atom_site_fract_y
  _atom_site_fract_z
  _atom_site_thermal_displace_type
  _atom_site_B_iso_or_equiv
  _atom_site_type_symbol
  Cd1      1.0000 0.35046  0.23227  0.85609  Biso   1.000  Cd
  Cd2      1.0000 0.76773  0.64954  0.64391  Biso   1.000  Cd
  Cd3      1.0000 0.64954  0.76773  0.14391  Biso   1.000  Cd
  Cd4      1.0000 0.23227  0.35046  0.35609  Biso   1.000  Cd
  H1       1.0000 0.49870  0.42950  0.71120  Biso   1.000  H
  H2       1.0000 0.49630  0.33270  0.67630  Biso   1.000  H
  H3       1.0000 0.38090  0.63310  0.68140  Biso   1.000  H
  H4       1.0000 0.24020  0.77720  0.62350  Biso   1.000  H
  H5       1.0000 0.12970  0.72730  0.56960  Biso   1.000  H
  H6       1.0000 0.30100  0.38900  0.63160  Biso   1.000  H
  H7       1.0000 0.16460  0.43680  0.55840  Biso   1.000  H
  H8       1.0000 0.12070  0.56110  0.52300  Biso   1.000  H
  H9       1.0000 0.15230  0.51590  0.86780  Biso   1.000  H
  H10      1.0000 0.06120  0.65380  0.93560  Biso   1.000  H
  H11      1.0000 0.18470  0.39050  0.05960  Biso   1.000  H
  H12      1.0000 0.27310  0.25990  0.98870  Biso   1.000  H
  H13      1.0000 0.02010  0.59970  0.08250  Biso   1.000  H
  H14      1.0000 0.00770  0.70310  0.03500  Biso   1.000  H
  H15      1.0000 0.12700  0.69180  0.10930  Biso   1.000  H
  H16      1.0000 0.21850  0.56330  0.09320  Biso   1.000  H
  H17      1.0000 0.16960  0.76800  0.01720  Biso   1.000  H
  H18      1.0000 0.26370  0.63910  0.00260  Biso   1.000  H
  H19      1.0000 0.22330  0.87950  0.07860  Biso   1.000  H
  H20      1.0000 0.36920  0.89900  0.11760  Biso   1.000  H
  H21      1.0000 0.59230  0.57190  0.09460  Biso   1.000  H
  H22      1.0000 0.45270  0.54270  0.05430  Biso   1.000  H
  H23      1.0000 0.13300  0.37680  0.77590  Biso   1.000  H
  H24      1.0000 0.96520  0.38500  0.74670  Biso   1.000  H
  H25      1.0000 0.04860  0.06640  0.82810  Biso   1.000  H
  H26      1.0000 0.21290  0.06810  0.85770  Biso   1.000  H
  H27      1.0000 0.81120  0.26080  0.79940  Biso   1.000  H
  H28      1.0000 0.84340  0.29380  0.73500  Biso   1.000  H
  H29      1.0000 0.90660  0.06060  0.78220  Biso   1.000  H
  H30      1.0000 0.57050  0.50130  0.78880  Biso   1.000  H
  H31      1.0000 0.66730  0.50370  0.82370  Biso   1.000  H
  H32      1.0000 0.36690  0.61910  0.81860  Biso   1.000  H
  H33      1.0000 0.22280  0.75980  0.87650  Biso   1.000  H
  H34      1.0000 0.27270  0.87030  0.93040  Biso   1.000  H
  H35      1.0000 0.61100  0.69900  0.86840  Biso   1.000  H
  H36      1.0000 0.56320  0.83540  0.94160  Biso   1.000  H
  H37      1.0000 0.43890  0.87930  0.97700  Biso   1.000  H
  H38      1.0000 0.48410  0.84770  0.63220  Biso   1.000  H
  H39      1.0000 0.34620  0.93880  0.56440  Biso   1.000  H
  H40      1.0000 0.60950  0.81530  0.44040  Biso   1.000  H
  H41      1.0000 0.74010  0.72690  0.51130  Biso   1.000  H
  H42      1.0000 0.40030  0.97990  0.41750  Biso   1.000  H
  H43      1.0000 0.29690  0.99230  0.46500  Biso   1.000  H
  H44      1.0000 0.30820  0.87300  0.39070  Biso   1.000  H
  H45      1.0000 0.43670  0.78150  0.40680  Biso   1.000  H
  H46      1.0000 0.23200  0.83040  0.48280  Biso   1.000  H
  H47      1.0000 0.36090  0.73630  0.49740  Biso   1.000  H
  H48      1.0000 0.12050  0.77670  0.42140  Biso   1.000  H
  H49      1.0000 0.10100  0.63080  0.38240  Biso   1.000  H
  H50      1.0000 0.42810  0.40770  0.40540  Biso   1.000  H
  H51      1.0000 0.45730  0.54730  0.44570  Biso   1.000  H
  H52      1.0000 0.62320  0.86700  0.72410  Biso   1.000  H
  H53      1.0000 0.61500  0.03480  0.75330  Biso   1.000  H
  H54      1.0000 0.93360  0.95140  0.67190  Biso   1.000  H
  H55      1.0000 0.93190  0.78710  0.64230  Biso   1.000  H
  H56      1.0000 0.73920  0.18880  0.70060  Biso   1.000  H
  H57      1.0000 0.70620  0.15660  0.76500  Biso   1.000  H
  H58      1.0000 0.93940  0.09340  0.71780  Biso   1.000  H
  H59      1.0000 0.50130  0.57050  0.28880  Biso   1.000  H
  H60      1.0000 0.50370  0.66730  0.32370  Biso   1.000  H
  H61      1.0000 0.61910  0.36690  0.31860  Biso   1.000  H
  H62      1.0000 0.75980  0.22280  0.37650  Biso   1.000  H
  H63      1.0000 0.87030  0.27270  0.43040  Biso   1.000  H
  H64      1.0000 0.69900  0.61100  0.36840  Biso   1.000  H
  H65      1.0000 0.83540  0.56320  0.44160  Biso   1.000  H
  H66      1.0000 0.87930  0.43890  0.47700  Biso   1.000  H
  H67      1.0000 0.84770  0.48410  0.13220  Biso   1.000  H
  H68      1.0000 0.93880  0.34620  0.06440  Biso   1.000  H
  H69      1.0000 0.81530  0.60950  0.94040  Biso   1.000  H
  H70      1.0000 0.72690  0.74010  0.01130  Biso   1.000  H
  H71      1.0000 0.97990  0.40030  0.91750  Biso   1.000  H
  H72      1.0000 0.99230  0.29690  0.96500  Biso   1.000  H
  H73      1.0000 0.87300  0.30820  0.89070  Biso   1.000  H
  H74      1.0000 0.78150  0.43670  0.90680  Biso   1.000  H
  H75      1.0000 0.83040  0.23200  0.98280  Biso   1.000  H
  H76      1.0000 0.73630  0.36090  0.99740  Biso   1.000  H
  H77      1.0000 0.77670  0.12050  0.92140  Biso   1.000  H
  H78      1.0000 0.63080  0.10100  0.88240  Biso   1.000  H
  H79      1.0000 0.40770  0.42810  0.90540  Biso   1.000  H
  H80      1.0000 0.54730  0.45730  0.94570  Biso   1.000  H
  H81      1.0000 0.86700  0.62320  0.22410  Biso   1.000  H
  H82      1.0000 0.03480  0.61500  0.25330  Biso   1.000  H
  H83      1.0000 0.95140  0.93360  0.17190  Biso   1.000  H
  H84      1.0000 0.78710  0.93190  0.14230  Biso   1.000  H
  H85      1.0000 0.18880  0.73920  0.20060  Biso   1.000  H
  H86      1.0000 0.15660  0.70620  0.26500  Biso   1.000  H
  H87      1.0000 0.09340  0.93940  0.21780  Biso   1.000  H
  H88      1.0000 0.42950  0.49870  0.21120  Biso   1.000  H
  H89      1.0000 0.33270  0.49630  0.17630  Biso   1.000  H
  H90      1.0000 0.63310  0.38090  0.18140  Biso   1.000  H
  H91      1.0000 0.77720  0.24020  0.12350  Biso   1.000  H
  H92      1.0000 0.72730  0.12970  0.06960  Biso   1.000  H
  H93      1.0000 0.38900  0.30100  0.13160  Biso   1.000  H
  H94      1.0000 0.43680  0.16460  0.05840  Biso   1.000  H
  H95      1.0000 0.56110  0.12070  0.02300  Biso   1.000  H
  H96      1.0000 0.51590  0.15230  0.36780  Biso   1.000  H
  H97      1.0000 0.65380  0.06120  0.43560  Biso   1.000  H
  H98      1.0000 0.39050  0.18470  0.55960  Biso   1.000  H
  H99      1.0000 0.25990  0.27310  0.48870  Biso   1.000  H
  H100     1.0000 0.59970  0.02010  0.58250  Biso   1.000  H
  H101     1.0000 0.70310  0.00770  0.53500  Biso   1.000  H
  H102     1.0000 0.69180  0.12700  0.60930  Biso   1.000  H
  H103     1.0000 0.56330  0.21850  0.59320  Biso   1.000  H
  H104     1.0000 0.76800  0.16960  0.51720  Biso   1.000  H
  H105     1.0000 0.63910  0.26370  0.50260  Biso   1.000  H
  H106     1.0000 0.87950  0.22330  0.57860  Biso   1.000  H
  H107     1.0000 0.89900  0.36920  0.61760  Biso   1.000  H
  H108     1.0000 0.57190  0.59230  0.59460  Biso   1.000  H
  H109     1.0000 0.54270  0.45270  0.55430  Biso   1.000  H
  H110     1.0000 0.37680  0.13300  0.27590  Biso   1.000  H
  H111     1.0000 0.38500  0.96520  0.24670  Biso   1.000  H
  H112     1.0000 0.06640  0.04860  0.32810  Biso   1.000  H
  H113     1.0000 0.06810  0.21290  0.35770  Biso   1.000  H
  H114     1.0000 0.26080  0.81120  0.29940  Biso   1.000  H
  H115     1.0000 0.29380  0.84340  0.23500  Biso   1.000  H
  H116     1.0000 0.06060  0.90660  0.28220  Biso   1.000  H
  C1       1.0000 0.39542  0.35442  0.75333  Biso   1.000  C
  C2       1.0000 0.44730  0.39930  0.69952  Biso   1.000  C
  C3       1.0000 0.35600  0.49560  0.66247  Biso   1.000  C
  C4       1.0000 0.33693  0.61233  0.65984  Biso   1.000  C
  C5       1.0000 0.25250  0.69870  0.62520  Biso   1.000  C
  C6       1.0000 0.18600  0.66880  0.59280  Biso   1.000  C
  C7       1.0000 0.20328  0.55328  0.59517  Biso   1.000  C
  C8       1.0000 0.28866  0.46746  0.63001  Biso   1.000  C
  C9       1.0000 0.12700  0.52200  0.56181  Biso   1.000  C
  C10      1.0000 0.00285  0.56085  0.59249  Biso   1.000  C
  C11      1.0000 0.15999  0.49039  0.90687  Biso   1.000  C
  C12      1.0000 0.10482  0.57402  0.94750  Biso   1.000  C
  C13      1.0000 0.11498  0.53838  0.00599  Biso   1.000  C
  C14      1.0000 0.17786  0.41866  0.02085  Biso   1.000  C
  C15      1.0000 0.23070  0.34050  0.97777  Biso   1.000  C
  C16      1.0000 0.06337  0.62657  0.05190  Biso   1.000  C
  C17      1.0000 0.16183  0.64043  0.07757  Biso   1.000  C
  C18      1.0000 0.22636  0.69176  0.03373  Biso   1.000  C
  C19      1.0000 0.32086  0.70846  0.06052  Biso   1.000  C
  C20      1.0000 0.29830  0.81510  0.08080  Biso   1.000  C
  C21      1.0000 0.38689  0.82609  0.10423  Biso   1.000  C
  C22      1.0000 0.51713  0.63533  0.09080  Biso   1.000  C
  C23      1.0000 0.43319  0.61699  0.06660  Biso   1.000  C
  C24      1.0000 0.11526  0.31346  0.78740  Biso   1.000  C
  C25      1.0000 0.01427  0.31887  0.76937  Biso   1.000  C
  C26      1.0000 0.98524  0.22704  0.78452  Biso   1.000  C
  C27      1.0000 0.06320  0.13200  0.81750  Biso   1.000  C
  C28      1.0000 0.16263  0.13323  0.83490  Biso   1.000  C
  C29      1.0000 0.87103  0.23403  0.76720  Biso   1.000  C
  C30      1.0000 0.64558  0.60458  0.74667  Biso   1.000  C
  C31      1.0000 0.60070  0.55270  0.80048  Biso   1.000  C
  C32      1.0000 0.50440  0.64400  0.83753  Biso   1.000  C
  C33      1.0000 0.38767  0.66307  0.84016  Biso   1.000  C
  C34      1.0000 0.30130  0.74750  0.87480  Biso   1.000  C
  C35      1.0000 0.33120  0.81400  0.90720  Biso   1.000  C
  C36      1.0000 0.44672  0.79672  0.90483  Biso   1.000  C
  C37      1.0000 0.53254  0.71134  0.86999  Biso   1.000  C
  C38      1.0000 0.47800  0.87300  0.93819  Biso   1.000  C
  C39      1.0000 0.43915  0.99715  0.90751  Biso   1.000  C
  C40      1.0000 0.50961  0.84001  0.59313  Biso   1.000  C
  C41      1.0000 0.42598  0.89518  0.55250  Biso   1.000  C
  C42      1.0000 0.46162  0.88502  0.49401  Biso   1.000  C
  C43      1.0000 0.58134  0.82214  0.47915  Biso   1.000  C
  C44      1.0000 0.65950  0.76930  0.52223  Biso   1.000  C
  C45      1.0000 0.37343  0.93663  0.44810  Biso   1.000  C
  C46      1.0000 0.35957  0.83817  0.42243  Biso   1.000  C
  C47      1.0000 0.30824  0.77364  0.46627  Biso   1.000  C
  C48      1.0000 0.29154  0.67914  0.43948  Biso   1.000  C
  C49      1.0000 0.18490  0.70170  0.41920  Biso   1.000  C
  C50      1.0000 0.17391  0.61311  0.39577  Biso   1.000  C
  C51      1.0000 0.36467  0.48287  0.40920  Biso   1.000  C
  C52      1.0000 0.38301  0.56681  0.43340  Biso   1.000  C
  C53      1.0000 0.68654  0.88474  0.71260  Biso   1.000  C
  C54      1.0000 0.68113  0.98573  0.73063  Biso   1.000  C
  C55      1.0000 0.77296  0.01476  0.71548  Biso   1.000  C
  C56      1.0000 0.86800  0.93680  0.68250  Biso   1.000  C
  C57      1.0000 0.86677  0.83737  0.66510  Biso   1.000  C
  C58      1.0000 0.76597  0.12897  0.73280  Biso   1.000  C
  C59      1.0000 0.60458  0.64558  0.24667  Biso   1.000  C
  C60      1.0000 0.55270  0.60070  0.30048  Biso   1.000  C
  C61      1.0000 0.64400  0.50440  0.33753  Biso   1.000  C
  C62      1.0000 0.66307  0.38767  0.34016  Biso   1.000  C
  C63      1.0000 0.74750  0.30130  0.37480  Biso   1.000  C
  C64      1.0000 0.81400  0.33120  0.40720  Biso   1.000  C
  C65      1.0000 0.79672  0.44672  0.40483  Biso   1.000  C
  C66      1.0000 0.71134  0.53254  0.36999  Biso   1.000  C
  C67      1.0000 0.87300  0.47800  0.43819  Biso   1.000  C
  C68      1.0000 0.99715  0.43915  0.40751  Biso   1.000  C
  C69      1.0000 0.84001  0.50961  0.09313  Biso   1.000  C
  C70      1.0000 0.89518  0.42598  0.05250  Biso   1.000  C
  C71      1.0000 0.88502  0.46162  0.99401  Biso   1.000  C
  C72      1.0000 0.82214  0.58134  0.97915  Biso   1.000  C
  C73      1.0000 0.76930  0.65950  0.02223  Biso   1.000  C
  C74      1.0000 0.93663  0.37343  0.94810  Biso   1.000  C
  C75      1.0000 0.83817  0.35957  0.92243  Biso   1.000  C
  C76      1.0000 0.77364  0.30824  0.96627  Biso   1.000  C
  C77      1.0000 0.67914  0.29154  0.93948  Biso   1.000  C
  C78      1.0000 0.70170  0.18490  0.91920  Biso   1.000  C
  C79      1.0000 0.61311  0.17391  0.89577  Biso   1.000  C
  C80      1.0000 0.48287  0.36467  0.90920  Biso   1.000  C
  C81      1.0000 0.56681  0.38301  0.93340  Biso   1.000  C
  C82      1.0000 0.88474  0.68654  0.21260  Biso   1.000  C
  C83      1.0000 0.98573  0.68113  0.23063  Biso   1.000  C
  C84      1.0000 0.01476  0.77296  0.21548  Biso   1.000  C
  C85      1.0000 0.93680  0.86800  0.18250  Biso   1.000  C
  C86      1.0000 0.83737  0.86677  0.16510  Biso   1.000  C
  C87      1.0000 0.12897  0.76597  0.23280  Biso   1.000  C
  C88      1.0000 0.35442  0.39542  0.25333  Biso   1.000  C
  C89      1.0000 0.39930  0.44730  0.19952  Biso   1.000  C
  C90      1.0000 0.49560  0.35600  0.16247  Biso   1.000  C
  C91      1.0000 0.61233  0.33693  0.15984  Biso   1.000  C
  C92      1.0000 0.69870  0.25250  0.12520  Biso   1.000  C
  C93      1.0000 0.66880  0.18600  0.09280  Biso   1.000  C
  C94      1.0000 0.55328  0.20328  0.09517  Biso   1.000  C
  C95      1.0000 0.46746  0.28866  0.13001  Biso   1.000  C
  C96      1.0000 0.52200  0.12700  0.06181  Biso   1.000  C
  C97      1.0000 0.56085  0.00285  0.09249  Biso   1.000  C
  C98      1.0000 0.49039  0.15999  0.40687  Biso   1.000  C
  C99      1.0000 0.57402  0.10482  0.44750  Biso   1.000  C
  C100     1.0000 0.53838  0.11498  0.50599  Biso   1.000  C
  C101     1.0000 0.41866  0.17786  0.52085  Biso   1.000  C
  C102     1.0000 0.34050  0.23070  0.47777  Biso   1.000  C
  C103     1.0000 0.62657  0.06337  0.55190  Biso   1.000  C
  C104     1.0000 0.64043  0.16183  0.57757  Biso   1.000  C
  C105     1.0000 0.69176  0.22636  0.53373  Biso   1.000  C
  C106     1.0000 0.70846  0.32086  0.56052  Biso   1.000  C
  C107     1.0000 0.81510  0.29830  0.58080  Biso   1.000  C
  C108     1.0000 0.82609  0.38689  0.60423  Biso   1.000  C
  C109     1.0000 0.63533  0.51713  0.59080  Biso   1.000  C
  C110     1.0000 0.61699  0.43319  0.56660  Biso   1.000  C
  C111     1.0000 0.31346  0.11526  0.28740  Biso   1.000  C
  C112     1.0000 0.31887  0.01427  0.26937  Biso   1.000  C
  C113     1.0000 0.22704  0.98524  0.28452  Biso   1.000  C
  C114     1.0000 0.13200  0.06320  0.31750  Biso   1.000  C
  C115     1.0000 0.13323  0.16263  0.33490  Biso   1.000  C
  C116     1.0000 0.23403  0.87103  0.26720  Biso   1.000  C
  C117     1.0000 0.87960  0.12040  0.75000  Biso   1.000  C
  C118     1.0000 0.12040  0.87960  0.25000  Biso   1.000  C
  N1       1.0000 0.22391  0.37451  0.92135  Biso   1.000  N
  N2       1.0000 0.49593  0.73873  0.10883  Biso   1.000  N
  N3       1.0000 0.19020  0.22300  0.82057  Biso   1.000  N
  N4       1.0000 0.62549  0.77609  0.57865  Biso   1.000  N
  N5       1.0000 0.26127  0.50407  0.39117  Biso   1.000  N
  N6       1.0000 0.77700  0.80980  0.67943  Biso   1.000  N
  N7       1.0000 0.77609  0.62549  0.07865  Biso   1.000  N
  N8       1.0000 0.50407  0.26127  0.89117  Biso   1.000  N
  N9       1.0000 0.80980  0.77700  0.17943  Biso   1.000  N
  N10      1.0000 0.37451  0.22391  0.42135  Biso   1.000  N
  N11      1.0000 0.73873  0.49593  0.60883  Biso   1.000  N
  N12      1.0000 0.22300  0.19020  0.32057  Biso   1.000  N
  O1       1.0000 0.43636  0.24396  0.76438  Biso   1.000  O
  O2       1.0000 0.31622  0.42782  0.78534  Biso   1.000  O
  O3       1.0000 0.99075  0.51175  0.64039  Biso   1.000  O
  O4       1.0000 0.91622  0.64302  0.56933  Biso   1.000  O
  O5       1.0000 0.75604  0.56364  0.73562  Biso   1.000  O
  O6       1.0000 0.57218  0.68378  0.71466  Biso   1.000  O
  O7       1.0000 0.48825  0.00925  0.85961  Biso   1.000  O
  O8       1.0000 0.35698  0.08378  0.93067  Biso   1.000  O
  O9       1.0000 0.56364  0.75604  0.23562  Biso   1.000  O
  O10      1.0000 0.68378  0.57218  0.21466  Biso   1.000  O
  O11      1.0000 0.00925  0.48825  0.35961  Biso   1.000  O
  O12      1.0000 0.08378  0.35698  0.43067  Biso   1.000  O
  O13      1.0000 0.24396  0.43636  0.26438  Biso   1.000  O
  O14      1.0000 0.42782  0.31622  0.28534  Biso   1.000  O
  O15      1.0000 0.51175  0.99075  0.14039  Biso   1.000  O
  O16      1.0000 0.64302  0.91622  0.06933  Biso   1.000  O
