data_image0
_cell_length_a       14.32
_cell_length_b       8.7789
_cell_length_c       27.653
_cell_angle_alpha    90
_cell_angle_beta     90.3054
_cell_angle_gamma    90

_symmetry_space_group_name_H-M    "P 1"
_symmetry_int_tables_number       1

loop_
  _symmetry_equiv_pos_as_xyz
  'x, y, z'

loop_
  _atom_site_label
  _atom_site_occupancy
  _atom_site_fract_x
  _atom_site_fract_y
  _atom_site_fract_z
  _atom_site_thermal_displace_type
  _atom_site_B_iso_or_equiv
  _atom_site_type_symbol
  C1       1.0000 0.46896  0.35448  0.43669  Biso   1.000  C
  C2       1.0000 0.38633  0.38500  0.46145  Biso   1.000  C
  H1       1.0000 0.33650  0.43400  0.44480  Biso   1.000  H
  C3       1.0000 0.37501  0.34551  0.50985  Biso   1.000  C
  C4       1.0000 0.44734  0.26924  0.53370  Biso   1.000  C
  H2       1.0000 0.44010  0.24060  0.56660  Biso   1.000  H
  C5       1.0000 0.53048  0.23445  0.50967  Biso   1.000  C
  C6       1.0000 0.54070  0.27843  0.46139  Biso   1.000  C
  H3       1.0000 0.59730  0.25630  0.44510  Biso   1.000  H
  C7       1.0000 0.49671  0.55610  0.23706  Biso   1.000  C
  C8       1.0000 0.49301  0.50706  0.28947  Biso   1.000  C
  C9       1.0000 0.43724  0.58516  0.32238  Biso   1.000  C
  H4       1.0000 0.40330  0.67250  0.31220  Biso   1.000  H
  C10      1.0000 0.43111  0.53593  0.36990  Biso   1.000  C
  H5       1.0000 0.39370  0.59140  0.39210  Biso   1.000  H
  C11      1.0000 0.47900  0.40584  0.38593  Biso   1.000  C
  C12      1.0000 0.53680  0.33096  0.35295  Biso   1.000  C
  H6       1.0000 0.57160  0.24440  0.36310  Biso   1.000  H
  C13      1.0000 0.54380  0.38189  0.30550  Biso   1.000  C
  H7       1.0000 0.58390  0.33030  0.28370  Biso   1.000  H
  C14      1.0000 0.04429  0.60724  0.59725  Biso   1.000  C
  C15      1.0000 0.13065  0.53707  0.57589  Biso   1.000  C
  C16      1.0000 0.12532  0.46806  0.53046  Biso   1.000  C
  H8       1.0000 0.06750  0.46720  0.51340  Biso   1.000  H
  C17      1.0000 0.20331  0.40068  0.50987  Biso   1.000  C
  H9       1.0000 0.19850  0.35540  0.47880  Biso   1.000  H
  C18      1.0000 0.28902  0.39879  0.53457  Biso   1.000  C
  C19      1.0000 0.29330  0.46322  0.58076  Biso   1.000  C
  H10      1.0000 0.35010  0.45880  0.59860  Biso   1.000  H
  C20      1.0000 0.21559  0.53391  0.60101  Biso   1.000  C
  H11      1.0000 0.22040  0.58010  0.63200  Biso   1.000  H
  C21      1.0000 0.83885  0.92709  0.60603  Biso   1.000  C
  C22      1.0000 0.75793  0.00492  0.58122  Biso   1.000  C
  C23      1.0000 0.66585  0.96536  0.59152  Biso   1.000  C
  H12      1.0000 0.65330  0.88660  0.61410  Biso   1.000  H
  C24      1.0000 0.59211  0.04085  0.56877  Biso   1.000  C
  H13      1.0000 0.52970  0.01380  0.57640  Biso   1.000  H
  C25      1.0000 0.60877  0.15576  0.53496  Biso   1.000  C
  C26      1.0000 0.70173  0.19588  0.52514  Biso   1.000  C
  H14      1.0000 0.71450  0.27470  0.50260  Biso   1.000  H
  C27      1.0000 0.77498  0.12146  0.54811  Biso   1.000  C
  H15      1.0000 0.83750  0.15020  0.54120  Biso   1.000  H
  O1       1.0000 0.38450  0.95953  0.19828  Biso   1.000  O
  C28      1.0000 0.34863  0.08500  0.18744  Biso   1.000  C
  C29      1.0000 0.33213  0.12910  0.13581  Biso   1.000  C
  H16      1.0000 0.35120  0.04530  0.11460  Biso   1.000  H
  H17      1.0000 0.36880  0.22020  0.12820  Biso   1.000  H
  H18      1.0000 0.26560  0.15060  0.13080  Biso   1.000  H
  N1       1.0000 0.32544  0.18334  0.22215  Biso   1.000  N
  C30      1.0000 0.28283  0.33190  0.21333  Biso   1.000  C
  H19      1.0000 0.26180  0.33790  0.17960  Biso   1.000  H
  H20      1.0000 0.32880  0.41230  0.21960  Biso   1.000  H
  H21      1.0000 0.22930  0.34530  0.23480  Biso   1.000  H
  C31      1.0000 0.34237  0.15007  0.27317  Biso   1.000  C
  H22      1.0000 0.37370  0.05120  0.27620  Biso   1.000  H
  H23      1.0000 0.28270  0.14700  0.29030  Biso   1.000  H
  H24      1.0000 0.38210  0.22970  0.28720  Biso   1.000  H
  O2       1.0000 0.44770  0.67428  0.22725  Biso   1.000  O
  O3       1.0000 0.54327  0.48226  0.20809  Biso   1.000  O
  O4       1.0000 0.96847  0.59222  0.57642  Biso   1.000  O
  O5       1.0000 0.05439  0.67992  0.63764  Biso   1.000  O
  O6       1.0000 0.81924  0.81395  0.63337  Biso   1.000  O
  O7       1.0000 0.91883  0.97679  0.59958  Biso   1.000  O
  Zn1      1.0000 0.43119  0.77056  0.16406  Biso   1.000  Zn
  C32      1.0000 0.96896  0.14552  0.93669  Biso   1.000  C
  C33      1.0000 0.88633  0.11500  0.96145  Biso   1.000  C
  H25      1.0000 0.83650  0.06600  0.94480  Biso   1.000  H
  C34      1.0000 0.87501  0.15449  0.00985  Biso   1.000  C
  C35      1.0000 0.94734  0.23076  0.03370  Biso   1.000  C
  H26      1.0000 0.94010  0.25940  0.06660  Biso   1.000  H
  C36      1.0000 0.03048  0.26555  0.00967  Biso   1.000  C
  C37      1.0000 0.04070  0.22157  0.96139  Biso   1.000  C
  H27      1.0000 0.09730  0.24370  0.94510  Biso   1.000  H
  C38      1.0000 0.99671  0.94390  0.73706  Biso   1.000  C
  C39      1.0000 0.99301  0.99294  0.78947  Biso   1.000  C
  C40      1.0000 0.93724  0.91484  0.82238  Biso   1.000  C
  H28      1.0000 0.90330  0.82750  0.81220  Biso   1.000  H
  C41      1.0000 0.93111  0.96407  0.86990  Biso   1.000  C
  H29      1.0000 0.89370  0.90860  0.89210  Biso   1.000  H
  C42      1.0000 0.97900  0.09416  0.88593  Biso   1.000  C
  C43      1.0000 0.03680  0.16904  0.85295  Biso   1.000  C
  H30      1.0000 0.07160  0.25560  0.86310  Biso   1.000  H
  C44      1.0000 0.04380  0.11811  0.80550  Biso   1.000  C
  H31      1.0000 0.08390  0.16970  0.78370  Biso   1.000  H
  C45      1.0000 0.54429  0.89276  0.09725  Biso   1.000  C
  C46      1.0000 0.63065  0.96293  0.07589  Biso   1.000  C
  C47      1.0000 0.62532  0.03194  0.03046  Biso   1.000  C
  H32      1.0000 0.56750  0.03280  0.01340  Biso   1.000  H
  C48      1.0000 0.70331  0.09932  0.00987  Biso   1.000  C
  H33      1.0000 0.69850  0.14460  0.97880  Biso   1.000  H
  C49      1.0000 0.78902  0.10121  0.03457  Biso   1.000  C
  C50      1.0000 0.79330  0.03678  0.08076  Biso   1.000  C
  H34      1.0000 0.85010  0.04120  0.09860  Biso   1.000  H
  C51      1.0000 0.71559  0.96609  0.10101  Biso   1.000  C
  H35      1.0000 0.72040  0.91990  0.13200  Biso   1.000  H
  C52      1.0000 0.33885  0.57291  0.10603  Biso   1.000  C
  C53      1.0000 0.25793  0.49508  0.08122  Biso   1.000  C
  C54      1.0000 0.16585  0.53464  0.09152  Biso   1.000  C
  H36      1.0000 0.15330  0.61340  0.11410  Biso   1.000  H
  C55      1.0000 0.09211  0.45915  0.06877  Biso   1.000  C
  H37      1.0000 0.02970  0.48620  0.07640  Biso   1.000  H
  C56      1.0000 0.10877  0.34424  0.03496  Biso   1.000  C
  C57      1.0000 0.20173  0.30412  0.02514  Biso   1.000  C
  H38      1.0000 0.21450  0.22530  0.00260  Biso   1.000  H
  C58      1.0000 0.27498  0.37854  0.04811  Biso   1.000  C
  H39      1.0000 0.33750  0.34980  0.04120  Biso   1.000  H
  O8       1.0000 0.88450  0.54047  0.69828  Biso   1.000  O
  C59      1.0000 0.84863  0.41500  0.68744  Biso   1.000  C
  C60      1.0000 0.83213  0.37090  0.63581  Biso   1.000  C
  H40      1.0000 0.85120  0.45470  0.61460  Biso   1.000  H
  H41      1.0000 0.86880  0.27980  0.62820  Biso   1.000  H
  H42      1.0000 0.76560  0.34940  0.63080  Biso   1.000  H
  N2       1.0000 0.82544  0.31666  0.72215  Biso   1.000  N
  C61      1.0000 0.78283  0.16810  0.71333  Biso   1.000  C
  H43      1.0000 0.76180  0.16210  0.67960  Biso   1.000  H
  H44      1.0000 0.82880  0.08770  0.71960  Biso   1.000  H
  H45      1.0000 0.72930  0.15470  0.73480  Biso   1.000  H
  C62      1.0000 0.84237  0.34993  0.77317  Biso   1.000  C
  H46      1.0000 0.87370  0.44880  0.77620  Biso   1.000  H
  H47      1.0000 0.78270  0.35300  0.79030  Biso   1.000  H
  H48      1.0000 0.88210  0.27030  0.78720  Biso   1.000  H
  O9       1.0000 0.94770  0.82572  0.72725  Biso   1.000  O
  O10      1.0000 0.04327  0.01774  0.70809  Biso   1.000  O
  O11      1.0000 0.46847  0.90778  0.07642  Biso   1.000  O
  O12      1.0000 0.55439  0.82008  0.13764  Biso   1.000  O
  O13      1.0000 0.31924  0.68605  0.13337  Biso   1.000  O
  O14      1.0000 0.41883  0.52321  0.09958  Biso   1.000  O
  Zn2      1.0000 0.93119  0.72944  0.66406  Biso   1.000  Zn
  C63      1.0000 0.03104  0.85448  0.06331  Biso   1.000  C
  C64      1.0000 0.11367  0.88500  0.03855  Biso   1.000  C
  H49      1.0000 0.16350  0.93400  0.05520  Biso   1.000  H
  C65      1.0000 0.12499  0.84551  0.99015  Biso   1.000  C
  C66      1.0000 0.05266  0.76924  0.96630  Biso   1.000  C
  H50      1.0000 0.05990  0.74060  0.93340  Biso   1.000  H
  C67      1.0000 0.96952  0.73445  0.99033  Biso   1.000  C
  C68      1.0000 0.95930  0.77843  0.03861  Biso   1.000  C
  H51      1.0000 0.90270  0.75630  0.05490  Biso   1.000  H
  C69      1.0000 0.00329  0.05610  0.26294  Biso   1.000  C
  C70      1.0000 0.00699  0.00706  0.21053  Biso   1.000  C
  C71      1.0000 0.06276  0.08516  0.17762  Biso   1.000  C
  H52      1.0000 0.09670  0.17250  0.18780  Biso   1.000  H
  C72      1.0000 0.06889  0.03593  0.13010  Biso   1.000  C
  H53      1.0000 0.10630  0.09140  0.10790  Biso   1.000  H
  C73      1.0000 0.02100  0.90584  0.11407  Biso   1.000  C
  C74      1.0000 0.96320  0.83096  0.14705  Biso   1.000  C
  H54      1.0000 0.92840  0.74440  0.13690  Biso   1.000  H
  C75      1.0000 0.95620  0.88189  0.19450  Biso   1.000  C
  H55      1.0000 0.91610  0.83030  0.21630  Biso   1.000  H
  C76      1.0000 0.45571  0.10724  0.90275  Biso   1.000  C
  C77      1.0000 0.36935  0.03707  0.92411  Biso   1.000  C
  C78      1.0000 0.37468  0.96806  0.96954  Biso   1.000  C
  H56      1.0000 0.43250  0.96720  0.98660  Biso   1.000  H
  C79      1.0000 0.29669  0.90068  0.99013  Biso   1.000  C
  H57      1.0000 0.30150  0.85540  0.02120  Biso   1.000  H
  C80      1.0000 0.21098  0.89879  0.96543  Biso   1.000  C
  C81      1.0000 0.20670  0.96322  0.91924  Biso   1.000  C
  H58      1.0000 0.14990  0.95880  0.90140  Biso   1.000  H
  C82      1.0000 0.28441  0.03391  0.89899  Biso   1.000  C
  H59      1.0000 0.27960  0.08010  0.86800  Biso   1.000  H
  C83      1.0000 0.66115  0.42709  0.89397  Biso   1.000  C
  C84      1.0000 0.74207  0.50492  0.91878  Biso   1.000  C
  C85      1.0000 0.83415  0.46536  0.90848  Biso   1.000  C
  H60      1.0000 0.84670  0.38660  0.88590  Biso   1.000  H
  C86      1.0000 0.90789  0.54085  0.93123  Biso   1.000  C
  H61      1.0000 0.97030  0.51380  0.92360  Biso   1.000  H
  C87      1.0000 0.89123  0.65576  0.96504  Biso   1.000  C
  C88      1.0000 0.79827  0.69588  0.97486  Biso   1.000  C
  H62      1.0000 0.78550  0.77470  0.99740  Biso   1.000  H
  C89      1.0000 0.72502  0.62146  0.95189  Biso   1.000  C
  H63      1.0000 0.66250  0.65020  0.95880  Biso   1.000  H
  O15      1.0000 0.11550  0.45953  0.30172  Biso   1.000  O
  C90      1.0000 0.15137  0.58500  0.31256  Biso   1.000  C
  C91      1.0000 0.16787  0.62910  0.36419  Biso   1.000  C
  H64      1.0000 0.14880  0.54530  0.38540  Biso   1.000  H
  H65      1.0000 0.13120  0.72020  0.37180  Biso   1.000  H
  H66      1.0000 0.23440  0.65060  0.36920  Biso   1.000  H
  N3       1.0000 0.17456  0.68334  0.27785  Biso   1.000  N
  C92      1.0000 0.21717  0.83190  0.28667  Biso   1.000  C
  H67      1.0000 0.23820  0.83790  0.32040  Biso   1.000  H
  H68      1.0000 0.17120  0.91230  0.28040  Biso   1.000  H
  H69      1.0000 0.27070  0.84530  0.26520  Biso   1.000  H
  C93      1.0000 0.15763  0.65007  0.22683  Biso   1.000  C
  H70      1.0000 0.12630  0.55120  0.22380  Biso   1.000  H
  H71      1.0000 0.21730  0.64700  0.20970  Biso   1.000  H
  H72      1.0000 0.11790  0.72970  0.21280  Biso   1.000  H
  O16      1.0000 0.05230  0.17428  0.27275  Biso   1.000  O
  O17      1.0000 0.95673  0.98226  0.29191  Biso   1.000  O
  O18      1.0000 0.53153  0.09222  0.92358  Biso   1.000  O
  O19      1.0000 0.44561  0.17992  0.86236  Biso   1.000  O
  O20      1.0000 0.68076  0.31395  0.86663  Biso   1.000  O
  O21      1.0000 0.58117  0.47679  0.90042  Biso   1.000  O
  Zn3      1.0000 0.06881  0.27056  0.33594  Biso   1.000  Zn
  C94      1.0000 0.53104  0.64552  0.56331  Biso   1.000  C
  C95      1.0000 0.61367  0.61500  0.53855  Biso   1.000  C
  H73      1.0000 0.66350  0.56600  0.55520  Biso   1.000  H
  C96      1.0000 0.62499  0.65449  0.49015  Biso   1.000  C
  C97      1.0000 0.55266  0.73076  0.46630  Biso   1.000  C
  H74      1.0000 0.55990  0.75940  0.43340  Biso   1.000  H
  C98      1.0000 0.46952  0.76555  0.49033  Biso   1.000  C
  C99      1.0000 0.45930  0.72157  0.53861  Biso   1.000  C
  H75      1.0000 0.40270  0.74370  0.55490  Biso   1.000  H
  C100     1.0000 0.50329  0.44390  0.76294  Biso   1.000  C
  C101     1.0000 0.50699  0.49294  0.71053  Biso   1.000  C
  C102     1.0000 0.56276  0.41484  0.67762  Biso   1.000  C
  H76      1.0000 0.59670  0.32750  0.68780  Biso   1.000  H
  C103     1.0000 0.56889  0.46407  0.63010  Biso   1.000  C
  H77      1.0000 0.60630  0.40860  0.60790  Biso   1.000  H
  C104     1.0000 0.52100  0.59416  0.61407  Biso   1.000  C
  C105     1.0000 0.46320  0.66904  0.64705  Biso   1.000  C
  H78      1.0000 0.42840  0.75560  0.63690  Biso   1.000  H
  C106     1.0000 0.45620  0.61811  0.69450  Biso   1.000  C
  H79      1.0000 0.41610  0.66970  0.71630  Biso   1.000  H
  C107     1.0000 0.95571  0.39276  0.40275  Biso   1.000  C
  C108     1.0000 0.86935  0.46293  0.42411  Biso   1.000  C
  C109     1.0000 0.87468  0.53194  0.46954  Biso   1.000  C
  H80      1.0000 0.93250  0.53280  0.48660  Biso   1.000  H
  C110     1.0000 0.79669  0.59932  0.49013  Biso   1.000  C
  H81      1.0000 0.80150  0.64460  0.52120  Biso   1.000  H
  C111     1.0000 0.71098  0.60121  0.46543  Biso   1.000  C
  C112     1.0000 0.70670  0.53678  0.41924  Biso   1.000  C
  H82      1.0000 0.64990  0.54120  0.40140  Biso   1.000  H
  C113     1.0000 0.78441  0.46609  0.39899  Biso   1.000  C
  H83      1.0000 0.77960  0.41990  0.36800  Biso   1.000  H
  C114     1.0000 0.16115  0.07291  0.39397  Biso   1.000  C
  C115     1.0000 0.24207  0.99508  0.41878  Biso   1.000  C
  C116     1.0000 0.33415  0.03464  0.40848  Biso   1.000  C
  H84      1.0000 0.34670  0.11340  0.38590  Biso   1.000  H
  C117     1.0000 0.40789  0.95915  0.43123  Biso   1.000  C
  H85      1.0000 0.47030  0.98620  0.42360  Biso   1.000  H
  C118     1.0000 0.39123  0.84424  0.46504  Biso   1.000  C
  C119     1.0000 0.29827  0.80412  0.47486  Biso   1.000  C
  H86      1.0000 0.28550  0.72530  0.49740  Biso   1.000  H
  C120     1.0000 0.22502  0.87854  0.45189  Biso   1.000  C
  H87      1.0000 0.16250  0.84980  0.45880  Biso   1.000  H
  O22      1.0000 0.61550  0.04047  0.80172  Biso   1.000  O
  C121     1.0000 0.65137  0.91500  0.81256  Biso   1.000  C
  C122     1.0000 0.66787  0.87090  0.86419  Biso   1.000  C
  H88      1.0000 0.64880  0.95470  0.88540  Biso   1.000  H
  H89      1.0000 0.63120  0.77980  0.87180  Biso   1.000  H
  H90      1.0000 0.73440  0.84940  0.86920  Biso   1.000  H
  N4       1.0000 0.67456  0.81666  0.77785  Biso   1.000  N
  C123     1.0000 0.71717  0.66810  0.78667  Biso   1.000  C
  H91      1.0000 0.73820  0.66210  0.82040  Biso   1.000  H
  H92      1.0000 0.67120  0.58770  0.78040  Biso   1.000  H
  H93      1.0000 0.77070  0.65470  0.76520  Biso   1.000  H
  C124     1.0000 0.65763  0.84993  0.72683  Biso   1.000  C
  H94      1.0000 0.62630  0.94880  0.72380  Biso   1.000  H
  H95      1.0000 0.71730  0.85300  0.70970  Biso   1.000  H
  H96      1.0000 0.61790  0.77030  0.71280  Biso   1.000  H
  O23      1.0000 0.55230  0.32572  0.77275  Biso   1.000  O
  O24      1.0000 0.45673  0.51774  0.79191  Biso   1.000  O
  O25      1.0000 0.03153  0.40778  0.42358  Biso   1.000  O
  O26      1.0000 0.94561  0.32008  0.36236  Biso   1.000  O
  O27      1.0000 0.18076  0.18605  0.36663  Biso   1.000  O
  O28      1.0000 0.08117  0.02321  0.40042  Biso   1.000  O
  Zn4      1.0000 0.56881  0.22944  0.83594  Biso   1.000  Zn
