data_image0
_cell_length_a       13.3299
_cell_length_b       13.6362
_cell_length_c       15.29
_cell_angle_alpha    108.916
_cell_angle_beta     101.898
_cell_angle_gamma    111.691

_symmetry_space_group_name_H-M    P 1
_symmetry_int_tables_number       1

loop_
  _symmetry_equiv_pos_as_xyz
  'x, y, z'

loop_
  _atom_site_label
  _atom_site_occupancy
  _atom_site_fract_x
  _atom_site_fract_y
  _atom_site_fract_z
  _atom_site_thermal_displace_type
  _atom_site_B_iso_or_equiv
  _atom_site_type_symbol
  La1      1.0000 0.31604  0.35235  0.57350  Biso   1.000  La
  La2      1.0000 0.09936  0.10653  0.65392  Biso   1.000  La
  La3      1.0000 0.68396  0.64765  0.42650  Biso   1.000  La
  La4      1.0000 0.90064  0.89347  0.34607  Biso   1.000  La
  P1       1.0000 0.98740  0.17602  0.44251  Biso   1.000  P
  P2       1.0000 0.41857  0.22557  0.73460  Biso   1.000  P
  P3       1.0000 0.21765  0.07775  0.43968  Biso   1.000  P
  P4       1.0000 0.38499  0.40817  0.36889  Biso   1.000  P
  P5       1.0000 0.81688  0.82315  0.07088  Biso   1.000  P
  P6       1.0000 0.01260  0.82398  0.55749  Biso   1.000  P
  P7       1.0000 0.58143  0.77443  0.26540  Biso   1.000  P
  P8       1.0000 0.78235  0.92225  0.56032  Biso   1.000  P
  P9       1.0000 0.61501  0.59183  0.63111  Biso   1.000  P
  P10      1.0000 0.18312  0.17685  0.92912  Biso   1.000  P
  H1       1.0000 0.06690  0.41520  0.53330  Biso   1.000  H
  H2       1.0000 0.41630  0.33860  0.93250  Biso   1.000  H
  H3       1.0000 0.41000  0.05610  0.55910  Biso   1.000  H
  H4       1.0000 0.15800  0.23700  0.12580  Biso   1.000  H
  H5       1.0000 0.96540  0.08330  0.22780  Biso   1.000  H
  H6       1.0000 0.06110  0.44370  0.86900  Biso   1.000  H
  H7       1.0000 0.11530  0.63780  0.97310  Biso   1.000  H
  H8       1.0000 0.24530  0.78990  0.95340  Biso   1.000  H
  H9       1.0000 0.32490  0.75030  0.83580  Biso   1.000  H
  H10      1.0000 0.92120  0.27090  0.55780  Biso   1.000  H
  H11      1.0000 0.84240  0.23480  0.44940  Biso   1.000  H
  H12      1.0000 0.88180  0.45450  0.55190  Biso   1.000  H
  H13      1.0000 0.98290  0.47630  0.64170  Biso   1.000  H
  H14      1.0000 0.98400  0.34540  0.36510  Biso   1.000  H
  H15      1.0000 0.88340  0.37420  0.38020  Biso   1.000  H
  H16      1.0000 0.59680  0.36160  0.86560  Biso   1.000  H
  H17      1.0000 0.53170  0.25820  0.89020  Biso   1.000  H
  H18      1.0000 0.58390  0.40060  0.05820  Biso   1.000  H
  H19      1.0000 0.64650  0.50450  0.03310  Biso   1.000  H
  H20      1.0000 0.53140  0.51920  0.88950  Biso   1.000  H
  H21      1.0000 0.40020  0.42480  0.83000  Biso   1.000  H
  H22      1.0000 0.25300  0.92320  0.36590  Biso   1.000  H
  H23      1.0000 0.21820  0.91490  0.45550  Biso   1.000  H
  H24      1.0000 0.45130  0.01930  0.38410  Biso   1.000  H
  H25      1.0000 0.47080  0.14080  0.45970  Biso   1.000  H
  H26      1.0000 0.35130  0.86140  0.51830  Biso   1.000  H
  H27      1.0000 0.37830  0.84660  0.42110  Biso   1.000  H
  H28      1.0000 0.34400  0.34750  0.20060  Biso   1.000  H
  H29      1.0000 0.29200  0.43120  0.23800  Biso   1.000  H
  H30      1.0000 0.23450  0.14010  0.19390  Biso   1.000  H
  H31      1.0000 0.18920  0.17660  0.27980  Biso   1.000  H
  H32      1.0000 0.10560  0.30470  0.29220  Biso   1.000  H
  H33      1.0000 0.09380  0.35650  0.21490  Biso   1.000  H
  H34      1.0000 0.95420  0.17020  0.08950  Biso   1.000  H
  H35      1.0000 0.91270  0.20090  0.17880  Biso   1.000  H
  H36      1.0000 0.05550  0.98610  0.16310  Biso   1.000  H
  H37      1.0000 0.04610  0.02580  0.07760  Biso   1.000  H
  H38      1.0000 0.78290  0.98540  0.12120  Biso   1.000  H
  H39      1.0000 0.82290  0.97640  0.03100  Biso   1.000  H
  H40      1.0000 0.39240  0.26900  0.38270  Biso   1.000  H
  H41      1.0000 0.93310  0.58480  0.46670  Biso   1.000  H
  H42      1.0000 0.58370  0.66140  0.06750  Biso   1.000  H
  H43      1.0000 0.59000  0.94390  0.44090  Biso   1.000  H
  H44      1.0000 0.84200  0.76300  0.87420  Biso   1.000  H
  H45      1.0000 0.03460  0.91670  0.77220  Biso   1.000  H
  H46      1.0000 0.93890  0.55630  0.13100  Biso   1.000  H
  H47      1.0000 0.88470  0.36220  0.02690  Biso   1.000  H
  H48      1.0000 0.75470  0.21010  0.04660  Biso   1.000  H
  H49      1.0000 0.67510  0.24970  0.16420  Biso   1.000  H
  H50      1.0000 0.07880  0.72910  0.44220  Biso   1.000  H
  H51      1.0000 0.15760  0.76520  0.55060  Biso   1.000  H
  H52      1.0000 0.11820  0.54550  0.44810  Biso   1.000  H
  H53      1.0000 0.01710  0.52370  0.35830  Biso   1.000  H
  H54      1.0000 0.01600  0.65460  0.63490  Biso   1.000  H
  H55      1.0000 0.11660  0.62580  0.61980  Biso   1.000  H
  H56      1.0000 0.40320  0.63840  0.13440  Biso   1.000  H
  H57      1.0000 0.46830  0.74180  0.10980  Biso   1.000  H
  H58      1.0000 0.41610  0.59940  0.94180  Biso   1.000  H
  H59      1.0000 0.35350  0.49550  0.96690  Biso   1.000  H
  H60      1.0000 0.46860  0.48080  0.11050  Biso   1.000  H
  H61      1.0000 0.59980  0.57520  0.17000  Biso   1.000  H
  H62      1.0000 0.74700  0.07680  0.63410  Biso   1.000  H
  H63      1.0000 0.78180  0.08510  0.54450  Biso   1.000  H
  H64      1.0000 0.54870  0.98070  0.61590  Biso   1.000  H
  H65      1.0000 0.52920  0.85920  0.54030  Biso   1.000  H
  H66      1.0000 0.64870  0.13860  0.48170  Biso   1.000  H
  H67      1.0000 0.62170  0.15340  0.57890  Biso   1.000  H
  H68      1.0000 0.65600  0.65250  0.79940  Biso   1.000  H
  H69      1.0000 0.70800  0.56880  0.76200  Biso   1.000  H
  H70      1.0000 0.76550  0.85990  0.80610  Biso   1.000  H
  H71      1.0000 0.81080  0.82340  0.72020  Biso   1.000  H
  H72      1.0000 0.89440  0.69530  0.70780  Biso   1.000  H
  H73      1.0000 0.90620  0.64350  0.78510  Biso   1.000  H
  H74      1.0000 0.04580  0.82980  0.91050  Biso   1.000  H
  H75      1.0000 0.08730  0.79910  0.82120  Biso   1.000  H
  H76      1.0000 0.94450  0.01390  0.83690  Biso   1.000  H
  H77      1.0000 0.95390  0.97420  0.92240  Biso   1.000  H
  H78      1.0000 0.21710  0.01460  0.87880  Biso   1.000  H
  H79      1.0000 0.17710  0.02360  0.96900  Biso   1.000  H
  H80      1.0000 0.60760  0.73100  0.61730  Biso   1.000  H
  C1       1.0000 0.29400  0.54720  0.70500  Biso   1.000  C
  C2       1.0000 0.12960  0.35480  0.72880  Biso   1.000  C
  C3       1.0000 0.24120  0.57340  0.78080  Biso   1.000  C
  C4       1.0000 0.16170  0.48060  0.79060  Biso   1.000  C
  C5       1.0000 0.11450  0.50500  0.86200  Biso   1.000  C
  C6       1.0000 0.14650  0.62170  0.92440  Biso   1.000  C
  C7       1.0000 0.22470  0.71240  0.91300  Biso   1.000  C
  C8       1.0000 0.27180  0.68870  0.84250  Biso   1.000  C
  C9       1.0000 0.92210  0.26890  0.49390  Biso   1.000  C
  C10      1.0000 0.96400  0.47770  0.57750  Biso   1.000  C
  C11      1.0000 0.96560  0.39900  0.40990  Biso   1.000  C
  C12      1.0000 0.52190  0.31150  0.86410  Biso   1.000  C
  C13      1.0000 0.57290  0.45500  0.03420  Biso   1.000  C
  C14      1.0000 0.46170  0.46930  0.89540  Biso   1.000  C
  C15      1.0000 0.26750  0.96850  0.43510  Biso   1.000  C
  C16      1.0000 0.47430  0.06930  0.45410  Biso   1.000  C
  C17      1.0000 0.40260  0.90070  0.49010  Biso   1.000  C
  C18      1.0000 0.29960  0.36410  0.24090  Biso   1.000  C
  C19      1.0000 0.17430  0.15730  0.21000  Biso   1.000  C
  C20      1.0000 0.09050  0.28770  0.22270  Biso   1.000  C
  C21      1.0000 0.97050  0.18300  0.15830  Biso   1.000  C
  C22      1.0000 0.05720  0.05000  0.14740  Biso   1.000  C
  C23      1.0000 0.83920  0.97260  0.09430  Biso   1.000  C
  C24      1.0000 0.70600  0.45280  0.29500  Biso   1.000  C
  C25      1.0000 0.87040  0.64520  0.27120  Biso   1.000  C
  C26      1.0000 0.75880  0.42660  0.21920  Biso   1.000  C
  C27      1.0000 0.83830  0.51940  0.20940  Biso   1.000  C
  C28      1.0000 0.88550  0.49500  0.13800  Biso   1.000  C
  C29      1.0000 0.85350  0.37830  0.07560  Biso   1.000  C
  C30      1.0000 0.77530  0.28760  0.08700  Biso   1.000  C
  C31      1.0000 0.72820  0.31130  0.15750  Biso   1.000  C
  C32      1.0000 0.07790  0.73110  0.50610  Biso   1.000  C
  C33      1.0000 0.03600  0.52230  0.42250  Biso   1.000  C
  C34      1.0000 0.03440  0.60100  0.59010  Biso   1.000  C
  C35      1.0000 0.47810  0.68850  0.13590  Biso   1.000  C
  C36      1.0000 0.42710  0.54500  0.96580  Biso   1.000  C
  C37      1.0000 0.53830  0.53070  0.10460  Biso   1.000  C
  C38      1.0000 0.73250  0.03150  0.56490  Biso   1.000  C
  C39      1.0000 0.52570  0.93070  0.54590  Biso   1.000  C
  C40      1.0000 0.59740  0.09930  0.50990  Biso   1.000  C
  C41      1.0000 0.70040  0.63590  0.75910  Biso   1.000  C
  C42      1.0000 0.82570  0.84270  0.79000  Biso   1.000  C
  C43      1.0000 0.90950  0.71230  0.77730  Biso   1.000  C
  C44      1.0000 0.02950  0.81700  0.84170  Biso   1.000  C
  C45      1.0000 0.94280  0.95000  0.85260  Biso   1.000  C
  C46      1.0000 0.16080  0.02740  0.90570  Biso   1.000  C
  N1       1.0000 0.98980  0.39270  0.50700  Biso   1.000  N
  N2       1.0000 0.48370  0.38700  0.93060  Biso   1.000  N
  N3       1.0000 0.39150  0.00720  0.49470  Biso   1.000  N
  N4       1.0000 0.17970  0.26040  0.19260  Biso   1.000  N
  N5       1.0000 0.95990  0.07280  0.16480  Biso   1.000  N
  N6       1.0000 0.01020  0.60730  0.49300  Biso   1.000  N
  N7       1.0000 0.51630  0.61300  0.06940  Biso   1.000  N
  N8       1.0000 0.60850  0.99280  0.50530  Biso   1.000  N
  N9       1.0000 0.82030  0.73960  0.80740  Biso   1.000  N
  N10      1.0000 0.04010  0.92720  0.83520  Biso   1.000  N
  O1       1.0000 0.22990  0.50100  0.61450  Biso   1.000  O
  O2       1.0000 0.39680  0.56340  0.73270  Biso   1.000  O
  O3       1.0000 0.20200  0.33250  0.69400  Biso   1.000  O
  O4       1.0000 0.03440  0.27440  0.71420  Biso   1.000  O
  O5       1.0000 0.97650  0.09870  0.49700  Biso   1.000  O
  O6       1.0000 0.10900  0.26400  0.46290  Biso   1.000  O
  O7       1.0000 0.91420  0.09440  0.33200  Biso   1.000  O
  O8       1.0000 0.43510  0.31170  0.68910  Biso   1.000  O
  O9       1.0000 0.45470  0.13390  0.68830  Biso   1.000  O
  O10      1.0000 0.30190  0.17380  0.74420  Biso   1.000  O
  O11      1.0000 0.21170  0.13130  0.54140  Biso   1.000  O
  O12      1.0000 0.30680  0.17960  0.43020  Biso   1.000  O
  O13      1.0000 0.10170  0.00540  0.35550  Biso   1.000  O
  O14      1.0000 0.30960  0.40310  0.42910  Biso   1.000  O
  O15      1.0000 0.42850  0.31350  0.36190  Biso   1.000  O
  O16      1.0000 0.48390  0.52690  0.39950  Biso   1.000  O
  O17      1.0000 0.68650  0.74600  0.02550  Biso   1.000  O
  O18      1.0000 0.87500  0.79200  0.99710  Biso   1.000  O
  O19      1.0000 0.87770  0.83280  0.17050  Biso   1.000  O
  O20      1.0000 0.77010  0.49900  0.38550  Biso   1.000  O
  O21      1.0000 0.60320  0.43660  0.26730  Biso   1.000  O
  O22      1.0000 0.79800  0.66750  0.30600  Biso   1.000  O
  O23      1.0000 0.96560  0.72560  0.28580  Biso   1.000  O
  O24      1.0000 0.02350  0.90130  0.50300  Biso   1.000  O
  O25      1.0000 0.89100  0.73600  0.53710  Biso   1.000  O
  O26      1.0000 0.08580  0.90560  0.66800  Biso   1.000  O
  O27      1.0000 0.56490  0.68830  0.31090  Biso   1.000  O
  O28      1.0000 0.54530  0.86610  0.31170  Biso   1.000  O
  O29      1.0000 0.69810  0.82620  0.25580  Biso   1.000  O
  O30      1.0000 0.78830  0.86870  0.45860  Biso   1.000  O
  O31      1.0000 0.69320  0.82040  0.56980  Biso   1.000  O
  O32      1.0000 0.89830  0.99460  0.64450  Biso   1.000  O
  O33      1.0000 0.69040  0.59690  0.57090  Biso   1.000  O
  O34      1.0000 0.57150  0.68650  0.63810  Biso   1.000  O
  O35      1.0000 0.51610  0.47310  0.60050  Biso   1.000  O
  O36      1.0000 0.31350  0.25400  0.97450  Biso   1.000  O
  O37      1.0000 0.12500  0.20800  0.00290  Biso   1.000  O
  O38      1.0000 0.12230  0.16720  0.82950  Biso   1.000  O
