data_image0
_cell_length_a       17.16
_cell_length_b       16.787
_cell_length_c       10.072
_cell_angle_alpha    90
_cell_angle_beta     120.77
_cell_angle_gamma    90

_symmetry_space_group_name_H-M    "P 1"
_symmetry_int_tables_number       1

loop_
  _symmetry_equiv_pos_as_xyz
  'x, y, z'

loop_
  _atom_site_label
  _atom_site_occupancy
  _atom_site_fract_x
  _atom_site_fract_y
  _atom_site_fract_z
  _atom_site_thermal_displace_type
  _atom_site_B_iso_or_equiv
  _atom_site_type_symbol
  Zn1      1.0000 0.25128  0.10237  0.84569  Biso   1.000  Zn
  O1       1.0000 0.34860  0.18082  0.92630  Biso   1.000  O
  O2       1.0000 0.44581  0.08007  0.01780  Biso   1.000  O
  N1       1.0000 0.37681  0.98473  0.18820  Biso   1.000  N
  N2       1.0000 0.23753  0.04952  0.00960  Biso   1.000  N
  N3       1.0000 0.15335  0.05117  0.99410  Biso   1.000  N
  N4       1.0000 0.15435  0.00931  0.10120  Biso   1.000  N
  N5       1.0000 0.23930  0.97750  0.19230  Biso   1.000  N
  N6       1.0000 0.64487  0.32047  0.23350  Biso   1.000  N
  C1       1.0000 0.42843  0.15208  0.00300  Biso   1.000  C
  C2       1.0000 0.50412  0.21202  0.08130  Biso   1.000  C
  C3       1.0000 0.59316  0.18622  0.16880  Biso   1.000  C
  H1       1.0000 0.60670  0.13210  0.17750  Biso   1.000  H
  C4       1.0000 0.66129  0.24168  0.24270  Biso   1.000  C
  H2       1.0000 0.72090  0.22400  0.30110  Biso   1.000  H
  C5       1.0000 0.55875  0.34516  0.14710  Biso   1.000  C
  H3       1.0000 0.54690  0.39960  0.13850  Biso   1.000  H
  C6       1.0000 0.48692  0.29294  0.07020  Biso   1.000  C
  H4       1.0000 0.42790  0.31200  0.01170  Biso   1.000  H
  C7       1.0000 0.28854  0.00323  0.13250  Biso   1.000  C
  H5       1.0000 0.40400  0.97400  0.27300  Biso   1.000  H
  H6       1.0000 0.40400  0.01000  0.14400  Biso   1.000  H
  Zn2      1.0000 0.75128  0.60237  0.84569  Biso   1.000  Zn
  O3       1.0000 0.84860  0.68082  0.92630  Biso   1.000  O
  O4       1.0000 0.94581  0.58007  0.01780  Biso   1.000  O
  N7       1.0000 0.87681  0.48473  0.18820  Biso   1.000  N
  N8       1.0000 0.73753  0.54952  0.00960  Biso   1.000  N
  N9       1.0000 0.65335  0.55117  0.99410  Biso   1.000  N
  N10      1.0000 0.65435  0.50931  0.10120  Biso   1.000  N
  N11      1.0000 0.73930  0.47750  0.19230  Biso   1.000  N
  N12      1.0000 0.14487  0.82047  0.23350  Biso   1.000  N
  C8       1.0000 0.92843  0.65208  0.00300  Biso   1.000  C
  C9       1.0000 0.00412  0.71202  0.08130  Biso   1.000  C
  C10      1.0000 0.09316  0.68622  0.16880  Biso   1.000  C
  H7       1.0000 0.10670  0.63210  0.17750  Biso   1.000  H
  C11      1.0000 0.16129  0.74168  0.24270  Biso   1.000  C
  H8       1.0000 0.22090  0.72400  0.30110  Biso   1.000  H
  C12      1.0000 0.05875  0.84516  0.14710  Biso   1.000  C
  H9       1.0000 0.04690  0.89960  0.13850  Biso   1.000  H
  C13      1.0000 0.98692  0.79294  0.07020  Biso   1.000  C
  H10      1.0000 0.92790  0.81200  0.01170  Biso   1.000  H
  C14      1.0000 0.78854  0.50323  0.13250  Biso   1.000  C
  H11      1.0000 0.90400  0.47400  0.27300  Biso   1.000  H
  H12      1.0000 0.90400  0.51000  0.14400  Biso   1.000  H
  Zn3      1.0000 0.25128  0.89763  0.34569  Biso   1.000  Zn
  O5       1.0000 0.34860  0.81918  0.42630  Biso   1.000  O
  O6       1.0000 0.44581  0.91993  0.51780  Biso   1.000  O
  N13      1.0000 0.37681  0.01527  0.68820  Biso   1.000  N
  N14      1.0000 0.23753  0.95048  0.50960  Biso   1.000  N
  N15      1.0000 0.15335  0.94883  0.49410  Biso   1.000  N
  N16      1.0000 0.15435  0.99069  0.60120  Biso   1.000  N
  N17      1.0000 0.23930  0.02250  0.69230  Biso   1.000  N
  N18      1.0000 0.64487  0.67953  0.73350  Biso   1.000  N
  C15      1.0000 0.42843  0.84792  0.50300  Biso   1.000  C
  C16      1.0000 0.50412  0.78798  0.58130  Biso   1.000  C
  C17      1.0000 0.59316  0.81378  0.66880  Biso   1.000  C
  H13      1.0000 0.60670  0.86790  0.67750  Biso   1.000  H
  C18      1.0000 0.66129  0.75832  0.74270  Biso   1.000  C
  H14      1.0000 0.72090  0.77600  0.80110  Biso   1.000  H
  C19      1.0000 0.55875  0.65484  0.64710  Biso   1.000  C
  H15      1.0000 0.54690  0.60040  0.63850  Biso   1.000  H
  C20      1.0000 0.48692  0.70706  0.57020  Biso   1.000  C
  H16      1.0000 0.42790  0.68800  0.51170  Biso   1.000  H
  C21      1.0000 0.28854  0.99677  0.63250  Biso   1.000  C
  H17      1.0000 0.40400  0.02600  0.77300  Biso   1.000  H
  H18      1.0000 0.40400  0.99000  0.64400  Biso   1.000  H
  Zn4      1.0000 0.75128  0.39763  0.34569  Biso   1.000  Zn
  O7       1.0000 0.84860  0.31918  0.42630  Biso   1.000  O
  O8       1.0000 0.94581  0.41993  0.51780  Biso   1.000  O
  N19      1.0000 0.87681  0.51527  0.68820  Biso   1.000  N
  N20      1.0000 0.73753  0.45048  0.50960  Biso   1.000  N
  N21      1.0000 0.65335  0.44883  0.49410  Biso   1.000  N
  N22      1.0000 0.65435  0.49069  0.60120  Biso   1.000  N
  N23      1.0000 0.73930  0.52250  0.69230  Biso   1.000  N
  N24      1.0000 0.14487  0.17953  0.73350  Biso   1.000  N
  C22      1.0000 0.92843  0.34792  0.50300  Biso   1.000  C
  C23      1.0000 0.00412  0.28798  0.58130  Biso   1.000  C
  C24      1.0000 0.09316  0.31378  0.66880  Biso   1.000  C
  H19      1.0000 0.10670  0.36790  0.67750  Biso   1.000  H
  C25      1.0000 0.16129  0.25832  0.74270  Biso   1.000  C
  H20      1.0000 0.22090  0.27600  0.80110  Biso   1.000  H
  C26      1.0000 0.05875  0.15484  0.64710  Biso   1.000  C
  H21      1.0000 0.04690  0.10040  0.63850  Biso   1.000  H
  C27      1.0000 0.98692  0.20706  0.57020  Biso   1.000  C
  H22      1.0000 0.92790  0.18800  0.51170  Biso   1.000  H
  C28      1.0000 0.78854  0.49677  0.63250  Biso   1.000  C
  H23      1.0000 0.90400  0.52600  0.77300  Biso   1.000  H
  H24      1.0000 0.90400  0.49000  0.64400  Biso   1.000  H
  Zn5      1.0000 0.74872  0.10237  0.65431  Biso   1.000  Zn
  O9       1.0000 0.65140  0.18082  0.57370  Biso   1.000  O
  O10      1.0000 0.55419  0.08007  0.48220  Biso   1.000  O
  N25      1.0000 0.62319  0.98473  0.31180  Biso   1.000  N
  N26      1.0000 0.76247  0.04952  0.49040  Biso   1.000  N
  N27      1.0000 0.84665  0.05117  0.50590  Biso   1.000  N
  N28      1.0000 0.84565  0.00931  0.39880  Biso   1.000  N
  N29      1.0000 0.76070  0.97750  0.30770  Biso   1.000  N
  N30      1.0000 0.35513  0.32047  0.26650  Biso   1.000  N
  C29      1.0000 0.57157  0.15208  0.49700  Biso   1.000  C
  C30      1.0000 0.49588  0.21202  0.41870  Biso   1.000  C
  C31      1.0000 0.40684  0.18622  0.33120  Biso   1.000  C
  H25      1.0000 0.39330  0.13210  0.32250  Biso   1.000  H
  C32      1.0000 0.33871  0.24168  0.25730  Biso   1.000  C
  H26      1.0000 0.27910  0.22400  0.19890  Biso   1.000  H
  C33      1.0000 0.44125  0.34516  0.35290  Biso   1.000  C
  H27      1.0000 0.45310  0.39960  0.36150  Biso   1.000  H
  C34      1.0000 0.51308  0.29294  0.42980  Biso   1.000  C
  H28      1.0000 0.57210  0.31200  0.48830  Biso   1.000  H
  C35      1.0000 0.71146  0.00323  0.36750  Biso   1.000  C
  H29      1.0000 0.59600  0.97400  0.22700  Biso   1.000  H
  H30      1.0000 0.59600  0.01000  0.35600  Biso   1.000  H
  Zn6      1.0000 0.24872  0.60237  0.65431  Biso   1.000  Zn
  O11      1.0000 0.15140  0.68082  0.57370  Biso   1.000  O
  O12      1.0000 0.05419  0.58007  0.48220  Biso   1.000  O
  N31      1.0000 0.12319  0.48473  0.31180  Biso   1.000  N
  N32      1.0000 0.26247  0.54952  0.49040  Biso   1.000  N
  N33      1.0000 0.34665  0.55117  0.50590  Biso   1.000  N
  N34      1.0000 0.34565  0.50931  0.39880  Biso   1.000  N
  N35      1.0000 0.26070  0.47750  0.30770  Biso   1.000  N
  N36      1.0000 0.85513  0.82047  0.26650  Biso   1.000  N
  C36      1.0000 0.07157  0.65208  0.49700  Biso   1.000  C
  C37      1.0000 0.99588  0.71202  0.41870  Biso   1.000  C
  C38      1.0000 0.90684  0.68622  0.33120  Biso   1.000  C
  H31      1.0000 0.89330  0.63210  0.32250  Biso   1.000  H
  C39      1.0000 0.83871  0.74168  0.25730  Biso   1.000  C
  H32      1.0000 0.77910  0.72400  0.19890  Biso   1.000  H
  C40      1.0000 0.94125  0.84516  0.35290  Biso   1.000  C
  H33      1.0000 0.95310  0.89960  0.36150  Biso   1.000  H
  C41      1.0000 0.01308  0.79294  0.42980  Biso   1.000  C
  H34      1.0000 0.07210  0.81200  0.48830  Biso   1.000  H
  C42      1.0000 0.21146  0.50323  0.36750  Biso   1.000  C
  H35      1.0000 0.09600  0.47400  0.22700  Biso   1.000  H
  H36      1.0000 0.09600  0.51000  0.35600  Biso   1.000  H
  Zn7      1.0000 0.74872  0.89763  0.15431  Biso   1.000  Zn
  O13      1.0000 0.65140  0.81918  0.07370  Biso   1.000  O
  O14      1.0000 0.55419  0.91993  0.98220  Biso   1.000  O
  N37      1.0000 0.62319  0.01527  0.81180  Biso   1.000  N
  N38      1.0000 0.76247  0.95048  0.99040  Biso   1.000  N
  N39      1.0000 0.84665  0.94883  0.00590  Biso   1.000  N
  N40      1.0000 0.84565  0.99069  0.89880  Biso   1.000  N
  N41      1.0000 0.76070  0.02250  0.80770  Biso   1.000  N
  N42      1.0000 0.35513  0.67953  0.76650  Biso   1.000  N
  C43      1.0000 0.57157  0.84792  0.99700  Biso   1.000  C
  C44      1.0000 0.49588  0.78798  0.91870  Biso   1.000  C
  C45      1.0000 0.40684  0.81378  0.83120  Biso   1.000  C
  H37      1.0000 0.39330  0.86790  0.82250  Biso   1.000  H
  C46      1.0000 0.33871  0.75832  0.75730  Biso   1.000  C
  H38      1.0000 0.27910  0.77600  0.69890  Biso   1.000  H
  C47      1.0000 0.44125  0.65484  0.85290  Biso   1.000  C
  H39      1.0000 0.45310  0.60040  0.86150  Biso   1.000  H
  C48      1.0000 0.51308  0.70706  0.92980  Biso   1.000  C
  H40      1.0000 0.57210  0.68800  0.98830  Biso   1.000  H
  C49      1.0000 0.71146  0.99677  0.86750  Biso   1.000  C
  H41      1.0000 0.59600  0.02600  0.72700  Biso   1.000  H
  H42      1.0000 0.59600  0.99000  0.85600  Biso   1.000  H
  Zn8      1.0000 0.24872  0.39763  0.15431  Biso   1.000  Zn
  O15      1.0000 0.15140  0.31918  0.07370  Biso   1.000  O
  O16      1.0000 0.05419  0.41993  0.98220  Biso   1.000  O
  N43      1.0000 0.12319  0.51527  0.81180  Biso   1.000  N
  N44      1.0000 0.26247  0.45048  0.99040  Biso   1.000  N
  N45      1.0000 0.34665  0.44883  0.00590  Biso   1.000  N
  N46      1.0000 0.34565  0.49069  0.89880  Biso   1.000  N
  N47      1.0000 0.26070  0.52250  0.80770  Biso   1.000  N
  N48      1.0000 0.85513  0.17953  0.76650  Biso   1.000  N
  C50      1.0000 0.07157  0.34792  0.99700  Biso   1.000  C
  C51      1.0000 0.99588  0.28798  0.91870  Biso   1.000  C
  C52      1.0000 0.90684  0.31378  0.83120  Biso   1.000  C
  H43      1.0000 0.89330  0.36790  0.82250  Biso   1.000  H
  C53      1.0000 0.83871  0.25832  0.75730  Biso   1.000  C
  H44      1.0000 0.77910  0.27600  0.69890  Biso   1.000  H
  C54      1.0000 0.94125  0.15484  0.85290  Biso   1.000  C
  H45      1.0000 0.95310  0.10040  0.86150  Biso   1.000  H
  C55      1.0000 0.01308  0.20706  0.92980  Biso   1.000  C
  H46      1.0000 0.07210  0.18800  0.98830  Biso   1.000  H
  C56      1.0000 0.21146  0.49677  0.86750  Biso   1.000  C
  H47      1.0000 0.09600  0.52600  0.72700  Biso   1.000  H
  H48      1.0000 0.09600  0.49000  0.85600  Biso   1.000  H
