data_image0
_cell_length_a       12.605
_cell_length_b       13.2711
_cell_length_c       13.2711
_cell_angle_alpha    94.6874
_cell_angle_beta     96.6319
_cell_angle_gamma    83.3681

_symmetry_space_group_name_H-M    P 1
_symmetry_int_tables_number       1

loop_
  _symmetry_equiv_pos_as_xyz
  'x, y, z'

loop_
  _atom_site_label
  _atom_site_occupancy
  _atom_site_fract_x
  _atom_site_fract_y
  _atom_site_fract_z
  _atom_site_thermal_displace_type
  _atom_site_B_iso_or_equiv
  _atom_site_type_symbol
  Zn1      1.0000 0.17123  0.17273  0.72697  Biso   1.000  Zn
  Zn2      1.0000 0.32877  0.72697  0.17273  Biso   1.000  Zn
  Zn3      1.0000 0.82877  0.82727  0.27303  Biso   1.000  Zn
  Zn4      1.0000 0.67123  0.27303  0.82727  Biso   1.000  Zn
  H1       1.0000 0.40570  0.18660  0.71060  Biso   1.000  H
  H2       1.0000 0.54170  0.11370  0.62350  Biso   1.000  H
  H3       1.0000 0.33690  0.95230  0.45530  Biso   1.000  H
  H4       1.0000 0.20450  0.03030  0.54590  Biso   1.000  H
  H5       1.0000 0.98210  0.23190  0.57790  Biso   1.000  H
  H6       1.0000 0.91470  0.35950  0.47990  Biso   1.000  H
  H7       1.0000 0.14800  0.52100  0.60600  Biso   1.000  H
  H8       1.0000 0.20940  0.38920  0.70360  Biso   1.000  H
  H9       1.0000 0.05790  0.86820  0.70000  Biso   1.000  H
  H10      1.0000 0.95780  0.73580  0.70160  Biso   1.000  H
  H11      1.0000 0.70980  0.92760  0.77900  Biso   1.000  H
  H12      1.0000 0.09430  0.71060  0.18660  Biso   1.000  H
  H13      1.0000 0.95830  0.62350  0.11370  Biso   1.000  H
  H14      1.0000 0.16310  0.45530  0.95230  Biso   1.000  H
  H15      1.0000 0.29550  0.54590  0.03030  Biso   1.000  H
  H16      1.0000 0.51790  0.57790  0.23190  Biso   1.000  H
  H17      1.0000 0.58530  0.47990  0.35950  Biso   1.000  H
  H18      1.0000 0.35200  0.60600  0.52100  Biso   1.000  H
  H19      1.0000 0.29060  0.70360  0.38920  Biso   1.000  H
  H20      1.0000 0.44210  0.70000  0.86820  Biso   1.000  H
  H21      1.0000 0.54220  0.70160  0.73580  Biso   1.000  H
  H22      1.0000 0.79020  0.77900  0.92760  Biso   1.000  H
  H23      1.0000 0.59430  0.81340  0.28940  Biso   1.000  H
  H24      1.0000 0.45830  0.88630  0.37650  Biso   1.000  H
  H25      1.0000 0.66310  0.04770  0.54470  Biso   1.000  H
  H26      1.0000 0.79550  0.96970  0.45410  Biso   1.000  H
  H27      1.0000 0.01790  0.76810  0.42210  Biso   1.000  H
  H28      1.0000 0.08530  0.64050  0.52010  Biso   1.000  H
  H29      1.0000 0.85200  0.47900  0.39400  Biso   1.000  H
  H30      1.0000 0.79060  0.61080  0.29640  Biso   1.000  H
  H31      1.0000 0.94210  0.13180  0.30000  Biso   1.000  H
  H32      1.0000 0.04220  0.26420  0.29840  Biso   1.000  H
  H33      1.0000 0.29020  0.07240  0.22100  Biso   1.000  H
  H34      1.0000 0.90570  0.28940  0.81340  Biso   1.000  H
  H35      1.0000 0.04170  0.37650  0.88630  Biso   1.000  H
  H36      1.0000 0.83690  0.54470  0.04770  Biso   1.000  H
  H37      1.0000 0.70450  0.45410  0.96970  Biso   1.000  H
  H38      1.0000 0.48210  0.42210  0.76810  Biso   1.000  H
  H39      1.0000 0.41470  0.52010  0.64050  Biso   1.000  H
  H40      1.0000 0.64800  0.39400  0.47900  Biso   1.000  H
  H41      1.0000 0.70940  0.29640  0.61080  Biso   1.000  H
  H42      1.0000 0.55790  0.30000  0.13180  Biso   1.000  H
  H43      1.0000 0.45780  0.29840  0.26420  Biso   1.000  H
  H44      1.0000 0.20980  0.22100  0.07240  Biso   1.000  H
  C1       1.0000 0.39080  0.13710  0.65890  Biso   1.000  C
  C2       1.0000 0.47320  0.09370  0.60610  Biso   1.000  C
  C3       1.0000 0.45710  0.02290  0.52950  Biso   1.000  C
  C4       1.0000 0.35370  0.00010  0.50830  Biso   1.000  C
  C5       1.0000 0.27430  0.04660  0.56380  Biso   1.000  C
  C6       1.0000 0.01630  0.29090  0.58410  Biso   1.000  C
  C7       1.0000 0.97530  0.36750  0.52570  Biso   1.000  C
  C8       1.0000 0.02090  0.45700  0.53220  Biso   1.000  C
  C9       1.0000 0.11210  0.46300  0.59960  Biso   1.000  C
  C10      1.0000 0.14900  0.38300  0.65700  Biso   1.000  C
  C11      1.0000 0.01420  0.06750  0.73890  Biso   1.000  C
  C12      1.0000 0.94460  0.98220  0.73320  Biso   1.000  C
  C13      1.0000 0.98690  0.88170  0.71430  Biso   1.000  C
  C14      1.0000 0.92700  0.80170  0.71630  Biso   1.000  C
  C15      1.0000 0.82280  0.81710  0.73930  Biso   1.000  C
  C16      1.0000 0.77960  0.91530  0.76110  Biso   1.000  C
  C17      1.0000 0.83960  0.99730  0.75650  Biso   1.000  C
  C18      1.0000 0.78340  0.10280  0.76840  Biso   1.000  C
  C19      1.0000 0.81300  0.62550  0.73470  Biso   1.000  C
  C20      1.0000 0.10920  0.65890  0.13710  Biso   1.000  C
  C21      1.0000 0.02680  0.60610  0.09370  Biso   1.000  C
  C22      1.0000 0.04290  0.52950  0.02290  Biso   1.000  C
  C23      1.0000 0.14630  0.50830  0.00010  Biso   1.000  C
  C24      1.0000 0.22570  0.56380  0.04660  Biso   1.000  C
  C25      1.0000 0.48370  0.58410  0.29090  Biso   1.000  C
  C26      1.0000 0.52470  0.52570  0.36750  Biso   1.000  C
  C27      1.0000 0.47910  0.53220  0.45700  Biso   1.000  C
  C28      1.0000 0.38790  0.59960  0.46300  Biso   1.000  C
  C29      1.0000 0.35100  0.65700  0.38300  Biso   1.000  C
  C30      1.0000 0.48580  0.73890  0.06750  Biso   1.000  C
  C31      1.0000 0.55540  0.73320  0.98220  Biso   1.000  C
  C32      1.0000 0.51310  0.71430  0.88170  Biso   1.000  C
  C33      1.0000 0.57300  0.71630  0.80170  Biso   1.000  C
  C34      1.0000 0.67720  0.73930  0.81710  Biso   1.000  C
  C35      1.0000 0.72040  0.76110  0.91530  Biso   1.000  C
  C36      1.0000 0.66040  0.75650  0.99730  Biso   1.000  C
  C37      1.0000 0.71660  0.76840  0.10280  Biso   1.000  C
  C38      1.0000 0.68700  0.73470  0.62550  Biso   1.000  C
  C39      1.0000 0.60920  0.86290  0.34110  Biso   1.000  C
  C40      1.0000 0.52680  0.90630  0.39390  Biso   1.000  C
  C41      1.0000 0.54290  0.97710  0.47050  Biso   1.000  C
  C42      1.0000 0.64630  0.99990  0.49170  Biso   1.000  C
  C43      1.0000 0.72570  0.95340  0.43620  Biso   1.000  C
  C44      1.0000 0.98370  0.70910  0.41590  Biso   1.000  C
  C45      1.0000 0.02470  0.63250  0.47430  Biso   1.000  C
  C46      1.0000 0.97910  0.54300  0.46780  Biso   1.000  C
  C47      1.0000 0.88790  0.53700  0.40040  Biso   1.000  C
  C48      1.0000 0.85100  0.61700  0.34300  Biso   1.000  C
  C49      1.0000 0.98580  0.93250  0.26110  Biso   1.000  C
  C50      1.0000 0.05540  0.01780  0.26680  Biso   1.000  C
  C51      1.0000 0.01310  0.11830  0.28570  Biso   1.000  C
  C52      1.0000 0.07300  0.19830  0.28370  Biso   1.000  C
  C53      1.0000 0.17720  0.18290  0.26070  Biso   1.000  C
  C54      1.0000 0.22040  0.08470  0.23890  Biso   1.000  C
  C55      1.0000 0.16040  0.00270  0.24350  Biso   1.000  C
  C56      1.0000 0.21660  0.89720  0.23160  Biso   1.000  C
  C57      1.0000 0.18700  0.37450  0.26530  Biso   1.000  C
  C58      1.0000 0.89080  0.34110  0.86290  Biso   1.000  C
  C59      1.0000 0.97320  0.39390  0.90630  Biso   1.000  C
  C60      1.0000 0.95710  0.47050  0.97710  Biso   1.000  C
  C61      1.0000 0.85370  0.49170  0.99990  Biso   1.000  C
  C62      1.0000 0.77430  0.43620  0.95340  Biso   1.000  C
  C63      1.0000 0.51630  0.41590  0.70910  Biso   1.000  C
  C64      1.0000 0.47530  0.47430  0.63250  Biso   1.000  C
  C65      1.0000 0.52090  0.46780  0.54300  Biso   1.000  C
  C66      1.0000 0.61210  0.40040  0.53700  Biso   1.000  C
  C67      1.0000 0.64900  0.34300  0.61700  Biso   1.000  C
  C68      1.0000 0.51420  0.26110  0.93250  Biso   1.000  C
  C69      1.0000 0.44460  0.26680  0.01780  Biso   1.000  C
  C70      1.0000 0.48690  0.28570  0.11830  Biso   1.000  C
  C71      1.0000 0.42700  0.28370  0.19830  Biso   1.000  C
  C72      1.0000 0.32280  0.26070  0.18290  Biso   1.000  C
  C73      1.0000 0.27960  0.23890  0.08470  Biso   1.000  C
  C74      1.0000 0.33960  0.24350  0.00270  Biso   1.000  C
  C75      1.0000 0.28340  0.23160  0.89720  Biso   1.000  C
  C76      1.0000 0.31300  0.26530  0.37450  Biso   1.000  C
  C77      1.0000 0.75000  0.73080  0.73080  Biso   1.000  C
  C78      1.0000 0.25000  0.26920  0.26920  Biso   1.000  C
  N1       1.0000 0.29220  0.11335  0.64135  Biso   1.000  N
  N2       1.0000 0.10370  0.29595  0.65045  Biso   1.000  N
  N3       1.0000 0.20780  0.64135  0.11335  Biso   1.000  N
  N4       1.0000 0.39630  0.65045  0.29595  Biso   1.000  N
  N5       1.0000 0.70780  0.88665  0.35865  Biso   1.000  N
  N6       1.0000 0.89630  0.70405  0.34955  Biso   1.000  N
  N7       1.0000 0.79220  0.35865  0.88665  Biso   1.000  N
  N8       1.0000 0.60370  0.34955  0.70405  Biso   1.000  N
  O1       1.0000 0.99890  0.14286  0.80004  Biso   1.000  O
  O2       1.0000 0.07760  0.05861  0.67873  Biso   1.000  O
  O3       1.0000 0.78440  0.16156  0.70406  Biso   1.000  O
  O4       1.0000 0.73860  0.12768  0.84216  Biso   1.000  O
  O5       1.0000 0.50110  0.80004  0.14286  Biso   1.000  O
  O6       1.0000 0.42240  0.67873  0.05861  Biso   1.000  O
  O7       1.0000 0.71560  0.70406  0.16156  Biso   1.000  O
  O8       1.0000 0.76140  0.84216  0.12768  Biso   1.000  O
  O9       1.0000 0.00110  0.85714  0.19996  Biso   1.000  O
  O10      1.0000 0.92240  0.94139  0.32127  Biso   1.000  O
  O11      1.0000 0.21560  0.83844  0.29594  Biso   1.000  O
  O12      1.0000 0.26140  0.87232  0.15784  Biso   1.000  O
  O13      1.0000 0.49890  0.19996  0.85714  Biso   1.000  O
  O14      1.0000 0.57760  0.32127  0.94139  Biso   1.000  O
  O15      1.0000 0.28440  0.29594  0.83844  Biso   1.000  O
  O16      1.0000 0.23860  0.15784  0.87232  Biso   1.000  O
  F1       1.0000 0.89078  0.62421  0.81367  Biso   1.000  F
  F2       1.0000 0.86410  0.59699  0.65243  Biso   1.000  F
  F3       1.0000 0.75212  0.55441  0.74665  Biso   1.000  F
  F4       1.0000 0.60922  0.81367  0.62421  Biso   1.000  F
  F5       1.0000 0.63590  0.65243  0.59699  Biso   1.000  F
  F6       1.0000 0.74788  0.74665  0.55441  Biso   1.000  F
  F7       1.0000 0.10922  0.37579  0.18633  Biso   1.000  F
  F8       1.0000 0.13590  0.40301  0.34757  Biso   1.000  F
  F9       1.0000 0.24788  0.44559  0.25335  Biso   1.000  F
  F10      1.0000 0.39078  0.18633  0.37579  Biso   1.000  F
  F11      1.0000 0.36410  0.34757  0.40301  Biso   1.000  F
  F12      1.0000 0.25212  0.25335  0.44559  Biso   1.000  F
