data_image0
_cell_length_a       16.0798
_cell_length_b       22.7096
_cell_length_c       38.484
_cell_angle_alpha    90
_cell_angle_beta     90
_cell_angle_gamma    90

_symmetry_space_group_name_H-M    P 1
_symmetry_int_tables_number       1

loop_
  _symmetry_equiv_pos_as_xyz
  'x, y, z'

loop_
  _atom_site_label
  _atom_site_occupancy
  _atom_site_fract_x
  _atom_site_fract_y
  _atom_site_fract_z
  _atom_site_thermal_displace_type
  _atom_site_B_iso_or_equiv
  _atom_site_type_symbol
  Yb1      1.0000 0.25000  0.50000  0.53258  Biso   1.000  Yb
  Yb2      1.0000 0.25000  0.00000  0.96742  Biso   1.000  Yb
  Yb3      1.0000 0.75000  0.50000  0.46742  Biso   1.000  Yb
  Yb4      1.0000 0.75000  0.00000  0.03258  Biso   1.000  Yb
  Yb5      1.0000 0.50000  0.50000  0.50000  Biso   1.000  Yb
  Yb6      1.0000 0.00000  0.50000  0.50000  Biso   1.000  Yb
  Yb7      1.0000 0.00000  0.00000  0.00000  Biso   1.000  Yb
  Yb8      1.0000 0.50000  0.00000  0.00000  Biso   1.000  Yb
  H1       1.0000 0.43710  0.64070  0.42490  Biso   1.000  H
  H2       1.0000 0.39350  0.70370  0.38110  Biso   1.000  H
  H3       1.0000 0.15530  0.67200  0.40660  Biso   1.000  H
  H4       1.0000 0.19900  0.60890  0.45040  Biso   1.000  H
  H5       1.0000 0.29410  0.74290  0.34420  Biso   1.000  H
  H6       1.0000 0.13440  0.73170  0.36100  Biso   1.000  H
  H7       1.0000 0.99140  0.81600  0.27270  Biso   1.000  H
  H8       1.0000 0.27240  0.79620  0.29740  Biso   1.000  H
  H9       1.0000 0.87540  0.75540  0.33740  Biso   1.000  H
  H10      1.0000 0.89660  0.78050  0.30050  Biso   1.000  H
  H11      1.0000 0.91030  0.81950  0.33360  Biso   1.000  H
  H12      1.0000 0.12840  0.86190  0.20430  Biso   1.000  H
  H13      1.0000 0.96800  0.85800  0.22180  Biso   1.000  H
  H14      1.0000 0.88540  0.90110  0.18540  Biso   1.000  H
  H15      1.0000 0.83760  0.93490  0.13110  Biso   1.000  H
  H16      1.0000 0.06910  0.92850  0.09650  Biso   1.000  H
  H17      1.0000 0.11300  0.89330  0.14880  Biso   1.000  H
  H18      1.0000 0.46330  0.35780  0.48100  Biso   1.000  H
  H19      1.0000 0.50880  0.26190  0.47260  Biso   1.000  H
  H20      1.0000 0.38590  0.21110  0.55840  Biso   1.000  H
  H21      1.0000 0.34050  0.30690  0.56680  Biso   1.000  H
  H22      1.0000 0.51390  0.16070  0.48800  Biso   1.000  H
  H23      1.0000 0.40770  0.12000  0.53380  Biso   1.000  H
  H24      1.0000 0.55060  0.07680  0.46770  Biso   1.000  H
  H25      1.0000 0.34230  0.00010  0.59800  Biso   1.000  H
  H26      1.0000 0.34950  0.95070  0.56970  Biso   1.000  H
  H27      1.0000 0.42630  0.96610  0.59310  Biso   1.000  H
  H28      1.0000 0.06290  0.35930  0.42490  Biso   1.000  H
  H29      1.0000 0.10650  0.29630  0.38110  Biso   1.000  H
  H30      1.0000 0.34470  0.32800  0.40660  Biso   1.000  H
  H31      1.0000 0.30100  0.39110  0.45040  Biso   1.000  H
  H32      1.0000 0.20590  0.25710  0.34420  Biso   1.000  H
  H33      1.0000 0.36560  0.26830  0.36100  Biso   1.000  H
  H34      1.0000 0.50860  0.18400  0.27270  Biso   1.000  H
  H35      1.0000 0.22760  0.20380  0.29740  Biso   1.000  H
  H36      1.0000 0.62460  0.24460  0.33740  Biso   1.000  H
  H37      1.0000 0.60340  0.21950  0.30050  Biso   1.000  H
  H38      1.0000 0.58970  0.18050  0.33360  Biso   1.000  H
  H39      1.0000 0.37160  0.13810  0.20430  Biso   1.000  H
  H40      1.0000 0.53200  0.14200  0.22180  Biso   1.000  H
  H41      1.0000 0.61460  0.09890  0.18540  Biso   1.000  H
  H42      1.0000 0.66240  0.06510  0.13110  Biso   1.000  H
  H43      1.0000 0.43090  0.07150  0.09650  Biso   1.000  H
  H44      1.0000 0.38700  0.10670  0.14880  Biso   1.000  H
  H45      1.0000 0.03670  0.64220  0.48100  Biso   1.000  H
  H46      1.0000 0.99120  0.73810  0.47260  Biso   1.000  H
  H47      1.0000 0.11410  0.78890  0.55840  Biso   1.000  H
  H48      1.0000 0.15950  0.69310  0.56680  Biso   1.000  H
  H49      1.0000 0.98610  0.83930  0.48800  Biso   1.000  H
  H50      1.0000 0.09230  0.88000  0.53380  Biso   1.000  H
  H51      1.0000 0.94940  0.92320  0.46770  Biso   1.000  H
  H52      1.0000 0.15770  0.99990  0.59800  Biso   1.000  H
  H53      1.0000 0.15050  0.04930  0.56970  Biso   1.000  H
  H54      1.0000 0.07370  0.03390  0.59310  Biso   1.000  H
  H55      1.0000 0.06290  0.14070  0.07510  Biso   1.000  H
  H56      1.0000 0.10650  0.20370  0.11890  Biso   1.000  H
  H57      1.0000 0.34470  0.17200  0.09340  Biso   1.000  H
  H58      1.0000 0.30100  0.10890  0.04960  Biso   1.000  H
  H59      1.0000 0.20590  0.24290  0.15580  Biso   1.000  H
  H60      1.0000 0.36560  0.23170  0.13900  Biso   1.000  H
  H61      1.0000 0.50860  0.31600  0.22730  Biso   1.000  H
  H62      1.0000 0.22760  0.29620  0.20260  Biso   1.000  H
  H63      1.0000 0.62460  0.25540  0.16260  Biso   1.000  H
  H64      1.0000 0.60340  0.28050  0.19950  Biso   1.000  H
  H65      1.0000 0.58970  0.31950  0.16640  Biso   1.000  H
  H66      1.0000 0.37160  0.36190  0.29570  Biso   1.000  H
  H67      1.0000 0.53200  0.35800  0.27820  Biso   1.000  H
  H68      1.0000 0.61460  0.40110  0.31460  Biso   1.000  H
  H69      1.0000 0.66240  0.43490  0.36890  Biso   1.000  H
  H70      1.0000 0.43090  0.42850  0.40350  Biso   1.000  H
  H71      1.0000 0.38700  0.39330  0.35120  Biso   1.000  H
  H72      1.0000 0.03670  0.85780  0.01900  Biso   1.000  H
  H73      1.0000 0.99120  0.76190  0.02740  Biso   1.000  H
  H74      1.0000 0.11410  0.71110  0.94160  Biso   1.000  H
  H75      1.0000 0.15950  0.80690  0.93320  Biso   1.000  H
  H76      1.0000 0.98610  0.66070  0.01200  Biso   1.000  H
  H77      1.0000 0.09230  0.62000  0.96620  Biso   1.000  H
  H78      1.0000 0.94940  0.57680  0.03230  Biso   1.000  H
  H79      1.0000 0.15770  0.50010  0.90200  Biso   1.000  H
  H80      1.0000 0.15050  0.45070  0.93030  Biso   1.000  H
  H81      1.0000 0.07370  0.46610  0.90690  Biso   1.000  H
  H82      1.0000 0.43710  0.85930  0.07510  Biso   1.000  H
  H83      1.0000 0.39350  0.79630  0.11890  Biso   1.000  H
  H84      1.0000 0.15530  0.82800  0.09340  Biso   1.000  H
  H85      1.0000 0.19900  0.89110  0.04960  Biso   1.000  H
  H86      1.0000 0.29410  0.75710  0.15580  Biso   1.000  H
  H87      1.0000 0.13440  0.76830  0.13900  Biso   1.000  H
  H88      1.0000 0.99140  0.68400  0.22730  Biso   1.000  H
  H89      1.0000 0.27240  0.70380  0.20260  Biso   1.000  H
  H90      1.0000 0.87540  0.74460  0.16260  Biso   1.000  H
  H91      1.0000 0.89660  0.71950  0.19950  Biso   1.000  H
  H92      1.0000 0.91030  0.68050  0.16640  Biso   1.000  H
  H93      1.0000 0.12840  0.63810  0.29570  Biso   1.000  H
  H94      1.0000 0.96800  0.64200  0.27820  Biso   1.000  H
  H95      1.0000 0.88540  0.59890  0.31460  Biso   1.000  H
  H96      1.0000 0.83760  0.56510  0.36890  Biso   1.000  H
  H97      1.0000 0.06910  0.57150  0.40350  Biso   1.000  H
  H98      1.0000 0.11300  0.60670  0.35120  Biso   1.000  H
  H99      1.0000 0.46330  0.14220  0.01900  Biso   1.000  H
  H100     1.0000 0.50880  0.23810  0.02740  Biso   1.000  H
  H101     1.0000 0.38590  0.28890  0.94160  Biso   1.000  H
  H102     1.0000 0.34050  0.19310  0.93320  Biso   1.000  H
  H103     1.0000 0.51390  0.33930  0.01200  Biso   1.000  H
  H104     1.0000 0.40770  0.38000  0.96620  Biso   1.000  H
  H105     1.0000 0.55060  0.42320  0.03230  Biso   1.000  H
  H106     1.0000 0.34230  0.49990  0.90200  Biso   1.000  H
  H107     1.0000 0.34950  0.54930  0.93030  Biso   1.000  H
  H108     1.0000 0.42630  0.53390  0.90690  Biso   1.000  H
  H109     1.0000 0.56290  0.35930  0.57510  Biso   1.000  H
  H110     1.0000 0.60650  0.29630  0.61890  Biso   1.000  H
  H111     1.0000 0.84470  0.32800  0.59340  Biso   1.000  H
  H112     1.0000 0.80100  0.39110  0.54960  Biso   1.000  H
  H113     1.0000 0.70590  0.25710  0.65580  Biso   1.000  H
  H114     1.0000 0.86560  0.26830  0.63900  Biso   1.000  H
  H115     1.0000 0.00860  0.18400  0.72730  Biso   1.000  H
  H116     1.0000 0.72760  0.20380  0.70260  Biso   1.000  H
  H117     1.0000 0.12460  0.24460  0.66260  Biso   1.000  H
  H118     1.0000 0.10340  0.21950  0.69950  Biso   1.000  H
  H119     1.0000 0.08970  0.18050  0.66640  Biso   1.000  H
  H120     1.0000 0.87160  0.13810  0.79570  Biso   1.000  H
  H121     1.0000 0.03200  0.14200  0.77820  Biso   1.000  H
  H122     1.0000 0.11460  0.09890  0.81460  Biso   1.000  H
  H123     1.0000 0.16240  0.06510  0.86890  Biso   1.000  H
  H124     1.0000 0.93090  0.07150  0.90350  Biso   1.000  H
  H125     1.0000 0.88700  0.10670  0.85120  Biso   1.000  H
  H126     1.0000 0.53670  0.64220  0.51900  Biso   1.000  H
  H127     1.0000 0.49120  0.73810  0.52740  Biso   1.000  H
  H128     1.0000 0.61410  0.78890  0.44160  Biso   1.000  H
  H129     1.0000 0.65950  0.69310  0.43320  Biso   1.000  H
  H130     1.0000 0.48610  0.83930  0.51200  Biso   1.000  H
  H131     1.0000 0.59230  0.88000  0.46620  Biso   1.000  H
  H132     1.0000 0.44940  0.92320  0.53230  Biso   1.000  H
  H133     1.0000 0.65770  0.99990  0.40200  Biso   1.000  H
  H134     1.0000 0.65050  0.04930  0.43030  Biso   1.000  H
  H135     1.0000 0.57370  0.03390  0.40690  Biso   1.000  H
  H136     1.0000 0.93710  0.64070  0.57510  Biso   1.000  H
  H137     1.0000 0.89350  0.70370  0.61890  Biso   1.000  H
  H138     1.0000 0.65530  0.67200  0.59340  Biso   1.000  H
  H139     1.0000 0.69900  0.60890  0.54960  Biso   1.000  H
  H140     1.0000 0.79410  0.74290  0.65580  Biso   1.000  H
  H141     1.0000 0.63440  0.73170  0.63900  Biso   1.000  H
  H142     1.0000 0.49140  0.81600  0.72730  Biso   1.000  H
  H143     1.0000 0.77240  0.79620  0.70260  Biso   1.000  H
  H144     1.0000 0.37540  0.75540  0.66260  Biso   1.000  H
  H145     1.0000 0.39660  0.78050  0.69950  Biso   1.000  H
  H146     1.0000 0.41030  0.81950  0.66640  Biso   1.000  H
  H147     1.0000 0.62840  0.86190  0.79570  Biso   1.000  H
  H148     1.0000 0.46800  0.85800  0.77820  Biso   1.000  H
  H149     1.0000 0.38540  0.90110  0.81460  Biso   1.000  H
  H150     1.0000 0.33760  0.93490  0.86890  Biso   1.000  H
  H151     1.0000 0.56910  0.92850  0.90350  Biso   1.000  H
  H152     1.0000 0.61300  0.89330  0.85120  Biso   1.000  H
  H153     1.0000 0.96330  0.35780  0.51900  Biso   1.000  H
  H154     1.0000 0.00880  0.26190  0.52740  Biso   1.000  H
  H155     1.0000 0.88590  0.21110  0.44160  Biso   1.000  H
  H156     1.0000 0.84050  0.30690  0.43320  Biso   1.000  H
  H157     1.0000 0.01390  0.16070  0.51200  Biso   1.000  H
  H158     1.0000 0.90770  0.12000  0.46620  Biso   1.000  H
  H159     1.0000 0.05060  0.07680  0.53230  Biso   1.000  H
  H160     1.0000 0.84230  0.00010  0.40200  Biso   1.000  H
  H161     1.0000 0.84950  0.95070  0.43030  Biso   1.000  H
  H162     1.0000 0.92630  0.96610  0.40690  Biso   1.000  H
  H163     1.0000 0.93710  0.85930  0.92490  Biso   1.000  H
  H164     1.0000 0.89350  0.79630  0.88110  Biso   1.000  H
  H165     1.0000 0.65530  0.82800  0.90660  Biso   1.000  H
  H166     1.0000 0.69900  0.89110  0.95040  Biso   1.000  H
  H167     1.0000 0.79410  0.75710  0.84420  Biso   1.000  H
  H168     1.0000 0.63440  0.76830  0.86100  Biso   1.000  H
  H169     1.0000 0.49140  0.68400  0.77270  Biso   1.000  H
  H170     1.0000 0.77240  0.70380  0.79740  Biso   1.000  H
  H171     1.0000 0.37540  0.74460  0.83740  Biso   1.000  H
  H172     1.0000 0.39660  0.71950  0.80050  Biso   1.000  H
  H173     1.0000 0.41030  0.68050  0.83360  Biso   1.000  H
  H174     1.0000 0.62840  0.63810  0.70430  Biso   1.000  H
  H175     1.0000 0.46800  0.64200  0.72180  Biso   1.000  H
  H176     1.0000 0.38540  0.59890  0.68540  Biso   1.000  H
  H177     1.0000 0.33760  0.56510  0.63110  Biso   1.000  H
  H178     1.0000 0.56910  0.57150  0.59650  Biso   1.000  H
  H179     1.0000 0.61300  0.60670  0.64880  Biso   1.000  H
  H180     1.0000 0.96330  0.14220  0.98100  Biso   1.000  H
  H181     1.0000 0.00880  0.23810  0.97260  Biso   1.000  H
  H182     1.0000 0.88590  0.28890  0.05840  Biso   1.000  H
  H183     1.0000 0.84050  0.19310  0.06680  Biso   1.000  H
  H184     1.0000 0.01390  0.33930  0.98800  Biso   1.000  H
  H185     1.0000 0.90770  0.38000  0.03380  Biso   1.000  H
  H186     1.0000 0.05060  0.42320  0.96770  Biso   1.000  H
  H187     1.0000 0.84230  0.49990  0.09800  Biso   1.000  H
  H188     1.0000 0.84950  0.54930  0.06970  Biso   1.000  H
  H189     1.0000 0.92630  0.53390  0.09310  Biso   1.000  H
  H190     1.0000 0.56290  0.14070  0.92490  Biso   1.000  H
  H191     1.0000 0.60650  0.20370  0.88110  Biso   1.000  H
  H192     1.0000 0.84470  0.17200  0.90660  Biso   1.000  H
  H193     1.0000 0.80100  0.10890  0.95040  Biso   1.000  H
  H194     1.0000 0.70590  0.24290  0.84420  Biso   1.000  H
  H195     1.0000 0.86560  0.23170  0.86100  Biso   1.000  H
  H196     1.0000 0.00860  0.31600  0.77270  Biso   1.000  H
  H197     1.0000 0.72760  0.29620  0.79740  Biso   1.000  H
  H198     1.0000 0.12460  0.25540  0.83740  Biso   1.000  H
  H199     1.0000 0.10340  0.28050  0.80050  Biso   1.000  H
  H200     1.0000 0.08970  0.31950  0.83360  Biso   1.000  H
  H201     1.0000 0.87160  0.36190  0.70430  Biso   1.000  H
  H202     1.0000 0.03200  0.35800  0.72180  Biso   1.000  H
  H203     1.0000 0.11460  0.40110  0.68540  Biso   1.000  H
  H204     1.0000 0.16240  0.43490  0.63110  Biso   1.000  H
  H205     1.0000 0.93090  0.42850  0.59650  Biso   1.000  H
  H206     1.0000 0.88700  0.39330  0.64880  Biso   1.000  H
  H207     1.0000 0.53670  0.85780  0.98100  Biso   1.000  H
  H208     1.0000 0.49120  0.76190  0.97260  Biso   1.000  H
  H209     1.0000 0.61410  0.71110  0.05840  Biso   1.000  H
  H210     1.0000 0.65950  0.80690  0.06680  Biso   1.000  H
  H211     1.0000 0.48610  0.66070  0.98800  Biso   1.000  H
  H212     1.0000 0.59230  0.62000  0.03380  Biso   1.000  H
  H213     1.0000 0.44940  0.57680  0.96770  Biso   1.000  H
  H214     1.0000 0.65770  0.50010  0.09800  Biso   1.000  H
  H215     1.0000 0.65050  0.45070  0.06970  Biso   1.000  H
  H216     1.0000 0.57370  0.46610  0.09310  Biso   1.000  H
  C1       1.0000 0.34760  0.57560  0.46952  Biso   1.000  C
  C2       1.0000 0.32240  0.61850  0.44200  Biso   1.000  C
  C3       1.0000 0.38060  0.64690  0.42120  Biso   1.000  C
  C4       1.0000 0.35450  0.68470  0.39500  Biso   1.000  C
  C5       1.0000 0.27010  0.69410  0.38950  Biso   1.000  C
  C6       1.0000 0.21180  0.66570  0.41030  Biso   1.000  C
  C7       1.0000 0.23800  0.62790  0.43650  Biso   1.000  C
  C8       1.0000 0.24940  0.72980  0.35740  Biso   1.000  C
  C9       1.0000 0.17870  0.74330  0.34700  Biso   1.000  C
  C10      1.0000 0.15710  0.77600  0.31470  Biso   1.000  C
  C11      1.0000 0.07290  0.78200  0.30730  Biso   1.000  C
  C12      1.0000 0.04770  0.81200  0.27760  Biso   1.000  C
  C13      1.0000 0.10670  0.83620  0.25540  Biso   1.000  C
  C14      1.0000 0.19090  0.83020  0.26280  Biso   1.000  C
  C15      1.0000 0.21610  0.80020  0.29250  Biso   1.000  C
  C16      1.0000 0.91270  0.78020  0.32450  Biso   1.000  C
  C17      1.0000 0.08450  0.85670  0.21970  Biso   1.000  C
  C18      1.0000 0.01450  0.86740  0.20860  Biso   1.000  C
  C19      1.0000 0.00400  0.89590  0.17320  Biso   1.000  C
  C20      1.0000 0.92320  0.90680  0.16740  Biso   1.000  C
  C21      1.0000 0.89370  0.92680  0.13450  Biso   1.000  C
  C22      1.0000 0.95050  0.93380  0.10789  Biso   1.000  C
  C23      1.0000 0.03050  0.92260  0.11410  Biso   1.000  C
  C24      1.0000 0.05710  0.90260  0.14580  Biso   1.000  C
  C25      1.0000 0.91850  0.95350  0.07321  Biso   1.000  C
  C26      1.0000 0.36380  0.40160  0.52909  Biso   1.000  C
  C27      1.0000 0.39740  0.34190  0.52474  Biso   1.000  C
  C28      1.0000 0.44780  0.32840  0.49650  Biso   1.000  C
  C29      1.0000 0.47510  0.27100  0.49150  Biso   1.000  C
  C30      1.0000 0.45190  0.22700  0.51460  Biso   1.000  C
  C31      1.0000 0.40150  0.24050  0.54290  Biso   1.000  C
  C32      1.0000 0.37420  0.29790  0.54792  Biso   1.000  C
  C33      1.0000 0.47440  0.16430  0.50550  Biso   1.000  C
  C34      1.0000 0.44950  0.11740  0.51720  Biso   1.000  C
  C35      1.0000 0.47750  0.05680  0.50830  Biso   1.000  C
  C36      1.0000 0.52840  0.04570  0.48050  Biso   1.000  C
  C37      1.0000 0.45360  0.01120  0.52850  Biso   1.000  C
  C38      1.0000 0.37900  0.98190  0.58130  Biso   1.000  C
  C39      1.0000 0.15240  0.42440  0.46952  Biso   1.000  C
  C40      1.0000 0.17760  0.38150  0.44200  Biso   1.000  C
  C41      1.0000 0.11940  0.35310  0.42120  Biso   1.000  C
  C42      1.0000 0.14550  0.31530  0.39500  Biso   1.000  C
  C43      1.0000 0.22990  0.30590  0.38950  Biso   1.000  C
  C44      1.0000 0.28820  0.33430  0.41030  Biso   1.000  C
  C45      1.0000 0.26200  0.37210  0.43650  Biso   1.000  C
  C46      1.0000 0.25060  0.27020  0.35740  Biso   1.000  C
  C47      1.0000 0.32130  0.25670  0.34700  Biso   1.000  C
  C48      1.0000 0.34290  0.22400  0.31470  Biso   1.000  C
  C49      1.0000 0.42710  0.21800  0.30730  Biso   1.000  C
  C50      1.0000 0.45230  0.18800  0.27760  Biso   1.000  C
  C51      1.0000 0.39330  0.16380  0.25540  Biso   1.000  C
  C52      1.0000 0.30910  0.16980  0.26280  Biso   1.000  C
  C53      1.0000 0.28390  0.19980  0.29250  Biso   1.000  C
  C54      1.0000 0.58730  0.21980  0.32450  Biso   1.000  C
  C55      1.0000 0.41550  0.14330  0.21970  Biso   1.000  C
  C56      1.0000 0.48550  0.13260  0.20860  Biso   1.000  C
  C57      1.0000 0.49600  0.10410  0.17320  Biso   1.000  C
  C58      1.0000 0.57680  0.09320  0.16740  Biso   1.000  C
  C59      1.0000 0.60630  0.07320  0.13450  Biso   1.000  C
  C60      1.0000 0.54950  0.06620  0.10789  Biso   1.000  C
  C61      1.0000 0.46950  0.07740  0.11410  Biso   1.000  C
  C62      1.0000 0.44290  0.09740  0.14580  Biso   1.000  C
  C63      1.0000 0.58150  0.04650  0.07321  Biso   1.000  C
  C64      1.0000 0.13620  0.59840  0.52909  Biso   1.000  C
  C65      1.0000 0.10260  0.65810  0.52474  Biso   1.000  C
  C66      1.0000 0.05220  0.67160  0.49650  Biso   1.000  C
  C67      1.0000 0.02490  0.72900  0.49150  Biso   1.000  C
  C68      1.0000 0.04810  0.77300  0.51460  Biso   1.000  C
  C69      1.0000 0.09850  0.75950  0.54290  Biso   1.000  C
  C70      1.0000 0.12580  0.70210  0.54792  Biso   1.000  C
  C71      1.0000 0.02560  0.83570  0.50550  Biso   1.000  C
  C72      1.0000 0.05050  0.88260  0.51720  Biso   1.000  C
  C73      1.0000 0.02250  0.94320  0.50830  Biso   1.000  C
  C74      1.0000 0.97160  0.95430  0.48050  Biso   1.000  C
  C75      1.0000 0.04640  0.98880  0.52850  Biso   1.000  C
  C76      1.0000 0.12100  0.01810  0.58130  Biso   1.000  C
  C77      1.0000 0.15240  0.07560  0.03048  Biso   1.000  C
  C78      1.0000 0.17760  0.11850  0.05800  Biso   1.000  C
  C79      1.0000 0.11940  0.14690  0.07880  Biso   1.000  C
  C80      1.0000 0.14550  0.18470  0.10500  Biso   1.000  C
  C81      1.0000 0.22990  0.19410  0.11050  Biso   1.000  C
  C82      1.0000 0.28820  0.16570  0.08970  Biso   1.000  C
  C83      1.0000 0.26200  0.12790  0.06350  Biso   1.000  C
  C84      1.0000 0.25060  0.22980  0.14260  Biso   1.000  C
  C85      1.0000 0.32130  0.24330  0.15300  Biso   1.000  C
  C86      1.0000 0.34290  0.27600  0.18530  Biso   1.000  C
  C87      1.0000 0.42710  0.28200  0.19270  Biso   1.000  C
  C88      1.0000 0.45230  0.31200  0.22240  Biso   1.000  C
  C89      1.0000 0.39330  0.33620  0.24460  Biso   1.000  C
  C90      1.0000 0.30910  0.33020  0.23720  Biso   1.000  C
  C91      1.0000 0.28390  0.30020  0.20750  Biso   1.000  C
  C92      1.0000 0.58730  0.28020  0.17550  Biso   1.000  C
  C93      1.0000 0.41550  0.35670  0.28030  Biso   1.000  C
  C94      1.0000 0.48550  0.36740  0.29140  Biso   1.000  C
  C95      1.0000 0.49600  0.39590  0.32680  Biso   1.000  C
  C96      1.0000 0.57680  0.40680  0.33260  Biso   1.000  C
  C97      1.0000 0.60630  0.42680  0.36550  Biso   1.000  C
  C98      1.0000 0.54950  0.43380  0.39211  Biso   1.000  C
  C99      1.0000 0.46950  0.42260  0.38590  Biso   1.000  C
  C100     1.0000 0.44290  0.40260  0.35420  Biso   1.000  C
  C101     1.0000 0.58150  0.45350  0.42679  Biso   1.000  C
  C102     1.0000 0.13620  0.90160  0.97091  Biso   1.000  C
  C103     1.0000 0.10260  0.84190  0.97526  Biso   1.000  C
  C104     1.0000 0.05220  0.82840  0.00350  Biso   1.000  C
  C105     1.0000 0.02490  0.77100  0.00850  Biso   1.000  C
  C106     1.0000 0.04810  0.72700  0.98540  Biso   1.000  C
  C107     1.0000 0.09850  0.74050  0.95710  Biso   1.000  C
  C108     1.0000 0.12580  0.79790  0.95208  Biso   1.000  C
  C109     1.0000 0.02560  0.66430  0.99450  Biso   1.000  C
  C110     1.0000 0.05050  0.61740  0.98280  Biso   1.000  C
  C111     1.0000 0.02250  0.55680  0.99170  Biso   1.000  C
  C112     1.0000 0.97160  0.54570  0.01950  Biso   1.000  C
  C113     1.0000 0.04640  0.51120  0.97150  Biso   1.000  C
  C114     1.0000 0.12100  0.48190  0.91870  Biso   1.000  C
  C115     1.0000 0.34760  0.92440  0.03048  Biso   1.000  C
  C116     1.0000 0.32240  0.88150  0.05800  Biso   1.000  C
  C117     1.0000 0.38060  0.85310  0.07880  Biso   1.000  C
  C118     1.0000 0.35450  0.81530  0.10500  Biso   1.000  C
  C119     1.0000 0.27010  0.80590  0.11050  Biso   1.000  C
  C120     1.0000 0.21180  0.83430  0.08970  Biso   1.000  C
  C121     1.0000 0.23800  0.87210  0.06350  Biso   1.000  C
  C122     1.0000 0.24940  0.77020  0.14260  Biso   1.000  C
  C123     1.0000 0.17870  0.75670  0.15300  Biso   1.000  C
  C124     1.0000 0.15710  0.72400  0.18530  Biso   1.000  C
  C125     1.0000 0.07290  0.71800  0.19270  Biso   1.000  C
  C126     1.0000 0.04770  0.68800  0.22240  Biso   1.000  C
  C127     1.0000 0.10670  0.66380  0.24460  Biso   1.000  C
  C128     1.0000 0.19090  0.66980  0.23720  Biso   1.000  C
  C129     1.0000 0.21610  0.69980  0.20750  Biso   1.000  C
  C130     1.0000 0.91270  0.71980  0.17550  Biso   1.000  C
  C131     1.0000 0.08450  0.64330  0.28030  Biso   1.000  C
  C132     1.0000 0.01450  0.63260  0.29140  Biso   1.000  C
  C133     1.0000 0.00400  0.60410  0.32680  Biso   1.000  C
  C134     1.0000 0.92320  0.59320  0.33260  Biso   1.000  C
  C135     1.0000 0.89370  0.57320  0.36550  Biso   1.000  C
  C136     1.0000 0.95050  0.56620  0.39211  Biso   1.000  C
  C137     1.0000 0.03050  0.57740  0.38590  Biso   1.000  C
  C138     1.0000 0.05710  0.59740  0.35420  Biso   1.000  C
  C139     1.0000 0.91850  0.54650  0.42679  Biso   1.000  C
  C140     1.0000 0.36380  0.09840  0.97091  Biso   1.000  C
  C141     1.0000 0.39740  0.15810  0.97526  Biso   1.000  C
  C142     1.0000 0.44780  0.17160  0.00350  Biso   1.000  C
  C143     1.0000 0.47510  0.22900  0.00850  Biso   1.000  C
  C144     1.0000 0.45190  0.27300  0.98540  Biso   1.000  C
  C145     1.0000 0.40150  0.25950  0.95710  Biso   1.000  C
  C146     1.0000 0.37420  0.20210  0.95208  Biso   1.000  C
  C147     1.0000 0.47440  0.33570  0.99450  Biso   1.000  C
  C148     1.0000 0.44950  0.38260  0.98280  Biso   1.000  C
  C149     1.0000 0.47750  0.44320  0.99170  Biso   1.000  C
  C150     1.0000 0.52840  0.45430  0.01950  Biso   1.000  C
  C151     1.0000 0.45360  0.48880  0.97150  Biso   1.000  C
  C152     1.0000 0.37900  0.51810  0.91870  Biso   1.000  C
  C153     1.0000 0.65240  0.42440  0.53048  Biso   1.000  C
  C154     1.0000 0.67760  0.38150  0.55800  Biso   1.000  C
  C155     1.0000 0.61940  0.35310  0.57880  Biso   1.000  C
  C156     1.0000 0.64550  0.31530  0.60500  Biso   1.000  C
  C157     1.0000 0.72990  0.30590  0.61050  Biso   1.000  C
  C158     1.0000 0.78820  0.33430  0.58970  Biso   1.000  C
  C159     1.0000 0.76200  0.37210  0.56350  Biso   1.000  C
  C160     1.0000 0.75060  0.27020  0.64260  Biso   1.000  C
  C161     1.0000 0.82130  0.25670  0.65300  Biso   1.000  C
  C162     1.0000 0.84290  0.22400  0.68530  Biso   1.000  C
  C163     1.0000 0.92710  0.21800  0.69270  Biso   1.000  C
  C164     1.0000 0.95230  0.18800  0.72240  Biso   1.000  C
  C165     1.0000 0.89330  0.16380  0.74460  Biso   1.000  C
  C166     1.0000 0.80910  0.16980  0.73720  Biso   1.000  C
  C167     1.0000 0.78390  0.19980  0.70750  Biso   1.000  C
  C168     1.0000 0.08730  0.21980  0.67550  Biso   1.000  C
  C169     1.0000 0.91550  0.14330  0.78030  Biso   1.000  C
  C170     1.0000 0.98550  0.13260  0.79140  Biso   1.000  C
  C171     1.0000 0.99600  0.10410  0.82680  Biso   1.000  C
  C172     1.0000 0.07680  0.09320  0.83260  Biso   1.000  C
  C173     1.0000 0.10630  0.07320  0.86550  Biso   1.000  C
  C174     1.0000 0.04950  0.06620  0.89211  Biso   1.000  C
  C175     1.0000 0.96950  0.07740  0.88590  Biso   1.000  C
  C176     1.0000 0.94290  0.09740  0.85420  Biso   1.000  C
  C177     1.0000 0.08150  0.04650  0.92679  Biso   1.000  C
  C178     1.0000 0.63620  0.59840  0.47091  Biso   1.000  C
  C179     1.0000 0.60260  0.65810  0.47526  Biso   1.000  C
  C180     1.0000 0.55220  0.67160  0.50350  Biso   1.000  C
  C181     1.0000 0.52490  0.72900  0.50850  Biso   1.000  C
  C182     1.0000 0.54810  0.77300  0.48540  Biso   1.000  C
  C183     1.0000 0.59850  0.75950  0.45710  Biso   1.000  C
  C184     1.0000 0.62580  0.70210  0.45208  Biso   1.000  C
  C185     1.0000 0.52560  0.83570  0.49450  Biso   1.000  C
  C186     1.0000 0.55050  0.88260  0.48280  Biso   1.000  C
  C187     1.0000 0.52250  0.94320  0.49170  Biso   1.000  C
  C188     1.0000 0.47160  0.95430  0.51950  Biso   1.000  C
  C189     1.0000 0.54640  0.98880  0.47150  Biso   1.000  C
  C190     1.0000 0.62100  0.01810  0.41870  Biso   1.000  C
  C191     1.0000 0.84760  0.57560  0.53048  Biso   1.000  C
  C192     1.0000 0.82240  0.61850  0.55800  Biso   1.000  C
  C193     1.0000 0.88060  0.64690  0.57880  Biso   1.000  C
  C194     1.0000 0.85450  0.68470  0.60500  Biso   1.000  C
  C195     1.0000 0.77010  0.69410  0.61050  Biso   1.000  C
  C196     1.0000 0.71180  0.66570  0.58970  Biso   1.000  C
  C197     1.0000 0.73800  0.62790  0.56350  Biso   1.000  C
  C198     1.0000 0.74940  0.72980  0.64260  Biso   1.000  C
  C199     1.0000 0.67870  0.74330  0.65300  Biso   1.000  C
  C200     1.0000 0.65710  0.77600  0.68530  Biso   1.000  C
  C201     1.0000 0.57290  0.78200  0.69270  Biso   1.000  C
  C202     1.0000 0.54770  0.81200  0.72240  Biso   1.000  C
  C203     1.0000 0.60670  0.83620  0.74460  Biso   1.000  C
  C204     1.0000 0.69090  0.83020  0.73720  Biso   1.000  C
  C205     1.0000 0.71610  0.80020  0.70750  Biso   1.000  C
  C206     1.0000 0.41270  0.78020  0.67550  Biso   1.000  C
  C207     1.0000 0.58450  0.85670  0.78030  Biso   1.000  C
  C208     1.0000 0.51450  0.86740  0.79140  Biso   1.000  C
  C209     1.0000 0.50400  0.89590  0.82680  Biso   1.000  C
  C210     1.0000 0.42320  0.90680  0.83260  Biso   1.000  C
  C211     1.0000 0.39370  0.92680  0.86550  Biso   1.000  C
  C212     1.0000 0.45050  0.93380  0.89211  Biso   1.000  C
  C213     1.0000 0.53050  0.92260  0.88590  Biso   1.000  C
  C214     1.0000 0.55710  0.90260  0.85420  Biso   1.000  C
  C215     1.0000 0.41850  0.95350  0.92679  Biso   1.000  C
  C216     1.0000 0.86380  0.40160  0.47091  Biso   1.000  C
  C217     1.0000 0.89740  0.34190  0.47526  Biso   1.000  C
  C218     1.0000 0.94780  0.32840  0.50350  Biso   1.000  C
  C219     1.0000 0.97510  0.27100  0.50850  Biso   1.000  C
  C220     1.0000 0.95190  0.22700  0.48540  Biso   1.000  C
  C221     1.0000 0.90150  0.24050  0.45710  Biso   1.000  C
  C222     1.0000 0.87420  0.29790  0.45208  Biso   1.000  C
  C223     1.0000 0.97440  0.16430  0.49450  Biso   1.000  C
  C224     1.0000 0.94950  0.11740  0.48280  Biso   1.000  C
  C225     1.0000 0.97750  0.05680  0.49170  Biso   1.000  C
  C226     1.0000 0.02840  0.04570  0.51950  Biso   1.000  C
  C227     1.0000 0.95360  0.01120  0.47150  Biso   1.000  C
  C228     1.0000 0.87900  0.98190  0.41870  Biso   1.000  C
  C229     1.0000 0.84760  0.92440  0.96952  Biso   1.000  C
  C230     1.0000 0.82240  0.88150  0.94200  Biso   1.000  C
  C231     1.0000 0.88060  0.85310  0.92120  Biso   1.000  C
  C232     1.0000 0.85450  0.81530  0.89500  Biso   1.000  C
  C233     1.0000 0.77010  0.80590  0.88950  Biso   1.000  C
  C234     1.0000 0.71180  0.83430  0.91030  Biso   1.000  C
  C235     1.0000 0.73800  0.87210  0.93650  Biso   1.000  C
  C236     1.0000 0.74940  0.77020  0.85740  Biso   1.000  C
  C237     1.0000 0.67870  0.75670  0.84700  Biso   1.000  C
  C238     1.0000 0.65710  0.72400  0.81470  Biso   1.000  C
  C239     1.0000 0.57290  0.71800  0.80730  Biso   1.000  C
  C240     1.0000 0.54770  0.68800  0.77760  Biso   1.000  C
  C241     1.0000 0.60670  0.66380  0.75540  Biso   1.000  C
  C242     1.0000 0.69090  0.66980  0.76280  Biso   1.000  C
  C243     1.0000 0.71610  0.69980  0.79250  Biso   1.000  C
  C244     1.0000 0.41270  0.71980  0.82450  Biso   1.000  C
  C245     1.0000 0.58450  0.64330  0.71970  Biso   1.000  C
  C246     1.0000 0.51450  0.63260  0.70860  Biso   1.000  C
  C247     1.0000 0.50400  0.60410  0.67320  Biso   1.000  C
  C248     1.0000 0.42320  0.59320  0.66740  Biso   1.000  C
  C249     1.0000 0.39370  0.57320  0.63450  Biso   1.000  C
  C250     1.0000 0.45050  0.56620  0.60789  Biso   1.000  C
  C251     1.0000 0.53050  0.57740  0.61410  Biso   1.000  C
  C252     1.0000 0.55710  0.59740  0.64580  Biso   1.000  C
  C253     1.0000 0.41850  0.54650  0.57321  Biso   1.000  C
  C254     1.0000 0.86380  0.09840  0.02909  Biso   1.000  C
  C255     1.0000 0.89740  0.15810  0.02474  Biso   1.000  C
  C256     1.0000 0.94780  0.17160  0.99650  Biso   1.000  C
  C257     1.0000 0.97510  0.22900  0.99150  Biso   1.000  C
  C258     1.0000 0.95190  0.27300  0.01460  Biso   1.000  C
  C259     1.0000 0.90150  0.25950  0.04290  Biso   1.000  C
  C260     1.0000 0.87420  0.20210  0.04792  Biso   1.000  C
  C261     1.0000 0.97440  0.33570  0.00550  Biso   1.000  C
  C262     1.0000 0.94950  0.38260  0.01720  Biso   1.000  C
  C263     1.0000 0.97750  0.44320  0.00830  Biso   1.000  C
  C264     1.0000 0.02840  0.45430  0.98050  Biso   1.000  C
  C265     1.0000 0.95360  0.48880  0.02850  Biso   1.000  C
  C266     1.0000 0.87900  0.51810  0.08130  Biso   1.000  C
  C267     1.0000 0.65240  0.07560  0.96952  Biso   1.000  C
  C268     1.0000 0.67760  0.11850  0.94200  Biso   1.000  C
  C269     1.0000 0.61940  0.14690  0.92120  Biso   1.000  C
  C270     1.0000 0.64550  0.18470  0.89500  Biso   1.000  C
  C271     1.0000 0.72990  0.19410  0.88950  Biso   1.000  C
  C272     1.0000 0.78820  0.16570  0.91030  Biso   1.000  C
  C273     1.0000 0.76200  0.12790  0.93650  Biso   1.000  C
  C274     1.0000 0.75060  0.22980  0.85740  Biso   1.000  C
  C275     1.0000 0.82130  0.24330  0.84700  Biso   1.000  C
  C276     1.0000 0.84290  0.27600  0.81470  Biso   1.000  C
  C277     1.0000 0.92710  0.28200  0.80730  Biso   1.000  C
  C278     1.0000 0.95230  0.31200  0.77760  Biso   1.000  C
  C279     1.0000 0.89330  0.33620  0.75540  Biso   1.000  C
  C280     1.0000 0.80910  0.33020  0.76280  Biso   1.000  C
  C281     1.0000 0.78390  0.30020  0.79250  Biso   1.000  C
  C282     1.0000 0.08730  0.28020  0.82450  Biso   1.000  C
  C283     1.0000 0.91550  0.35670  0.71970  Biso   1.000  C
  C284     1.0000 0.98550  0.36740  0.70860  Biso   1.000  C
  C285     1.0000 0.99600  0.39590  0.67320  Biso   1.000  C
  C286     1.0000 0.07680  0.40680  0.66740  Biso   1.000  C
  C287     1.0000 0.10630  0.42680  0.63450  Biso   1.000  C
  C288     1.0000 0.04950  0.43380  0.60789  Biso   1.000  C
  C289     1.0000 0.96950  0.42260  0.61410  Biso   1.000  C
  C290     1.0000 0.94290  0.40260  0.64580  Biso   1.000  C
  C291     1.0000 0.08150  0.45350  0.57321  Biso   1.000  C
  C292     1.0000 0.63620  0.90160  0.02909  Biso   1.000  C
  C293     1.0000 0.60260  0.84190  0.02474  Biso   1.000  C
  C294     1.0000 0.55220  0.82840  0.99650  Biso   1.000  C
  C295     1.0000 0.52490  0.77100  0.99150  Biso   1.000  C
  C296     1.0000 0.54810  0.72700  0.01460  Biso   1.000  C
  C297     1.0000 0.59850  0.74050  0.04290  Biso   1.000  C
  C298     1.0000 0.62580  0.79790  0.04792  Biso   1.000  C
  C299     1.0000 0.52560  0.66430  0.00550  Biso   1.000  C
  C300     1.0000 0.55050  0.61740  0.01720  Biso   1.000  C
  C301     1.0000 0.52250  0.55680  0.00830  Biso   1.000  C
  C302     1.0000 0.47160  0.54570  0.98050  Biso   1.000  C
  C303     1.0000 0.54640  0.51120  0.02850  Biso   1.000  C
  C304     1.0000 0.62100  0.48190  0.08130  Biso   1.000  C
  O1       1.0000 0.00730  0.75500  0.32800  Biso   1.000  O
  O2       1.0000 0.25290  0.85420  0.24120  Biso   1.000  O
  O3       1.0000 0.40570  0.02630  0.55560  Biso   1.000  O
  O4       1.0000 0.29650  0.55830  0.49106  Biso   1.000  O
  O5       1.0000 0.42350  0.56090  0.46973  Biso   1.000  O
  O6       1.0000 0.84400  0.96720  0.06993  Biso   1.000  O
  O7       1.0000 0.97160  0.95450  0.04871  Biso   1.000  O
  O8       1.0000 0.38860  0.44460  0.51021  Biso   1.000  O
  O9       1.0000 0.30600  0.40990  0.55051  Biso   1.000  O
  O10      1.0000 0.49270  0.24500  0.32800  Biso   1.000  O
  O11      1.0000 0.24710  0.14580  0.24120  Biso   1.000  O
  O12      1.0000 0.09430  0.97370  0.55560  Biso   1.000  O
  O13      1.0000 0.20350  0.44170  0.49106  Biso   1.000  O
  O14      1.0000 0.07650  0.43910  0.46973  Biso   1.000  O
  O15      1.0000 0.65600  0.03280  0.06993  Biso   1.000  O
  O16      1.0000 0.52840  0.04550  0.04871  Biso   1.000  O
  O17      1.0000 0.11140  0.55540  0.51021  Biso   1.000  O
  O18      1.0000 0.19400  0.59010  0.55051  Biso   1.000  O
  O19      1.0000 0.49270  0.25500  0.17200  Biso   1.000  O
  O20      1.0000 0.24710  0.35420  0.25880  Biso   1.000  O
  O21      1.0000 0.09430  0.52630  0.94440  Biso   1.000  O
  O22      1.0000 0.20350  0.05830  0.00894  Biso   1.000  O
  O23      1.0000 0.07650  0.06090  0.03027  Biso   1.000  O
  O24      1.0000 0.65600  0.46720  0.43007  Biso   1.000  O
  O25      1.0000 0.52840  0.45450  0.45129  Biso   1.000  O
  O26      1.0000 0.11140  0.94460  0.98979  Biso   1.000  O
  O27      1.0000 0.19400  0.90990  0.94949  Biso   1.000  O
  O28      1.0000 0.00730  0.74500  0.17200  Biso   1.000  O
  O29      1.0000 0.25290  0.64580  0.25880  Biso   1.000  O
  O30      1.0000 0.40570  0.47370  0.94440  Biso   1.000  O
  O31      1.0000 0.29650  0.94170  0.00894  Biso   1.000  O
  O32      1.0000 0.42350  0.93910  0.03027  Biso   1.000  O
  O33      1.0000 0.84400  0.53280  0.43007  Biso   1.000  O
  O34      1.0000 0.97160  0.54550  0.45129  Biso   1.000  O
  O35      1.0000 0.38860  0.05540  0.98979  Biso   1.000  O
  O36      1.0000 0.30600  0.09010  0.94949  Biso   1.000  O
  O37      1.0000 0.99270  0.24500  0.67200  Biso   1.000  O
  O38      1.0000 0.74710  0.14580  0.75880  Biso   1.000  O
  O39      1.0000 0.59430  0.97370  0.44440  Biso   1.000  O
  O40      1.0000 0.70350  0.44170  0.50894  Biso   1.000  O
  O41      1.0000 0.57650  0.43910  0.53027  Biso   1.000  O
  O42      1.0000 0.15600  0.03280  0.93007  Biso   1.000  O
  O43      1.0000 0.02840  0.04550  0.95129  Biso   1.000  O
  O44      1.0000 0.61140  0.55540  0.48979  Biso   1.000  O
  O45      1.0000 0.69400  0.59010  0.44949  Biso   1.000  O
  O46      1.0000 0.50730  0.75500  0.67200  Biso   1.000  O
  O47      1.0000 0.75290  0.85420  0.75880  Biso   1.000  O
  O48      1.0000 0.90570  0.02630  0.44440  Biso   1.000  O
  O49      1.0000 0.79650  0.55830  0.50894  Biso   1.000  O
  O50      1.0000 0.92350  0.56090  0.53027  Biso   1.000  O
  O51      1.0000 0.34400  0.96720  0.93007  Biso   1.000  O
  O52      1.0000 0.47160  0.95450  0.95129  Biso   1.000  O
  O53      1.0000 0.88860  0.44460  0.48979  Biso   1.000  O
  O54      1.0000 0.80600  0.40990  0.44949  Biso   1.000  O
  O55      1.0000 0.50730  0.74500  0.82800  Biso   1.000  O
  O56      1.0000 0.75290  0.64580  0.74120  Biso   1.000  O
  O57      1.0000 0.90570  0.47370  0.05560  Biso   1.000  O
  O58      1.0000 0.79650  0.94170  0.99106  Biso   1.000  O
  O59      1.0000 0.92350  0.93910  0.96973  Biso   1.000  O
  O60      1.0000 0.34400  0.53280  0.56993  Biso   1.000  O
  O61      1.0000 0.47160  0.54550  0.54871  Biso   1.000  O
  O62      1.0000 0.88860  0.05540  0.01021  Biso   1.000  O
  O63      1.0000 0.80600  0.09010  0.05051  Biso   1.000  O
  O64      1.0000 0.99270  0.25500  0.82800  Biso   1.000  O
  O65      1.0000 0.74710  0.35420  0.74120  Biso   1.000  O
  O66      1.0000 0.59430  0.52630  0.05560  Biso   1.000  O
  O67      1.0000 0.70350  0.05830  0.99106  Biso   1.000  O
  O68      1.0000 0.57650  0.06090  0.96973  Biso   1.000  O
  O69      1.0000 0.15600  0.46720  0.56993  Biso   1.000  O
  O70      1.0000 0.02840  0.45450  0.54871  Biso   1.000  O
  O71      1.0000 0.61140  0.94460  0.01021  Biso   1.000  O
  O72      1.0000 0.69400  0.90990  0.05051  Biso   1.000  O
