data_GUPBUP_clean5b
_audit_creation_date              2015-05-18
_audit_creation_method            'Materials Studio'
_symmetry_space_group_name_H-M    'P1'
_symmetry_Int_Tables_number       1
_symmetry_cell_setting            triclinic
loop_
_symmetry_equiv_pos_as_xyz
  x,y,z
_cell_length_a                    15.6929
_cell_length_b                    15.6929
_cell_length_c                    15.6929
_cell_angle_alpha                 109.4710
_cell_angle_beta                  109.4710
_cell_angle_gamma                 109.4710
loop_
_atom_site_label
_atom_site_type_symbol
_atom_site_fract_x
_atom_site_fract_y
_atom_site_fract_z
_atom_site_U_iso_or_equiv
_atom_site_adp_type
_atom_site_occupancy
Cd1    Cd    0.75000   0.50000   0.25000   0.01267  Uiso   1.00
Cd2    Cd    0.25000   0.50000   0.75000   0.01267  Uiso   1.00
Cd3    Cd    0.25000   0.75000   0.50000   0.01267  Uiso   1.00
Cd4    Cd    0.75000   0.25000   0.50000   0.01267  Uiso   1.00
Cd5    Cd    0.50000   0.75000   0.25000   0.01267  Uiso   1.00
Cd6    Cd    0.50000   0.25000   0.75000   0.01267  Uiso   1.00
H1     H     0.58496   0.48887   0.35744   0.01267  Uiso   1.00
H2     H     0.13143   0.22752   0.64256   0.01267  Uiso   1.00
H3     H     0.86857   0.51113   0.09608   0.01267  Uiso   1.00
H4     H     0.41504   0.77248   0.90391   0.01267  Uiso   1.00
H5     H     0.09608   0.86857   0.51113   0.01267  Uiso   1.00
H6     H     0.90391   0.41504   0.77248   0.01267  Uiso   1.00
H7     H     0.35744   0.58496   0.48887   0.01267  Uiso   1.00
H8     H     0.64256   0.13143   0.22752   0.01267  Uiso   1.00
H9     H     0.22752   0.64256   0.13143   0.01267  Uiso   1.00
H10    H     0.48887   0.35744   0.58496   0.01267  Uiso   1.00
H11    H     0.77248   0.90391   0.41504   0.01267  Uiso   1.00
H12    H     0.51113   0.09608   0.86857   0.01267  Uiso   1.00
H13    H     0.22752   0.13143   0.64256   0.01267  Uiso   1.00
H14    H     0.48887   0.58496   0.35744   0.01267  Uiso   1.00
H15    H     0.77248   0.41504   0.90391   0.01267  Uiso   1.00
H16    H     0.51113   0.86857   0.09608   0.01267  Uiso   1.00
H17    H     0.58496   0.35744   0.48887   0.01267  Uiso   1.00
H18    H     0.13143   0.64256   0.22752   0.01267  Uiso   1.00
H19    H     0.86857   0.09608   0.51113   0.01267  Uiso   1.00
H20    H     0.41504   0.90391   0.77248   0.01267  Uiso   1.00
H21    H     0.09608   0.51113   0.86857   0.01267  Uiso   1.00
H22    H     0.90391   0.77248   0.41504   0.01267  Uiso   1.00
H23    H     0.35744   0.48887   0.58496   0.01267  Uiso   1.00
H24    H     0.64256   0.22752   0.13143   0.01267  Uiso   1.00
C1     C     0.59320   0.54160   0.32180   0.01267  Uiso   1.00
C2     C     0.21980   0.27140   0.67820   0.01267  Uiso   1.00
C3     C     0.78020   0.45840   0.05160   0.01267  Uiso   1.00
C4     C     0.40680   0.72860   0.94840   0.01267  Uiso   1.00
C5     C     0.05160   0.78020   0.45840   0.01267  Uiso   1.00
C6     C     0.94840   0.40680   0.72860   0.01267  Uiso   1.00
C7     C     0.32180   0.59320   0.54160   0.01267  Uiso   1.00
C8     C     0.67820   0.21980   0.27140   0.01267  Uiso   1.00
C9     C     0.27140   0.67820   0.21980   0.01267  Uiso   1.00
C10    C     0.54160   0.32180   0.59320   0.01267  Uiso   1.00
C11    C     0.72860   0.94840   0.40680   0.01267  Uiso   1.00
C12    C     0.45840   0.05160   0.78020   0.01267  Uiso   1.00
C13    C     0.27140   0.21980   0.67820   0.01267  Uiso   1.00
C14    C     0.54160   0.59320   0.32180   0.01267  Uiso   1.00
C15    C     0.72860   0.40680   0.94840   0.01267  Uiso   1.00
C16    C     0.45840   0.78020   0.05160   0.01267  Uiso   1.00
C17    C     0.59320   0.32180   0.54160   0.01267  Uiso   1.00
C18    C     0.21980   0.67820   0.27140   0.01267  Uiso   1.00
C19    C     0.78020   0.05160   0.45840   0.01267  Uiso   1.00
C20    C     0.40680   0.94840   0.72860   0.01267  Uiso   1.00
C21    C     0.05160   0.45840   0.78020   0.01267  Uiso   1.00
C22    C     0.94840   0.72860   0.40680   0.01267  Uiso   1.00
C23    C     0.32180   0.54160   0.59320   0.01267  Uiso   1.00
C24    C     0.67820   0.27140   0.21980   0.01267  Uiso   1.00
C25    C     0.67220   0.67220   0.19020   0.01267  Uiso   1.00
C26    C     0.62410   0.62410   0.24780   0.01267  Uiso   1.00
C27    C     0.48200   0.48200   0.80980   0.01267  Uiso   1.00
C28    C     0.37630   0.37630   0.75220   0.01267  Uiso   1.00
C29    C     0.51800   0.32780   0.00000   0.01267  Uiso   1.00
C30    C     0.62370   0.37590   0.00000   0.01267  Uiso   1.00
C31    C     0.32780   0.51800   0.00000   0.01267  Uiso   1.00
C32    C     0.37590   0.62370   0.00000   0.01267  Uiso   1.00
C33    C     0.00000   0.51800   0.32780   0.01267  Uiso   1.00
C34    C     0.00000   0.62370   0.37590   0.01267  Uiso   1.00
C35    C     0.00000   0.32780   0.51800   0.01267  Uiso   1.00
C36    C     0.00000   0.37590   0.62370   0.01267  Uiso   1.00
C37    C     0.19020   0.67220   0.67220   0.01267  Uiso   1.00
C38    C     0.24780   0.62410   0.62410   0.01267  Uiso   1.00
C39    C     0.80980   0.48200   0.48200   0.01267  Uiso   1.00
C40    C     0.75220   0.37630   0.37630   0.01267  Uiso   1.00
C41    C     0.48200   0.80980   0.48200   0.01267  Uiso   1.00
C42    C     0.37630   0.75220   0.37630   0.01267  Uiso   1.00
C43    C     0.67220   0.19020   0.67220   0.01267  Uiso   1.00
C44    C     0.62410   0.24780   0.62410   0.01267  Uiso   1.00
C45    C     0.51800   0.00000   0.32780   0.01267  Uiso   1.00
C46    C     0.62370   0.00000   0.37590   0.01267  Uiso   1.00
C47    C     0.32780   0.00000   0.51800   0.01267  Uiso   1.00
C48    C     0.37590   0.00000   0.62370   0.01267  Uiso   1.00
N1     N     0.65020   0.56450   0.27510   0.01267  Uiso   1.00
N2     N     0.28940   0.37510   0.72490   0.01267  Uiso   1.00
N3     N     0.71060   0.43550   0.08570   0.01267  Uiso   1.00
N4     N     0.34980   0.62490   0.91430   0.01267  Uiso   1.00
N5     N     0.08570   0.71060   0.43550   0.01267  Uiso   1.00
N6     N     0.91430   0.34980   0.62490   0.01267  Uiso   1.00
N7     N     0.27510   0.65020   0.56450   0.01267  Uiso   1.00
N8     N     0.72490   0.28940   0.37510   0.01267  Uiso   1.00
N9     N     0.37510   0.72490   0.28940   0.01267  Uiso   1.00
N10    N     0.56450   0.27510   0.65020   0.01267  Uiso   1.00
N11    N     0.62490   0.91430   0.34980   0.01267  Uiso   1.00
N12    N     0.43550   0.08570   0.71060   0.01267  Uiso   1.00
N13    N     0.37510   0.28940   0.72490   0.01267  Uiso   1.00
N14    N     0.56450   0.65020   0.27510   0.01267  Uiso   1.00
N15    N     0.62490   0.34980   0.91430   0.01267  Uiso   1.00
N16    N     0.43550   0.71060   0.08570   0.01267  Uiso   1.00
N17    N     0.65020   0.27510   0.56450   0.01267  Uiso   1.00
N18    N     0.28940   0.72490   0.37510   0.01267  Uiso   1.00
N19    N     0.71060   0.08570   0.43550   0.01267  Uiso   1.00
N20    N     0.34980   0.91430   0.62490   0.01267  Uiso   1.00
N21    N     0.08570   0.43550   0.71060   0.01267  Uiso   1.00
N22    N     0.91430   0.62490   0.34980   0.01267  Uiso   1.00
N23    N     0.27510   0.56450   0.65020   0.01267  Uiso   1.00
N24    N     0.72490   0.37510   0.28940   0.01267  Uiso   1.00
H25    H     0.61485   0.68724   0.13888   0.01267  Uiso   1.00
H26    H     0.68816   0.61527   0.13964   0.01267  Uiso   1.00
H27    H     0.74837   0.74886   0.25044   0.01267  Uiso   1.00
H28    H     0.48895   0.50787   0.75146   0.01267  Uiso   1.00
H29    H     0.55030   0.47007   0.84532   0.01267  Uiso   1.00
H30    H     0.48316   0.54448   0.87426   0.01267  Uiso   1.00
H31    H     0.49686   0.24692   0.99019   0.01267  Uiso   1.00
H32    H     0.45335   0.32135   0.93276   0.01267  Uiso   1.00
H33    H     0.52738   0.38036   0.07705   0.01267  Uiso   1.00
H34    H     0.39332   0.50548   0.04202   0.01267  Uiso   1.00
H35    H     0.27434   0.45058   0.91612   0.01267  Uiso   1.00
H36    H     0.28097   0.52152   0.04186   0.01267  Uiso   1.00
H37    H     0.02204   0.51253   0.26468   0.01267  Uiso   1.00
H38    H     0.91889   0.44960   0.29217   0.01267  Uiso   1.00
H39    H     0.05907   0.51546   0.39177   0.01267  Uiso   1.00
H41    H     0.04896   0.39333   0.50945   0.01267  Uiso   1.00
H42    H     0.91653   0.28093   0.44987   0.01267  Uiso   1.00
H43    H     0.03451   0.27437   0.51826   0.01267  Uiso   1.00
H44    H     0.13424   0.61246   0.68152   0.01267  Uiso   1.00
H45    H     0.14451   0.69386   0.61809   0.01267  Uiso   1.00
H46    H     0.25021   0.74505   0.75177   0.01267  Uiso   1.00
H47    H     0.85549   0.54935   0.47358   0.01267  Uiso   1.00
H48    H     0.86576   0.47823   0.54728   0.01267  Uiso   1.00
H49    H     0.74979   0.49484   0.50156   0.01267  Uiso   1.00
H50    H     0.54665   0.86800   0.47941   0.01267  Uiso   1.00
H51    H     0.50314   0.75006   0.49333   0.01267  Uiso   1.00
H52    H     0.47262   0.85298   0.54967   0.01267  Uiso   1.00
H53    H     0.72567   0.17624   0.64178   0.01267  Uiso   1.00
H54    H     0.60668   0.11216   0.64869   0.01267  Uiso   1.00
H55    H     0.71903   0.24055   0.76090   0.01267  Uiso   1.00
H56    H     0.44970   0.91977   0.29502   0.01267  Uiso   1.00
H57    H     0.51105   0.01891   0.26251   0.01267  Uiso   1.00
H58    H     0.51684   0.06132   0.39110   0.01267  Uiso   1.00
H60    H     0.31184   0.92711   0.45148   0.01267  Uiso   1.00
H61    H     0.38515   0.07239   0.52403   0.01267  Uiso   1.00
H62    H     0.25163   0.00050   0.50208   0.01267  Uiso   1.00
