data_image0
_cell_length_a       20.287
_cell_length_b       23.0173
_cell_length_c       23.0173
_cell_angle_alpha    78.8015
_cell_angle_beta     63.852
_cell_angle_gamma    63.8521

_symmetry_space_group_name_H-M    P 1
_symmetry_int_tables_number       1

loop_
  _symmetry_equiv_pos_as_xyz
  'x, y, z'

loop_
  _atom_site_label
  _atom_site_occupancy
  _atom_site_fract_x
  _atom_site_fract_y
  _atom_site_fract_z
  _atom_site_thermal_displace_type
  _atom_site_B_iso_or_equiv
  _atom_site_type_symbol
  Cd1      1.0000 0.42267  0.84417  0.62565  Biso   1.000  Cd
  Cd2      1.0000 0.73310  0.84420  0.37432  Biso   1.000  Cd
  Cd3      1.0000 0.89249  0.15583  0.37435  Biso   1.000  Cd
  Cd4      1.0000 0.95162  0.15580  0.62568  Biso   1.000  Cd
  Cd5      1.0000 0.04832  0.37435  0.84417  Biso   1.000  Cd
  Cd6      1.0000 0.10742  0.62568  0.84420  Biso   1.000  Cd
  Cd7      1.0000 0.26684  0.62565  0.15583  Biso   1.000  Cd
  Cd8      1.0000 0.57730  0.37432  0.15580  Biso   1.000  Cd
  Cd9      1.0000 0.57733  0.15583  0.37435  Biso   1.000  Cd
  Cd10     1.0000 0.26690  0.15580  0.62568  Biso   1.000  Cd
  Cd11     1.0000 0.10751  0.84417  0.62565  Biso   1.000  Cd
  Cd12     1.0000 0.04838  0.84420  0.37432  Biso   1.000  Cd
  Cd13     1.0000 0.95168  0.62565  0.15583  Biso   1.000  Cd
  Cd14     1.0000 0.89258  0.37432  0.15580  Biso   1.000  Cd
  Cd15     1.0000 0.73316  0.37435  0.84417  Biso   1.000  Cd
  Cd16     1.0000 0.42270  0.62568  0.84420  Biso   1.000  Cd
  H1       1.0000 0.39690  0.82800  0.49420  Biso   1.000  H
  H2       1.0000 0.48430  0.69910  0.63810  Biso   1.000  H
  H3       1.0000 0.44240  0.65680  0.68920  Biso   1.000  H
  H4       1.0000 0.52740  0.64850  0.67990  Biso   1.000  H
  H5       1.0000 0.77430  0.83030  0.50670  Biso   1.000  H
  H6       1.0000 0.26670  0.04290  0.57650  Biso   1.000  H
  H7       1.0000 0.26310  0.97690  0.60750  Biso   1.000  H
  H8       1.0000 0.33860  0.97770  0.54590  Biso   1.000  H
  H9       1.0000 0.37770  0.06240  0.70320  Biso   1.000  H
  H10      1.0000 0.44090  0.93930  0.70130  Biso   1.000  H
  H11      1.0000 0.73100  0.72370  0.48030  Biso   1.000  H
  H12      1.0000 0.61930  0.72620  0.57800  Biso   1.000  H
  H13      1.0000 0.39530  0.86200  0.77720  Biso   1.000  H
  H14      1.0000 0.39730  0.77740  0.86040  Biso   1.000  H
  H15      1.0000 0.71910  0.17200  0.50580  Biso   1.000  H
  H16      1.0000 0.82150  0.30090  0.36190  Biso   1.000  H
  H17      1.0000 0.78840  0.34320  0.31080  Biso   1.000  H
  H18      1.0000 0.85580  0.35150  0.32010  Biso   1.000  H
  H19      1.0000 0.11130  0.16970  0.49330  Biso   1.000  H
  H20      1.0000 0.88610  0.95710  0.42350  Biso   1.000  H
  H21      1.0000 0.84750  0.02310  0.39250  Biso   1.000  H
  H22      1.0000 0.86220  0.02230  0.45410  Biso   1.000  H
  H23      1.0000 0.14330  0.93760  0.29680  Biso   1.000  H
  H24      1.0000 0.08150  0.06070  0.29870  Biso   1.000  H
  H25      1.0000 0.93500  0.27630  0.51970  Biso   1.000  H
  H26      1.0000 0.92350  0.27380  0.42200  Biso   1.000  H
  H27      1.0000 0.03450  0.13800  0.22280  Biso   1.000  H
  H28      1.0000 0.03510  0.22260  0.13960  Biso   1.000  H
  H29      1.0000 0.89110  0.50580  0.82800  Biso   1.000  H
  H30      1.0000 0.12240  0.36190  0.69910  Biso   1.000  H
  H31      1.0000 0.13160  0.31080  0.65680  Biso   1.000  H
  H32      1.0000 0.20730  0.32010  0.64850  Biso   1.000  H
  H33      1.0000 0.28100  0.49330  0.83030  Biso   1.000  H
  H34      1.0000 0.84320  0.42350  0.04290  Biso   1.000  H
  H35      1.0000 0.87060  0.39250  0.97690  Biso   1.000  H
  H36      1.0000 0.88450  0.45410  0.97770  Biso   1.000  H
  H37      1.0000 0.08090  0.29680  0.06240  Biso   1.000  H
  H38      1.0000 0.14220  0.29870  0.93930  Biso   1.000  H
  H39      1.0000 0.21130  0.51970  0.72370  Biso   1.000  H
  H40      1.0000 0.19730  0.42200  0.72620  Biso   1.000  H
  H41      1.0000 0.17250  0.22280  0.86200  Biso   1.000  H
  H42      1.0000 0.25770  0.13960  0.77740  Biso   1.000  H
  H43      1.0000 0.22490  0.49420  0.17200  Biso   1.000  H
  H44      1.0000 0.18340  0.63810  0.30090  Biso   1.000  H
  H45      1.0000 0.09920  0.68920  0.34320  Biso   1.000  H
  H46      1.0000 0.17590  0.67990  0.35150  Biso   1.000  H
  H47      1.0000 0.60460  0.50670  0.16970  Biso   1.000  H
  H48      1.0000 0.30960  0.57650  0.95710  Biso   1.000  H
  H49      1.0000 0.24000  0.60750  0.02310  Biso   1.000  H
  H50      1.0000 0.31630  0.54590  0.02230  Biso   1.000  H
  H51      1.0000 0.44010  0.70320  0.93760  Biso   1.000  H
  H52      1.0000 0.38020  0.70130  0.06070  Biso   1.000  H
  H53      1.0000 0.45470  0.48030  0.27630  Biso   1.000  H
  H54      1.0000 0.34550  0.57800  0.27380  Biso   1.000  H
  H55      1.0000 0.25730  0.77720  0.13800  Biso   1.000  H
  H56      1.0000 0.17470  0.86040  0.22260  Biso   1.000  H
  H57      1.0000 0.60310  0.17200  0.50580  Biso   1.000  H
  H58      1.0000 0.51570  0.30090  0.36190  Biso   1.000  H
  H59      1.0000 0.55760  0.34320  0.31080  Biso   1.000  H
  H60      1.0000 0.47260  0.35150  0.32010  Biso   1.000  H
  H61      1.0000 0.22570  0.16970  0.49330  Biso   1.000  H
  H62      1.0000 0.73330  0.95710  0.42350  Biso   1.000  H
  H63      1.0000 0.73690  0.02310  0.39250  Biso   1.000  H
  H64      1.0000 0.66140  0.02230  0.45410  Biso   1.000  H
  H65      1.0000 0.62230  0.93760  0.29680  Biso   1.000  H
  H66      1.0000 0.55910  0.06070  0.29870  Biso   1.000  H
  H67      1.0000 0.26900  0.27630  0.51970  Biso   1.000  H
  H68      1.0000 0.38070  0.27380  0.42200  Biso   1.000  H
  H69      1.0000 0.60470  0.13800  0.22280  Biso   1.000  H
  H70      1.0000 0.60270  0.22260  0.13960  Biso   1.000  H
  H71      1.0000 0.28090  0.82800  0.49420  Biso   1.000  H
  H72      1.0000 0.17850  0.69910  0.63810  Biso   1.000  H
  H73      1.0000 0.21160  0.65680  0.68920  Biso   1.000  H
  H74      1.0000 0.14420  0.64850  0.67990  Biso   1.000  H
  H75      1.0000 0.88870  0.83030  0.50670  Biso   1.000  H
  H76      1.0000 0.11390  0.04290  0.57650  Biso   1.000  H
  H77      1.0000 0.15250  0.97690  0.60750  Biso   1.000  H
  H78      1.0000 0.13780  0.97770  0.54590  Biso   1.000  H
  H79      1.0000 0.85670  0.06240  0.70320  Biso   1.000  H
  H80      1.0000 0.91850  0.93930  0.70130  Biso   1.000  H
  H81      1.0000 0.06500  0.72370  0.48030  Biso   1.000  H
  H82      1.0000 0.07650  0.72620  0.57800  Biso   1.000  H
  H83      1.0000 0.96550  0.86200  0.77720  Biso   1.000  H
  H84      1.0000 0.96490  0.77740  0.86040  Biso   1.000  H
  H85      1.0000 0.10890  0.49420  0.17200  Biso   1.000  H
  H86      1.0000 0.87760  0.63810  0.30090  Biso   1.000  H
  H87      1.0000 0.86840  0.68920  0.34320  Biso   1.000  H
  H88      1.0000 0.79270  0.67990  0.35150  Biso   1.000  H
  H89      1.0000 0.71900  0.50670  0.16970  Biso   1.000  H
  H90      1.0000 0.15680  0.57650  0.95710  Biso   1.000  H
  H91      1.0000 0.12940  0.60750  0.02310  Biso   1.000  H
  H92      1.0000 0.11550  0.54590  0.02230  Biso   1.000  H
  H93      1.0000 0.91910  0.70320  0.93760  Biso   1.000  H
  H94      1.0000 0.85780  0.70130  0.06070  Biso   1.000  H
  H95      1.0000 0.78870  0.48030  0.27630  Biso   1.000  H
  H96      1.0000 0.80270  0.57800  0.27380  Biso   1.000  H
  H97      1.0000 0.82750  0.77720  0.13800  Biso   1.000  H
  H98      1.0000 0.74230  0.86040  0.22260  Biso   1.000  H
  H99      1.0000 0.77510  0.50580  0.82800  Biso   1.000  H
  H100     1.0000 0.81660  0.36190  0.69910  Biso   1.000  H
  H101     1.0000 0.90080  0.31080  0.65680  Biso   1.000  H
  H102     1.0000 0.82410  0.32010  0.64850  Biso   1.000  H
  H103     1.0000 0.39540  0.49330  0.83030  Biso   1.000  H
  H104     1.0000 0.69040  0.42350  0.04290  Biso   1.000  H
  H105     1.0000 0.76000  0.39250  0.97690  Biso   1.000  H
  H106     1.0000 0.68370  0.45410  0.97770  Biso   1.000  H
  H107     1.0000 0.55990  0.29680  0.06240  Biso   1.000  H
  H108     1.0000 0.61980  0.29870  0.93930  Biso   1.000  H
  H109     1.0000 0.54530  0.51970  0.72370  Biso   1.000  H
  H110     1.0000 0.65450  0.42200  0.72620  Biso   1.000  H
  H111     1.0000 0.74270  0.22280  0.86200  Biso   1.000  H
  H112     1.0000 0.82530  0.13960  0.77740  Biso   1.000  H
  C1       1.0000 0.57930  0.84430  0.49970  Biso   1.000  C
  C2       1.0000 0.35180  0.82890  0.53110  Biso   1.000  C
  C3       1.0000 0.47650  0.67900  0.67980  Biso   1.000  C
  C4       1.0000 0.43940  0.72780  0.72860  Biso   1.000  C
  C5       1.0000 0.81900  0.83020  0.46980  Biso   1.000  C
  C6       1.0000 0.29760  0.99950  0.58570  Biso   1.000  C
  C7       1.0000 0.33500  0.00080  0.62740  Biso   1.000  C
  C8       1.0000 0.37150  0.03550  0.68250  Biso   1.000  C
  C9       1.0000 0.40650  0.96610  0.68150  Biso   1.000  C
  C10      1.0000 0.67860  0.75470  0.49210  Biso   1.000  C
  C11      1.0000 0.61690  0.75570  0.54430  Biso   1.000  C
  C12      1.0000 0.40450  0.81960  0.77240  Biso   1.000  C
  C13      1.0000 0.40520  0.77240  0.81840  Biso   1.000  C
  C14      1.0000 0.92330  0.15570  0.50030  Biso   1.000  C
  C15      1.0000 0.71180  0.17110  0.46890  Biso   1.000  C
  C16      1.0000 0.83530  0.32100  0.32020  Biso   1.000  C
  C17      1.0000 0.89580  0.27220  0.27140  Biso   1.000  C
  C18      1.0000 0.11900  0.16980  0.53020  Biso   1.000  C
  C19      1.0000 0.88280  0.00050  0.41430  Biso   1.000  C
  C20      1.0000 0.96320  0.99920  0.37260  Biso   1.000  C
  C21      1.0000 0.08950  0.96450  0.31750  Biso   1.000  C
  C22      1.0000 0.05410  0.03390  0.31850  Biso   1.000  C
  C23      1.0000 0.92540  0.24530  0.50790  Biso   1.000  C
  C24      1.0000 0.91690  0.24430  0.45570  Biso   1.000  C
  C25      1.0000 0.99650  0.18040  0.22760  Biso   1.000  C
  C26      1.0000 0.99600  0.22760  0.18160  Biso   1.000  C
  C27      1.0000 0.07900  0.50030  0.84430  Biso   1.000  C
  C28      1.0000 0.88290  0.46890  0.82890  Biso   1.000  C
  C29      1.0000 0.15630  0.32020  0.67900  Biso   1.000  C
  C30      1.0000 0.16800  0.27140  0.72780  Biso   1.000  C
  C31      1.0000 0.28880  0.53020  0.83020  Biso   1.000  C
  C32      1.0000 0.88330  0.41430  0.99950  Biso   1.000  C
  C33      1.0000 0.96240  0.37260  0.00080  Biso   1.000  C
  C34      1.0000 0.05400  0.31750  0.03550  Biso   1.000  C
  C35      1.0000 0.08800  0.31850  0.96610  Biso   1.000  C
  C36      1.0000 0.17070  0.50790  0.75470  Biso   1.000  C
  C37      1.0000 0.16120  0.45570  0.75570  Biso   1.000  C
  C38      1.0000 0.17690  0.22760  0.81960  Biso   1.000  C
  C39      1.0000 0.22360  0.18160  0.77240  Biso   1.000  C
  C40      1.0000 0.42360  0.49970  0.15570  Biso   1.000  C
  C41      1.0000 0.18070  0.53110  0.17110  Biso   1.000  C
  C42      1.0000 0.15550  0.67980  0.32100  Biso   1.000  C
  C43      1.0000 0.16720  0.72860  0.27220  Biso   1.000  C
  C44      1.0000 0.64920  0.46980  0.16980  Biso   1.000  C
  C45      1.0000 0.29710  0.58570  0.00050  Biso   1.000  C
  C46      1.0000 0.33580  0.62740  0.99920  Biso   1.000  C
  C47      1.0000 0.40700  0.68250  0.96450  Biso   1.000  C
  C48      1.0000 0.37260  0.68150  0.03390  Biso   1.000  C
  C49      1.0000 0.43330  0.49210  0.24530  Biso   1.000  C
  C50      1.0000 0.37260  0.54430  0.24430  Biso   1.000  C
  C51      1.0000 0.22410  0.77240  0.18040  Biso   1.000  C
  C52      1.0000 0.17760  0.81840  0.22760  Biso   1.000  C
  C53      1.0000 0.42070  0.15570  0.50030  Biso   1.000  C
  C54      1.0000 0.64820  0.17110  0.46890  Biso   1.000  C
  C55      1.0000 0.52350  0.32100  0.32020  Biso   1.000  C
  C56      1.0000 0.56060  0.27220  0.27140  Biso   1.000  C
  C57      1.0000 0.18100  0.16980  0.53020  Biso   1.000  C
  C58      1.0000 0.70240  0.00050  0.41430  Biso   1.000  C
  C59      1.0000 0.66500  0.99920  0.37260  Biso   1.000  C
  C60      1.0000 0.62850  0.96450  0.31750  Biso   1.000  C
  C61      1.0000 0.59350  0.03390  0.31850  Biso   1.000  C
  C62      1.0000 0.32140  0.24530  0.50790  Biso   1.000  C
  C63      1.0000 0.38310  0.24430  0.45570  Biso   1.000  C
  C64      1.0000 0.59550  0.18040  0.22760  Biso   1.000  C
  C65      1.0000 0.59480  0.22760  0.18160  Biso   1.000  C
  C66      1.0000 0.07670  0.84430  0.49970  Biso   1.000  C
  C67      1.0000 0.28820  0.82890  0.53110  Biso   1.000  C
  C68      1.0000 0.16470  0.67900  0.67980  Biso   1.000  C
  C69      1.0000 0.10420  0.72780  0.72860  Biso   1.000  C
  C70      1.0000 0.88100  0.83020  0.46980  Biso   1.000  C
  C71      1.0000 0.11720  0.99950  0.58570  Biso   1.000  C
  C72      1.0000 0.03680  0.00080  0.62740  Biso   1.000  C
  C73      1.0000 0.91050  0.03550  0.68250  Biso   1.000  C
  C74      1.0000 0.94590  0.96610  0.68150  Biso   1.000  C
  C75      1.0000 0.07460  0.75470  0.49210  Biso   1.000  C
  C76      1.0000 0.08310  0.75570  0.54430  Biso   1.000  C
  C77      1.0000 0.00350  0.81960  0.77240  Biso   1.000  C
  C78      1.0000 0.00400  0.77240  0.81840  Biso   1.000  C
  C79      1.0000 0.92100  0.49970  0.15570  Biso   1.000  C
  C80      1.0000 0.11710  0.53110  0.17110  Biso   1.000  C
  C81      1.0000 0.84370  0.67980  0.32100  Biso   1.000  C
  C82      1.0000 0.83200  0.72860  0.27220  Biso   1.000  C
  C83      1.0000 0.71120  0.46980  0.16980  Biso   1.000  C
  C84      1.0000 0.11670  0.58570  0.00050  Biso   1.000  C
  C85      1.0000 0.03760  0.62740  0.99920  Biso   1.000  C
  C86      1.0000 0.94600  0.68250  0.96450  Biso   1.000  C
  C87      1.0000 0.91200  0.68150  0.03390  Biso   1.000  C
  C88      1.0000 0.82930  0.49210  0.24530  Biso   1.000  C
  C89      1.0000 0.83880  0.54430  0.24430  Biso   1.000  C
  C90      1.0000 0.82310  0.77240  0.18040  Biso   1.000  C
  C91      1.0000 0.77640  0.81840  0.22760  Biso   1.000  C
  C92      1.0000 0.57640  0.50030  0.84430  Biso   1.000  C
  C93      1.0000 0.81930  0.46890  0.82890  Biso   1.000  C
  C94      1.0000 0.84450  0.32020  0.67900  Biso   1.000  C
  C95      1.0000 0.83280  0.27140  0.72780  Biso   1.000  C
  C96      1.0000 0.35080  0.53020  0.83020  Biso   1.000  C
  C97      1.0000 0.70290  0.41430  0.99950  Biso   1.000  C
  C98      1.0000 0.66420  0.37260  0.00080  Biso   1.000  C
  C99      1.0000 0.59300  0.31750  0.03550  Biso   1.000  C
  C100     1.0000 0.62740  0.31850  0.96610  Biso   1.000  C
  C101     1.0000 0.56670  0.50790  0.75470  Biso   1.000  C
  C102     1.0000 0.62740  0.45570  0.75570  Biso   1.000  C
  C103     1.0000 0.77590  0.22760  0.81960  Biso   1.000  C
  C104     1.0000 0.82240  0.18160  0.77240  Biso   1.000  C
  C105     1.0000 0.23140  0.83350  0.70370  Biso   1.000  C
  C106     1.0000 0.26820  0.83200  0.63160  Biso   1.000  C
  C107     1.0000 0.76860  0.16650  0.29630  Biso   1.000  C
  C108     1.0000 0.73180  0.16800  0.36840  Biso   1.000  C
  C109     1.0000 0.93510  0.29630  0.83350  Biso   1.000  C
  C110     1.0000 0.89980  0.36840  0.83200  Biso   1.000  C
  C111     1.0000 0.06490  0.70370  0.16650  Biso   1.000  C
  C112     1.0000 0.10020  0.63160  0.16800  Biso   1.000  C
  C113     1.0000 0.93480  0.83220  0.29820  Biso   1.000  C
  C114     1.0000 0.89850  0.83370  0.36930  Biso   1.000  C
  C115     1.0000 0.06520  0.16780  0.70180  Biso   1.000  C
  C116     1.0000 0.10150  0.16630  0.63070  Biso   1.000  C
  C117     1.0000 0.23300  0.70180  0.83220  Biso   1.000  C
  C118     1.0000 0.26780  0.63070  0.83370  Biso   1.000  C
  C119     1.0000 0.76700  0.29820  0.16780  Biso   1.000  C
  C120     1.0000 0.73220  0.36930  0.16630  Biso   1.000  C
  N1       1.0000 0.65000  0.81090  0.45590  Biso   1.000  N
  N2       1.0000 0.53960  0.81110  0.54390  Biso   1.000  N
  N3       1.0000 0.34320  0.83060  0.59400  Biso   1.000  N
  N4       1.0000 0.42010  0.79220  0.71720  Biso   1.000  N
  N5       1.0000 0.41930  0.71640  0.79360  Biso   1.000  N
  N6       1.0000 0.82720  0.83000  0.40600  Biso   1.000  N
  N7       1.0000 0.32780  0.05330  0.64710  Biso   1.000  N
  N8       1.0000 0.38120  0.94660  0.64720  Biso   1.000  N
  N9       1.0000 0.91680  0.18910  0.54410  Biso   1.000  N
  N10      1.0000 0.89460  0.18890  0.45610  Biso   1.000  N
  N11      1.0000 0.76780  0.16940  0.40600  Biso   1.000  N
  N12      1.0000 0.92950  0.20780  0.28280  Biso   1.000  N
  N13      1.0000 0.92930  0.28360  0.20640  Biso   1.000  N
  N14      1.0000 0.06320  0.17000  0.59400  Biso   1.000  N
  N15      1.0000 0.02820  0.94670  0.35290  Biso   1.000  N
  N16      1.0000 0.97500  0.05340  0.35280  Biso   1.000  N
  N17      1.0000 0.10590  0.54410  0.81090  Biso   1.000  N
  N18      1.0000 0.08350  0.45610  0.81110  Biso   1.000  N
  N19      1.0000 0.93720  0.40600  0.83060  Biso   1.000  N
  N20      1.0000 0.13730  0.28280  0.79220  Biso   1.000  N
  N21      1.0000 0.21290  0.20640  0.71640  Biso   1.000  N
  N22      1.0000 0.23320  0.59400  0.83000  Biso   1.000  N
  N23      1.0000 0.97490  0.35290  0.05330  Biso   1.000  N
  N24      1.0000 0.02840  0.35280  0.94660  Biso   1.000  N
  N25      1.0000 0.46090  0.45590  0.18910  Biso   1.000  N
  N26      1.0000 0.35070  0.54390  0.18890  Biso   1.000  N
  N27      1.0000 0.17380  0.59400  0.16940  Biso   1.000  N
  N28      1.0000 0.21230  0.71720  0.20780  Biso   1.000  N
  N29      1.0000 0.13570  0.79360  0.28360  Biso   1.000  N
  N30      1.0000 0.65720  0.40600  0.17000  Biso   1.000  N
  N31      1.0000 0.38110  0.64710  0.94670  Biso   1.000  N
  N32      1.0000 0.32780  0.64720  0.05340  Biso   1.000  N
  N33      1.0000 0.35000  0.18910  0.54410  Biso   1.000  N
  N34      1.0000 0.46040  0.18890  0.45610  Biso   1.000  N
  N35      1.0000 0.65680  0.16940  0.40600  Biso   1.000  N
  N36      1.0000 0.57990  0.20780  0.28280  Biso   1.000  N
  N37      1.0000 0.58070  0.28360  0.20640  Biso   1.000  N
  N38      1.0000 0.17280  0.17000  0.59400  Biso   1.000  N
  N39      1.0000 0.67220  0.94670  0.35290  Biso   1.000  N
  N40      1.0000 0.61880  0.05340  0.35280  Biso   1.000  N
  N41      1.0000 0.08320  0.81090  0.45590  Biso   1.000  N
  N42      1.0000 0.10540  0.81110  0.54390  Biso   1.000  N
  N43      1.0000 0.23220  0.83060  0.59400  Biso   1.000  N
  N44      1.0000 0.07050  0.79220  0.71720  Biso   1.000  N
  N45      1.0000 0.07070  0.71640  0.79360  Biso   1.000  N
  N46      1.0000 0.93680  0.83000  0.40600  Biso   1.000  N
  N47      1.0000 0.97180  0.05330  0.64710  Biso   1.000  N
  N48      1.0000 0.02500  0.94660  0.64720  Biso   1.000  N
  N49      1.0000 0.89410  0.45590  0.18910  Biso   1.000  N
  N50      1.0000 0.91650  0.54390  0.18890  Biso   1.000  N
  N51      1.0000 0.06280  0.59400  0.16940  Biso   1.000  N
  N52      1.0000 0.86270  0.71720  0.20780  Biso   1.000  N
  N53      1.0000 0.78710  0.79360  0.28360  Biso   1.000  N
  N54      1.0000 0.76680  0.40600  0.17000  Biso   1.000  N
  N55      1.0000 0.02510  0.64710  0.94670  Biso   1.000  N
  N56      1.0000 0.97160  0.64720  0.05340  Biso   1.000  N
  N57      1.0000 0.53910  0.54410  0.81090  Biso   1.000  N
  N58      1.0000 0.64930  0.45610  0.81110  Biso   1.000  N
  N59      1.0000 0.82620  0.40600  0.83060  Biso   1.000  N
  N60      1.0000 0.78770  0.28280  0.79220  Biso   1.000  N
  N61      1.0000 0.86430  0.20640  0.71640  Biso   1.000  N
  N62      1.0000 0.34280  0.59400  0.83000  Biso   1.000  N
  N63      1.0000 0.61890  0.35290  0.05330  Biso   1.000  N
  N64      1.0000 0.67220  0.35280  0.94660  Biso   1.000  N
