data_image0
_cell_length_a       26.4135
_cell_length_b       26.4135
_cell_length_c       26.4135
_cell_angle_alpha    109.471
_cell_angle_beta     109.471
_cell_angle_gamma    109.471

_symmetry_space_group_name_H-M    P 1
_symmetry_int_tables_number       1

loop_
  _symmetry_equiv_pos_as_xyz
  'x, y, z'

loop_
  _atom_site_label
  _atom_site_occupancy
  _atom_site_fract_x
  _atom_site_fract_y
  _atom_site_fract_z
  _atom_site_thermal_displace_type
  _atom_site_B_iso_or_equiv
  _atom_site_type_symbol
  Cd1      1.0000 0.64518  0.14518  0.29036  Biso   1.000  Cd
  Cd2      1.0000 0.85482  0.35482  0.70964  Biso   1.000  Cd
  Cd3      1.0000 0.14518  0.85482  0.50000  Biso   1.000  Cd
  Cd4      1.0000 0.35482  0.64518  0.50000  Biso   1.000  Cd
  Cd5      1.0000 0.50000  0.14518  0.85482  Biso   1.000  Cd
  Cd6      1.0000 0.50000  0.35482  0.64518  Biso   1.000  Cd
  Cd7      1.0000 0.29036  0.64518  0.14518  Biso   1.000  Cd
  Cd8      1.0000 0.70964  0.85482  0.35482  Biso   1.000  Cd
  Cd9      1.0000 0.35482  0.70964  0.85482  Biso   1.000  Cd
  Cd10     1.0000 0.14518  0.29036  0.64518  Biso   1.000  Cd
  Cd11     1.0000 0.64518  0.50000  0.35482  Biso   1.000  Cd
  Cd12     1.0000 0.85482  0.50000  0.14518  Biso   1.000  Cd
  Cd13     1.0000 0.35482  0.85482  0.70964  Biso   1.000  Cd
  Cd14     1.0000 0.14518  0.64518  0.29036  Biso   1.000  Cd
  Cd15     1.0000 0.85482  0.14518  0.50000  Biso   1.000  Cd
  Cd16     1.0000 0.64518  0.35482  0.50000  Biso   1.000  Cd
  Cd17     1.0000 0.50000  0.85482  0.14518  Biso   1.000  Cd
  Cd18     1.0000 0.50000  0.64518  0.35482  Biso   1.000  Cd
  Cd19     1.0000 0.70964  0.35482  0.85482  Biso   1.000  Cd
  Cd20     1.0000 0.29036  0.14518  0.64518  Biso   1.000  Cd
  Cd21     1.0000 0.64518  0.29036  0.14518  Biso   1.000  Cd
  Cd22     1.0000 0.85482  0.70964  0.35482  Biso   1.000  Cd
  Cd23     1.0000 0.35482  0.50000  0.64518  Biso   1.000  Cd
  Cd24     1.0000 0.14518  0.50000  0.85482  Biso   1.000  Cd
  H1       1.0000 0.80250  0.24320  0.35710  Biso   1.000  H
  H2       1.0000 0.74260  0.16780  0.22520  Biso   1.000  H
  H3       1.0000 0.88610  0.44540  0.64290  Biso   1.000  H
  H4       1.0000 0.94260  0.51740  0.77480  Biso   1.000  H
  H5       1.0000 0.11390  0.75680  0.55930  Biso   1.000  H
  H6       1.0000 0.05740  0.83220  0.57480  Biso   1.000  H
  H7       1.0000 0.19750  0.55460  0.44070  Biso   1.000  H
  H8       1.0000 0.25740  0.48260  0.42520  Biso   1.000  H
  H9       1.0000 0.55930  0.11390  0.75680  Biso   1.000  H
  H10      1.0000 0.57480  0.05740  0.83220  Biso   1.000  H
  H11      1.0000 0.44070  0.19750  0.55460  Biso   1.000  H
  H12      1.0000 0.42520  0.25740  0.48260  Biso   1.000  H
  H13      1.0000 0.35710  0.80250  0.24320  Biso   1.000  H
  H14      1.0000 0.22520  0.74260  0.16780  Biso   1.000  H
  H15      1.0000 0.64290  0.88610  0.44540  Biso   1.000  H
  H16      1.0000 0.77480  0.94260  0.51740  Biso   1.000  H
  H17      1.0000 0.44540  0.64290  0.88610  Biso   1.000  H
  H18      1.0000 0.51740  0.77480  0.94260  Biso   1.000  H
  H19      1.0000 0.24320  0.35710  0.80250  Biso   1.000  H
  H20      1.0000 0.16780  0.22520  0.74260  Biso   1.000  H
  H21      1.0000 0.55460  0.44070  0.19750  Biso   1.000  H
  H22      1.0000 0.48260  0.42520  0.25740  Biso   1.000  H
  H23      1.0000 0.75680  0.55930  0.11390  Biso   1.000  H
  H24      1.0000 0.83220  0.57480  0.05740  Biso   1.000  H
  H25      1.0000 0.75680  0.19750  0.64290  Biso   1.000  H
  H26      1.0000 0.83220  0.25740  0.77480  Biso   1.000  H
  H27      1.0000 0.55460  0.11390  0.35710  Biso   1.000  H
  H28      1.0000 0.48260  0.05740  0.22520  Biso   1.000  H
  H29      1.0000 0.24320  0.88610  0.44070  Biso   1.000  H
  H30      1.0000 0.16780  0.94260  0.42520  Biso   1.000  H
  H31      1.0000 0.44540  0.80250  0.55930  Biso   1.000  H
  H32      1.0000 0.51740  0.74260  0.57480  Biso   1.000  H
  H33      1.0000 0.88610  0.44070  0.24320  Biso   1.000  H
  H34      1.0000 0.94260  0.42520  0.16780  Biso   1.000  H
  H35      1.0000 0.80250  0.55930  0.44540  Biso   1.000  H
  H36      1.0000 0.74260  0.57480  0.51740  Biso   1.000  H
  H37      1.0000 0.19750  0.64290  0.75680  Biso   1.000  H
  H38      1.0000 0.25740  0.77480  0.83220  Biso   1.000  H
  H39      1.0000 0.11390  0.35710  0.55460  Biso   1.000  H
  H40      1.0000 0.05740  0.22520  0.48260  Biso   1.000  H
  H41      1.0000 0.35710  0.55460  0.11390  Biso   1.000  H
  H42      1.0000 0.22520  0.48260  0.05740  Biso   1.000  H
  H43      1.0000 0.64290  0.75680  0.19750  Biso   1.000  H
  H44      1.0000 0.77480  0.83220  0.25740  Biso   1.000  H
  H45      1.0000 0.55930  0.44540  0.80250  Biso   1.000  H
  H46      1.0000 0.57480  0.51740  0.74260  Biso   1.000  H
  H47      1.0000 0.44070  0.24320  0.88610  Biso   1.000  H
  H48      1.0000 0.42520  0.16780  0.94260  Biso   1.000  H
  H49      1.0000 0.19750  0.75680  0.64290  Biso   1.000  H
  H50      1.0000 0.25740  0.83220  0.77480  Biso   1.000  H
  H51      1.0000 0.11390  0.55460  0.35710  Biso   1.000  H
  H52      1.0000 0.05740  0.48260  0.22520  Biso   1.000  H
  H53      1.0000 0.88610  0.24320  0.44070  Biso   1.000  H
  H54      1.0000 0.94260  0.16780  0.42520  Biso   1.000  H
  H55      1.0000 0.80250  0.44540  0.55930  Biso   1.000  H
  H56      1.0000 0.74260  0.51740  0.57480  Biso   1.000  H
  H57      1.0000 0.44070  0.88610  0.24320  Biso   1.000  H
  H58      1.0000 0.42520  0.94260  0.16780  Biso   1.000  H
  H59      1.0000 0.55930  0.80250  0.44540  Biso   1.000  H
  H60      1.0000 0.57480  0.74260  0.51740  Biso   1.000  H
  H61      1.0000 0.64290  0.19750  0.75680  Biso   1.000  H
  H62      1.0000 0.77480  0.25740  0.83220  Biso   1.000  H
  H63      1.0000 0.35710  0.11390  0.55460  Biso   1.000  H
  H64      1.0000 0.22520  0.05740  0.48260  Biso   1.000  H
  H65      1.0000 0.55460  0.35710  0.11390  Biso   1.000  H
  H66      1.0000 0.48260  0.22520  0.05740  Biso   1.000  H
  H67      1.0000 0.75680  0.64290  0.19750  Biso   1.000  H
  H68      1.0000 0.83220  0.77480  0.25740  Biso   1.000  H
  H69      1.0000 0.44540  0.55930  0.80250  Biso   1.000  H
  H70      1.0000 0.51740  0.57480  0.74260  Biso   1.000  H
  H71      1.0000 0.24320  0.44070  0.88610  Biso   1.000  H
  H72      1.0000 0.16780  0.42520  0.94260  Biso   1.000  H
  H73      1.0000 0.24320  0.80250  0.35710  Biso   1.000  H
  H74      1.0000 0.16780  0.74260  0.22520  Biso   1.000  H
  H75      1.0000 0.44540  0.88610  0.64290  Biso   1.000  H
  H76      1.0000 0.51740  0.94260  0.77480  Biso   1.000  H
  H77      1.0000 0.75680  0.11390  0.55930  Biso   1.000  H
  H78      1.0000 0.83220  0.05740  0.57480  Biso   1.000  H
  H79      1.0000 0.55460  0.19750  0.44070  Biso   1.000  H
  H80      1.0000 0.48260  0.25740  0.42520  Biso   1.000  H
  H81      1.0000 0.11390  0.55930  0.75680  Biso   1.000  H
  H82      1.0000 0.05740  0.57480  0.83220  Biso   1.000  H
  H83      1.0000 0.19750  0.44070  0.55460  Biso   1.000  H
  H84      1.0000 0.25740  0.42520  0.48260  Biso   1.000  H
  H85      1.0000 0.80250  0.35710  0.24320  Biso   1.000  H
  H86      1.0000 0.74260  0.22520  0.16780  Biso   1.000  H
  H87      1.0000 0.88610  0.64290  0.44540  Biso   1.000  H
  H88      1.0000 0.94260  0.77480  0.51740  Biso   1.000  H
  H89      1.0000 0.64290  0.44540  0.88610  Biso   1.000  H
  H90      1.0000 0.77480  0.51740  0.94260  Biso   1.000  H
  H91      1.0000 0.35710  0.24320  0.80250  Biso   1.000  H
  H92      1.0000 0.22520  0.16780  0.74260  Biso   1.000  H
  H93      1.0000 0.44070  0.55460  0.19750  Biso   1.000  H
  H94      1.0000 0.42520  0.48260  0.25740  Biso   1.000  H
  H95      1.0000 0.55930  0.75680  0.11390  Biso   1.000  H
  H96      1.0000 0.57480  0.83220  0.05740  Biso   1.000  H
  C1       1.0000 0.79570  0.21670  0.37320  Biso   1.000  C
  C2       1.0000 0.71530  0.18220  0.21450  Biso   1.000  C
  C3       1.0000 0.84350  0.42250  0.62680  Biso   1.000  C
  C4       1.0000 0.96770  0.50080  0.78550  Biso   1.000  C
  C5       1.0000 0.15650  0.78330  0.57900  Biso   1.000  C
  C6       1.0000 0.03230  0.81780  0.53310  Biso   1.000  C
  C7       1.0000 0.20430  0.57750  0.42100  Biso   1.000  C
  C8       1.0000 0.28470  0.49920  0.46690  Biso   1.000  C
  C9       1.0000 0.57900  0.15650  0.78330  Biso   1.000  C
  C10      1.0000 0.53310  0.03230  0.81780  Biso   1.000  C
  C11      1.0000 0.42100  0.20430  0.57750  Biso   1.000  C
  C12      1.0000 0.46690  0.28470  0.49920  Biso   1.000  C
  C13      1.0000 0.37320  0.79570  0.21670  Biso   1.000  C
  C14      1.0000 0.21450  0.71530  0.18220  Biso   1.000  C
  C15      1.0000 0.62680  0.84350  0.42250  Biso   1.000  C
  C16      1.0000 0.78550  0.96770  0.50080  Biso   1.000  C
  C17      1.0000 0.42250  0.62680  0.84350  Biso   1.000  C
  C18      1.0000 0.50080  0.78550  0.96770  Biso   1.000  C
  C19      1.0000 0.21670  0.37320  0.79570  Biso   1.000  C
  C20      1.0000 0.18220  0.21450  0.71530  Biso   1.000  C
  C21      1.0000 0.57750  0.42100  0.20430  Biso   1.000  C
  C22      1.0000 0.49920  0.46690  0.28470  Biso   1.000  C
  C23      1.0000 0.78330  0.57900  0.15650  Biso   1.000  C
  C24      1.0000 0.81780  0.53310  0.03230  Biso   1.000  C
  C25      1.0000 0.78330  0.20430  0.62680  Biso   1.000  C
  C26      1.0000 0.81780  0.28470  0.78550  Biso   1.000  C
  C27      1.0000 0.57750  0.15650  0.37320  Biso   1.000  C
  C28      1.0000 0.49920  0.03230  0.21450  Biso   1.000  C
  C29      1.0000 0.21670  0.84350  0.42100  Biso   1.000  C
  C30      1.0000 0.18220  0.96770  0.46690  Biso   1.000  C
  C31      1.0000 0.42250  0.79570  0.57900  Biso   1.000  C
  C32      1.0000 0.50080  0.71530  0.53310  Biso   1.000  C
  C33      1.0000 0.84350  0.42100  0.21670  Biso   1.000  C
  C34      1.0000 0.96770  0.46690  0.18220  Biso   1.000  C
  C35      1.0000 0.79570  0.57900  0.42250  Biso   1.000  C
  C36      1.0000 0.71530  0.53310  0.50080  Biso   1.000  C
  C37      1.0000 0.20430  0.62680  0.78330  Biso   1.000  C
  C38      1.0000 0.28470  0.78550  0.81780  Biso   1.000  C
  C39      1.0000 0.15650  0.37320  0.57750  Biso   1.000  C
  C40      1.0000 0.03230  0.21450  0.49920  Biso   1.000  C
  C41      1.0000 0.37320  0.57750  0.15650  Biso   1.000  C
  C42      1.0000 0.21450  0.49920  0.03230  Biso   1.000  C
  C43      1.0000 0.62680  0.78330  0.20430  Biso   1.000  C
  C44      1.0000 0.78550  0.81780  0.28470  Biso   1.000  C
  C45      1.0000 0.57900  0.42250  0.79570  Biso   1.000  C
  C46      1.0000 0.53310  0.50080  0.71530  Biso   1.000  C
  C47      1.0000 0.42100  0.21670  0.84350  Biso   1.000  C
  C48      1.0000 0.46690  0.18220  0.96770  Biso   1.000  C
  C49      1.0000 0.20430  0.78330  0.62680  Biso   1.000  C
  C50      1.0000 0.28470  0.81780  0.78550  Biso   1.000  C
  C51      1.0000 0.15650  0.57750  0.37320  Biso   1.000  C
  C52      1.0000 0.03230  0.49920  0.21450  Biso   1.000  C
  C53      1.0000 0.84350  0.21670  0.42100  Biso   1.000  C
  C54      1.0000 0.96770  0.18220  0.46690  Biso   1.000  C
  C55      1.0000 0.79570  0.42250  0.57900  Biso   1.000  C
  C56      1.0000 0.71530  0.50080  0.53310  Biso   1.000  C
  C57      1.0000 0.42100  0.84350  0.21670  Biso   1.000  C
  C58      1.0000 0.46690  0.96770  0.18220  Biso   1.000  C
  C59      1.0000 0.57900  0.79570  0.42250  Biso   1.000  C
  C60      1.0000 0.53310  0.71530  0.50080  Biso   1.000  C
  C61      1.0000 0.62680  0.20430  0.78330  Biso   1.000  C
  C62      1.0000 0.78550  0.28470  0.81780  Biso   1.000  C
  C63      1.0000 0.37320  0.15650  0.57750  Biso   1.000  C
  C64      1.0000 0.21450  0.03230  0.49920  Biso   1.000  C
  C65      1.0000 0.57750  0.37320  0.15650  Biso   1.000  C
  C66      1.0000 0.49920  0.21450  0.03230  Biso   1.000  C
  C67      1.0000 0.78330  0.62680  0.20430  Biso   1.000  C
  C68      1.0000 0.81780  0.78550  0.28470  Biso   1.000  C
  C69      1.0000 0.42250  0.57900  0.79570  Biso   1.000  C
  C70      1.0000 0.50080  0.53310  0.71530  Biso   1.000  C
  C71      1.0000 0.21670  0.42100  0.84350  Biso   1.000  C
  C72      1.0000 0.18220  0.46690  0.96770  Biso   1.000  C
  C73      1.0000 0.21670  0.79570  0.37320  Biso   1.000  C
  C74      1.0000 0.18220  0.71530  0.21450  Biso   1.000  C
  C75      1.0000 0.42250  0.84350  0.62680  Biso   1.000  C
  C76      1.0000 0.50080  0.96770  0.78550  Biso   1.000  C
  C77      1.0000 0.78330  0.15650  0.57900  Biso   1.000  C
  C78      1.0000 0.81780  0.03230  0.53310  Biso   1.000  C
  C79      1.0000 0.57750  0.20430  0.42100  Biso   1.000  C
  C80      1.0000 0.49920  0.28470  0.46690  Biso   1.000  C
  C81      1.0000 0.15650  0.57900  0.78330  Biso   1.000  C
  C82      1.0000 0.03230  0.53310  0.81780  Biso   1.000  C
  C83      1.0000 0.20430  0.42100  0.57750  Biso   1.000  C
  C84      1.0000 0.28470  0.46690  0.49920  Biso   1.000  C
  C85      1.0000 0.79570  0.37320  0.21670  Biso   1.000  C
  C86      1.0000 0.71530  0.21450  0.18220  Biso   1.000  C
  C87      1.0000 0.84350  0.62680  0.42250  Biso   1.000  C
  C88      1.0000 0.96770  0.78550  0.50080  Biso   1.000  C
  C89      1.0000 0.62680  0.42250  0.84350  Biso   1.000  C
  C90      1.0000 0.78550  0.50080  0.96770  Biso   1.000  C
  C91      1.0000 0.37320  0.21670  0.79570  Biso   1.000  C
  C92      1.0000 0.21450  0.18220  0.71530  Biso   1.000  C
  C93      1.0000 0.42100  0.57750  0.20430  Biso   1.000  C
  C94      1.0000 0.46690  0.49920  0.28470  Biso   1.000  C
  C95      1.0000 0.57900  0.78330  0.15650  Biso   1.000  C
  C96      1.0000 0.53310  0.81780  0.03230  Biso   1.000  C
  C97      1.0000 0.75470  0.14760  0.39290  Biso   1.000  C
  C98      1.0000 0.75470  0.36180  0.60710  Biso   1.000  C
  C99      1.0000 0.24530  0.85240  0.60710  Biso   1.000  C
  C100     1.0000 0.24530  0.63820  0.39290  Biso   1.000  C
  C101     1.0000 0.60710  0.24530  0.85240  Biso   1.000  C
  C102     1.0000 0.39290  0.24530  0.63820  Biso   1.000  C
  C103     1.0000 0.39290  0.75470  0.14760  Biso   1.000  C
  C104     1.0000 0.60710  0.75470  0.36180  Biso   1.000  C
  C105     1.0000 0.36180  0.60710  0.75470  Biso   1.000  C
  C106     1.0000 0.14760  0.39290  0.75470  Biso   1.000  C
  C107     1.0000 0.63820  0.39290  0.24530  Biso   1.000  C
  C108     1.0000 0.85240  0.60710  0.24530  Biso   1.000  C
  C109     1.0000 0.85240  0.24530  0.60710  Biso   1.000  C
  C110     1.0000 0.63820  0.24530  0.39290  Biso   1.000  C
  C111     1.0000 0.14760  0.75470  0.39290  Biso   1.000  C
  C112     1.0000 0.36180  0.75470  0.60710  Biso   1.000  C
  C113     1.0000 0.75470  0.39290  0.14760  Biso   1.000  C
  C114     1.0000 0.75470  0.60710  0.36180  Biso   1.000  C
  C115     1.0000 0.24530  0.60710  0.85240  Biso   1.000  C
  C116     1.0000 0.24530  0.39290  0.63820  Biso   1.000  C
  C117     1.0000 0.39290  0.63820  0.24530  Biso   1.000  C
  C118     1.0000 0.60710  0.85240  0.24530  Biso   1.000  C
  C119     1.0000 0.60710  0.36180  0.75470  Biso   1.000  C
  C120     1.0000 0.39290  0.14760  0.75470  Biso   1.000  C
  C121     1.0000 0.64260  0.20380  0.20380  Biso   1.000  C
  C122     1.0000 0.00000  0.43880  0.79620  Biso   1.000  C
  C123     1.0000 0.00000  0.79620  0.43880  Biso   1.000  C
  C124     1.0000 0.35740  0.56120  0.56120  Biso   1.000  C
  C125     1.0000 0.43880  0.00000  0.79620  Biso   1.000  C
  C126     1.0000 0.56120  0.35740  0.56120  Biso   1.000  C
  C127     1.0000 0.20380  0.64260  0.20380  Biso   1.000  C
  C128     1.0000 0.79620  0.00000  0.43880  Biso   1.000  C
  C129     1.0000 0.43880  0.79620  0.00000  Biso   1.000  C
  C130     1.0000 0.20380  0.20380  0.64260  Biso   1.000  C
  C131     1.0000 0.56120  0.56120  0.35740  Biso   1.000  C
  C132     1.0000 0.79620  0.43880  0.00000  Biso   1.000  C
  C133     1.0000 0.79620  0.35740  0.79620  Biso   1.000  C
  C134     1.0000 0.56120  0.00000  0.20380  Biso   1.000  C
  C135     1.0000 0.20380  0.00000  0.56120  Biso   1.000  C
  C136     1.0000 0.43880  0.64260  0.43880  Biso   1.000  C
  C137     1.0000 0.00000  0.56120  0.20380  Biso   1.000  C
  C138     1.0000 0.64260  0.43880  0.43880  Biso   1.000  C
  C139     1.0000 0.35740  0.79620  0.79620  Biso   1.000  C
  C140     1.0000 0.00000  0.20380  0.56120  Biso   1.000  C
  C141     1.0000 0.20380  0.56120  0.00000  Biso   1.000  C
  C142     1.0000 0.79620  0.79620  0.35740  Biso   1.000  C
  C143     1.0000 0.43880  0.43880  0.64260  Biso   1.000  C
  C144     1.0000 0.56120  0.20380  0.00000  Biso   1.000  C
  N1       1.0000 0.74290  0.17420  0.35730  Biso   1.000  N
  N2       1.0000 0.66930  0.17540  0.22770  Biso   1.000  N
  N3       1.0000 0.81690  0.38560  0.64270  Biso   1.000  N
  N4       1.0000 0.94770  0.44160  0.77230  Biso   1.000  N
  N5       1.0000 0.18310  0.82580  0.56870  Biso   1.000  N
  N6       1.0000 0.05230  0.82460  0.49390  Biso   1.000  N
  N7       1.0000 0.25710  0.61440  0.43130  Biso   1.000  N
  N8       1.0000 0.33070  0.55840  0.50610  Biso   1.000  N
  N9       1.0000 0.56870  0.18310  0.82580  Biso   1.000  N
  N10      1.0000 0.49390  0.05230  0.82460  Biso   1.000  N
  N11      1.0000 0.43130  0.25710  0.61440  Biso   1.000  N
  N12      1.0000 0.50610  0.33070  0.55840  Biso   1.000  N
  N13      1.0000 0.35730  0.74290  0.17420  Biso   1.000  N
  N14      1.0000 0.22770  0.66930  0.17540  Biso   1.000  N
  N15      1.0000 0.64270  0.81690  0.38560  Biso   1.000  N
  N16      1.0000 0.77230  0.94770  0.44160  Biso   1.000  N
  N17      1.0000 0.38560  0.64270  0.81690  Biso   1.000  N
  N18      1.0000 0.44160  0.77230  0.94770  Biso   1.000  N
  N19      1.0000 0.17420  0.35730  0.74290  Biso   1.000  N
  N20      1.0000 0.17540  0.22770  0.66930  Biso   1.000  N
  N21      1.0000 0.61440  0.43130  0.25710  Biso   1.000  N
  N22      1.0000 0.55840  0.50610  0.33070  Biso   1.000  N
  N23      1.0000 0.82580  0.56870  0.18310  Biso   1.000  N
  N24      1.0000 0.82460  0.49390  0.05230  Biso   1.000  N
  N25      1.0000 0.82580  0.25710  0.64270  Biso   1.000  N
  N26      1.0000 0.82460  0.33070  0.77230  Biso   1.000  N
  N27      1.0000 0.61440  0.18310  0.35730  Biso   1.000  N
  N28      1.0000 0.55840  0.05230  0.22770  Biso   1.000  N
  N29      1.0000 0.17420  0.81690  0.43130  Biso   1.000  N
  N30      1.0000 0.17540  0.94770  0.50610  Biso   1.000  N
  N31      1.0000 0.38560  0.74290  0.56870  Biso   1.000  N
  N32      1.0000 0.44160  0.66930  0.49390  Biso   1.000  N
  N33      1.0000 0.81690  0.43130  0.17420  Biso   1.000  N
  N34      1.0000 0.94770  0.50610  0.17540  Biso   1.000  N
  N35      1.0000 0.74290  0.56870  0.38560  Biso   1.000  N
  N36      1.0000 0.66930  0.49390  0.44160  Biso   1.000  N
  N37      1.0000 0.25710  0.64270  0.82580  Biso   1.000  N
  N38      1.0000 0.33070  0.77230  0.82460  Biso   1.000  N
  N39      1.0000 0.18310  0.35730  0.61440  Biso   1.000  N
  N40      1.0000 0.05230  0.22770  0.55840  Biso   1.000  N
  N41      1.0000 0.35730  0.61440  0.18310  Biso   1.000  N
  N42      1.0000 0.22770  0.55840  0.05230  Biso   1.000  N
  N43      1.0000 0.64270  0.82580  0.25710  Biso   1.000  N
  N44      1.0000 0.77230  0.82460  0.33070  Biso   1.000  N
  N45      1.0000 0.56870  0.38560  0.74290  Biso   1.000  N
  N46      1.0000 0.49390  0.44160  0.66930  Biso   1.000  N
  N47      1.0000 0.43130  0.17420  0.81690  Biso   1.000  N
  N48      1.0000 0.50610  0.17540  0.94770  Biso   1.000  N
  N49      1.0000 0.25710  0.82580  0.64270  Biso   1.000  N
  N50      1.0000 0.33070  0.82460  0.77230  Biso   1.000  N
  N51      1.0000 0.18310  0.61440  0.35730  Biso   1.000  N
  N52      1.0000 0.05230  0.55840  0.22770  Biso   1.000  N
  N53      1.0000 0.81690  0.17420  0.43130  Biso   1.000  N
  N54      1.0000 0.94770  0.17540  0.50610  Biso   1.000  N
  N55      1.0000 0.74290  0.38560  0.56870  Biso   1.000  N
  N56      1.0000 0.66930  0.44160  0.49390  Biso   1.000  N
  N57      1.0000 0.43130  0.81690  0.17420  Biso   1.000  N
  N58      1.0000 0.50610  0.94770  0.17540  Biso   1.000  N
  N59      1.0000 0.56870  0.74290  0.38560  Biso   1.000  N
  N60      1.0000 0.49390  0.66930  0.44160  Biso   1.000  N
  N61      1.0000 0.64270  0.25710  0.82580  Biso   1.000  N
  N62      1.0000 0.77230  0.33070  0.82460  Biso   1.000  N
  N63      1.0000 0.35730  0.18310  0.61440  Biso   1.000  N
  N64      1.0000 0.22770  0.05230  0.55840  Biso   1.000  N
  N65      1.0000 0.61440  0.35730  0.18310  Biso   1.000  N
  N66      1.0000 0.55840  0.22770  0.05230  Biso   1.000  N
  N67      1.0000 0.82580  0.64270  0.25710  Biso   1.000  N
  N68      1.0000 0.82460  0.77230  0.33070  Biso   1.000  N
  N69      1.0000 0.38560  0.56870  0.74290  Biso   1.000  N
  N70      1.0000 0.44160  0.49390  0.66930  Biso   1.000  N
  N71      1.0000 0.17420  0.43130  0.81690  Biso   1.000  N
  N72      1.0000 0.17540  0.50610  0.94770  Biso   1.000  N
  N73      1.0000 0.17420  0.74290  0.35730  Biso   1.000  N
  N74      1.0000 0.17540  0.66930  0.22770  Biso   1.000  N
  N75      1.0000 0.38560  0.81690  0.64270  Biso   1.000  N
  N76      1.0000 0.44160  0.94770  0.77230  Biso   1.000  N
  N77      1.0000 0.82580  0.18310  0.56870  Biso   1.000  N
  N78      1.0000 0.82460  0.05230  0.49390  Biso   1.000  N
  N79      1.0000 0.61440  0.25710  0.43130  Biso   1.000  N
  N80      1.0000 0.55840  0.33070  0.50610  Biso   1.000  N
  N81      1.0000 0.18310  0.56870  0.82580  Biso   1.000  N
  N82      1.0000 0.05230  0.49390  0.82460  Biso   1.000  N
  N83      1.0000 0.25710  0.43130  0.61440  Biso   1.000  N
  N84      1.0000 0.33070  0.50610  0.55840  Biso   1.000  N
  N85      1.0000 0.74290  0.35730  0.17420  Biso   1.000  N
  N86      1.0000 0.66930  0.22770  0.17540  Biso   1.000  N
  N87      1.0000 0.81690  0.64270  0.38560  Biso   1.000  N
  N88      1.0000 0.94770  0.77230  0.44160  Biso   1.000  N
  N89      1.0000 0.64270  0.38560  0.81690  Biso   1.000  N
  N90      1.0000 0.77230  0.44160  0.94770  Biso   1.000  N
  N91      1.0000 0.35730  0.17420  0.74290  Biso   1.000  N
  N92      1.0000 0.22770  0.17540  0.66930  Biso   1.000  N
  N93      1.0000 0.43130  0.61440  0.25710  Biso   1.000  N
  N94      1.0000 0.50610  0.55840  0.33070  Biso   1.000  N
  N95      1.0000 0.56870  0.82580  0.18310  Biso   1.000  N
  N96      1.0000 0.49390  0.82460  0.05230  Biso   1.000  N
  N97      1.0000 0.70910  0.09980  0.39070  Biso   1.000  N
  N98      1.0000 0.70910  0.31840  0.60930  Biso   1.000  N
  N99      1.0000 0.29090  0.90020  0.60930  Biso   1.000  N
  N100     1.0000 0.29090  0.68160  0.39070  Biso   1.000  N
  N101     1.0000 0.60930  0.29090  0.90020  Biso   1.000  N
  N102     1.0000 0.39070  0.29090  0.68160  Biso   1.000  N
  N103     1.0000 0.39070  0.70910  0.09980  Biso   1.000  N
  N104     1.0000 0.60930  0.70910  0.31840  Biso   1.000  N
  N105     1.0000 0.31840  0.60930  0.70910  Biso   1.000  N
  N106     1.0000 0.09980  0.39070  0.70910  Biso   1.000  N
  N107     1.0000 0.68160  0.39070  0.29090  Biso   1.000  N
  N108     1.0000 0.90020  0.60930  0.29090  Biso   1.000  N
  N109     1.0000 0.90020  0.29090  0.60930  Biso   1.000  N
  N110     1.0000 0.68160  0.29090  0.39070  Biso   1.000  N
  N111     1.0000 0.09980  0.70910  0.39070  Biso   1.000  N
  N112     1.0000 0.31840  0.70910  0.60930  Biso   1.000  N
  N113     1.0000 0.70910  0.39070  0.09980  Biso   1.000  N
  N114     1.0000 0.70910  0.60930  0.31840  Biso   1.000  N
  N115     1.0000 0.29090  0.60930  0.90020  Biso   1.000  N
  N116     1.0000 0.29090  0.39070  0.68160  Biso   1.000  N
  N117     1.0000 0.39070  0.68160  0.29090  Biso   1.000  N
  N118     1.0000 0.60930  0.90020  0.29090  Biso   1.000  N
  N119     1.0000 0.60930  0.31840  0.70910  Biso   1.000  N
  N120     1.0000 0.39070  0.09980  0.70910  Biso   1.000  N
  N121     1.0000 0.59160  0.20630  0.20630  Biso   1.000  N
  N122     1.0000 0.00000  0.38530  0.79370  Biso   1.000  N
  N123     1.0000 0.00000  0.79370  0.38530  Biso   1.000  N
  N124     1.0000 0.40840  0.61470  0.61470  Biso   1.000  N
  N125     1.0000 0.38530  0.00000  0.79370  Biso   1.000  N
  N126     1.0000 0.61470  0.40840  0.61470  Biso   1.000  N
  N127     1.0000 0.20630  0.59160  0.20630  Biso   1.000  N
  N128     1.0000 0.79370  0.00000  0.38530  Biso   1.000  N
  N129     1.0000 0.38530  0.79370  0.00000  Biso   1.000  N
  N130     1.0000 0.20630  0.20630  0.59160  Biso   1.000  N
  N131     1.0000 0.61470  0.61470  0.40840  Biso   1.000  N
  N132     1.0000 0.79370  0.38530  0.00000  Biso   1.000  N
  N133     1.0000 0.79370  0.40840  0.79370  Biso   1.000  N
  N134     1.0000 0.61470  0.00000  0.20630  Biso   1.000  N
  N135     1.0000 0.20630  0.00000  0.61470  Biso   1.000  N
  N136     1.0000 0.38530  0.59160  0.38530  Biso   1.000  N
  N137     1.0000 0.00000  0.61470  0.20630  Biso   1.000  N
  N138     1.0000 0.59160  0.38530  0.38530  Biso   1.000  N
  N139     1.0000 0.40840  0.79370  0.79370  Biso   1.000  N
  N140     1.0000 0.00000  0.20630  0.61470  Biso   1.000  N
  N141     1.0000 0.20630  0.61470  1.00000  Biso   1.000  N
  N142     1.0000 0.79370  0.79370  0.40840  Biso   1.000  N
  N143     1.0000 0.38530  0.38530  0.59160  Biso   1.000  N
  N144     1.0000 0.61470  0.20630  0.00000  Biso   1.000  N
  O1       1.0000 0.72560  0.08030  0.42490  Biso   1.000  O
  O2       1.0000 0.56980  0.23190  0.18190  Biso   1.000  O
  O3       1.0000 0.65540  0.30070  0.57510  Biso   1.000  O
  O4       1.0000 0.05000  0.38790  0.81810  Biso   1.000  O
  O5       1.0000 0.34460  0.91970  0.64530  Biso   1.000  O
  O6       1.0000 0.95000  0.76810  0.33790  Biso   1.000  O
  O7       1.0000 0.27440  0.69930  0.35470  Biso   1.000  O
  O8       1.0000 0.43020  0.61210  0.66210  Biso   1.000  O
  O9       1.0000 0.64530  0.34460  0.91970  Biso   1.000  O
  O10      1.0000 0.33790  0.95000  0.76810  Biso   1.000  O
  O11      1.0000 0.35470  0.27440  0.69930  Biso   1.000  O
  O12      1.0000 0.66210  0.43020  0.61210  Biso   1.000  O
  O13      1.0000 0.42490  0.72560  0.08030  Biso   1.000  O
  O14      1.0000 0.18190  0.56980  0.23190  Biso   1.000  O
  O15      1.0000 0.57510  0.65540  0.30070  Biso   1.000  O
  O16      1.0000 0.81810  0.05000  0.38790  Biso   1.000  O
  O17      1.0000 0.30070  0.57510  0.65540  Biso   1.000  O
  O18      1.0000 0.38790  0.81810  0.05000  Biso   1.000  O
  O19      1.0000 0.08030  0.42490  0.72560  Biso   1.000  O
  O20      1.0000 0.23190  0.18190  0.56980  Biso   1.000  O
  O21      1.0000 0.69930  0.35470  0.27440  Biso   1.000  O
  O22      1.0000 0.61210  0.66210  0.43020  Biso   1.000  O
  O23      1.0000 0.91970  0.64530  0.34460  Biso   1.000  O
  O24      1.0000 0.76810  0.33790  0.95000  Biso   1.000  O
  O25      1.0000 0.91970  0.27440  0.57510  Biso   1.000  O
  O26      1.0000 0.76810  0.43020  0.81810  Biso   1.000  O
  O27      1.0000 0.69930  0.34460  0.42490  Biso   1.000  O
  O28      1.0000 0.61210  0.95000  0.18190  Biso   1.000  O
  O29      1.0000 0.08030  0.65540  0.35470  Biso   1.000  O
  O30      1.0000 0.23190  0.05000  0.66210  Biso   1.000  O
  O31      1.0000 0.30070  0.72560  0.64530  Biso   1.000  O
  O32      1.0000 0.38790  0.56980  0.33790  Biso   1.000  O
  O33      1.0000 0.65540  0.35470  0.08030  Biso   1.000  O
  O34      1.0000 0.05000  0.66210  0.23190  Biso   1.000  O
  O35      1.0000 0.72560  0.64530  0.30070  Biso   1.000  O
  O36      1.0000 0.56980  0.33790  0.38790  Biso   1.000  O
  O37      1.0000 0.27440  0.57510  0.91970  Biso   1.000  O
  O38      1.0000 0.43020  0.81810  0.76810  Biso   1.000  O
  O39      1.0000 0.34460  0.42490  0.69930  Biso   1.000  O
  O40      1.0000 0.95000  0.18190  0.61210  Biso   1.000  O
  O41      1.0000 0.42490  0.69930  0.34460  Biso   1.000  O
  O42      1.0000 0.18190  0.61210  0.95000  Biso   1.000  O
  O43      1.0000 0.57510  0.91970  0.27440  Biso   1.000  O
  O44      1.0000 0.81810  0.76810  0.43020  Biso   1.000  O
  O45      1.0000 0.64530  0.30070  0.72560  Biso   1.000  O
  O46      1.0000 0.33790  0.38790  0.56980  Biso   1.000  O
  O47      1.0000 0.35470  0.08030  0.65540  Biso   1.000  O
  O48      1.0000 0.66210  0.23190  0.05000  Biso   1.000  O
  O49      1.0000 0.27440  0.91970  0.57510  Biso   1.000  O
  O50      1.0000 0.43020  0.76810  0.81810  Biso   1.000  O
  O51      1.0000 0.34460  0.69930  0.42490  Biso   1.000  O
  O52      1.0000 0.95000  0.61210  0.18190  Biso   1.000  O
  O53      1.0000 0.65540  0.08030  0.35470  Biso   1.000  O
  O54      1.0000 0.05000  0.23190  0.66210  Biso   1.000  O
  O55      1.0000 0.72560  0.30070  0.64530  Biso   1.000  O
  O56      1.0000 0.56980  0.38790  0.33790  Biso   1.000  O
  O57      1.0000 0.35470  0.65540  0.08030  Biso   1.000  O
  O58      1.0000 0.66210  0.05000  0.23190  Biso   1.000  O
  O59      1.0000 0.64530  0.72560  0.30070  Biso   1.000  O
  O60      1.0000 0.33790  0.56980  0.38790  Biso   1.000  O
  O61      1.0000 0.57510  0.27440  0.91970  Biso   1.000  O
  O62      1.0000 0.81810  0.43020  0.76810  Biso   1.000  O
  O63      1.0000 0.42490  0.34460  0.69930  Biso   1.000  O
  O64      1.0000 0.18190  0.95000  0.61210  Biso   1.000  O
  O65      1.0000 0.69930  0.42490  0.34460  Biso   1.000  O
  O66      1.0000 0.61210  0.18190  0.95000  Biso   1.000  O
  O67      1.0000 0.91970  0.57510  0.27440  Biso   1.000  O
  O68      1.0000 0.76810  0.81810  0.43020  Biso   1.000  O
  O69      1.0000 0.30070  0.64530  0.72560  Biso   1.000  O
  O70      1.0000 0.38790  0.33790  0.56980  Biso   1.000  O
  O71      1.0000 0.08030  0.35470  0.65540  Biso   1.000  O
  O72      1.0000 0.23190  0.66210  0.05000  Biso   1.000  O
  O73      1.0000 0.08030  0.72560  0.42490  Biso   1.000  O
  O74      1.0000 0.23190  0.56980  0.18190  Biso   1.000  O
  O75      1.0000 0.30070  0.65540  0.57510  Biso   1.000  O
  O76      1.0000 0.38790  0.05000  0.81810  Biso   1.000  O
  O77      1.0000 0.91970  0.34460  0.64530  Biso   1.000  O
  O78      1.0000 0.76810  0.95000  0.33790  Biso   1.000  O
  O79      1.0000 0.69930  0.27440  0.35470  Biso   1.000  O
  O80      1.0000 0.61210  0.43020  0.66210  Biso   1.000  O
  O81      1.0000 0.34460  0.64530  0.91970  Biso   1.000  O
  O82      1.0000 0.95000  0.33790  0.76810  Biso   1.000  O
  O83      1.0000 0.27440  0.35470  0.69930  Biso   1.000  O
  O84      1.0000 0.43020  0.66210  0.61210  Biso   1.000  O
  O85      1.0000 0.72560  0.42490  0.08030  Biso   1.000  O
  O86      1.0000 0.56980  0.18190  0.23190  Biso   1.000  O
  O87      1.0000 0.65540  0.57510  0.30070  Biso   1.000  O
  O88      1.0000 0.05000  0.81810  0.38790  Biso   1.000  O
  O89      1.0000 0.57510  0.30070  0.65540  Biso   1.000  O
  O90      1.0000 0.81810  0.38790  0.05000  Biso   1.000  O
  O91      1.0000 0.42490  0.08030  0.72560  Biso   1.000  O
  O92      1.0000 0.18190  0.23190  0.56980  Biso   1.000  O
  O93      1.0000 0.35470  0.69930  0.27440  Biso   1.000  O
  O94      1.0000 0.66210  0.61210  0.43020  Biso   1.000  O
  O95      1.0000 0.64530  0.91970  0.34460  Biso   1.000  O
  O96      1.0000 0.33790  0.76810  0.95000  Biso   1.000  O
