data_image0
_cell_length_a       9.247
_cell_length_b       9.4464
_cell_length_c       9.4464
_cell_angle_alpha    101.457
_cell_angle_beta     112.61
_cell_angle_gamma    112.61

_symmetry_space_group_name_H-M    P 1
_symmetry_int_tables_number       1

loop_
  _symmetry_equiv_pos_as_xyz
  'x, y, z'

loop_
  _atom_site_label
  _atom_site_occupancy
  _atom_site_fract_x
  _atom_site_fract_y
  _atom_site_fract_z
  _atom_site_thermal_displace_type
  _atom_site_B_iso_or_equiv
  _atom_site_type_symbol
  Mn1      1.0000 0.75000  0.03461  0.96539  Biso   1.000  Mn
  Mn2      1.0000 0.25000  0.96539  0.03461  Biso   1.000  Mn
  H1       1.0000 0.67690  0.26350  0.50910  Biso   1.000  H
  H2       1.0000 0.78630  0.85790  0.64570  Biso   1.000  H
  H3       1.0000 0.74730  0.86780  0.39100  Biso   1.000  H
  H4       1.0000 0.82310  0.49090  0.73650  Biso   1.000  H
  H5       1.0000 0.71370  0.35430  0.14210  Biso   1.000  H
  H6       1.0000 0.75270  0.60900  0.13220  Biso   1.000  H
  H7       1.0000 0.32310  0.73650  0.49090  Biso   1.000  H
  H8       1.0000 0.21370  0.14210  0.35430  Biso   1.000  H
  H9       1.0000 0.25270  0.13220  0.60900  Biso   1.000  H
  H10      1.0000 0.17690  0.50910  0.26350  Biso   1.000  H
  H11      1.0000 0.28630  0.64570  0.85790  Biso   1.000  H
  H12      1.0000 0.24730  0.39100  0.86780  Biso   1.000  H
  C1       1.0000 0.66850  0.07801  0.25499  Biso   1.000  C
  C2       1.0000 0.70540  0.06600  0.42140  Biso   1.000  C
  C3       1.0000 0.70420  0.18184  0.53656  Biso   1.000  C
  C4       1.0000 0.76760  0.94350  0.61890  Biso   1.000  C
  C5       1.0000 0.74320  0.17711  0.69249  Biso   1.000  C
  C6       1.0000 0.74110  0.94640  0.46520  Biso   1.000  C
  C7       1.0000 0.83150  0.74501  0.92199  Biso   1.000  C
  C8       1.0000 0.79460  0.57860  0.93400  Biso   1.000  C
  C9       1.0000 0.79580  0.46344  0.81816  Biso   1.000  C
  C10      1.0000 0.73240  0.38110  0.05650  Biso   1.000  C
  C11      1.0000 0.75680  0.30751  0.82289  Biso   1.000  C
  C12      1.0000 0.75890  0.53480  0.05360  Biso   1.000  C
  C13      1.0000 0.33150  0.92199  0.74501  Biso   1.000  C
  C14      1.0000 0.29460  0.93400  0.57860  Biso   1.000  C
  C15      1.0000 0.29580  0.81816  0.46344  Biso   1.000  C
  C16      1.0000 0.23240  0.05650  0.38110  Biso   1.000  C
  C17      1.0000 0.25680  0.82289  0.30751  Biso   1.000  C
  C18      1.0000 0.25890  0.05360  0.53480  Biso   1.000  C
  C19      1.0000 0.16850  0.25499  0.07801  Biso   1.000  C
  C20      1.0000 0.20540  0.42140  0.06600  Biso   1.000  C
  C21      1.0000 0.20420  0.53656  0.18184  Biso   1.000  C
  C22      1.0000 0.26760  0.61890  0.94350  Biso   1.000  C
  C23      1.0000 0.24320  0.69249  0.17711  Biso   1.000  C
  C24      1.0000 0.24110  0.46520  0.94640  Biso   1.000  C
  N1       1.0000 0.76820  0.05569  0.73231  Biso   1.000  N
  N2       1.0000 0.73180  0.26769  0.94431  Biso   1.000  N
  N3       1.0000 0.23180  0.94431  0.26769  Biso   1.000  N
  N4       1.0000 0.26820  0.73231  0.05569  Biso   1.000  N
  O1       1.0000 0.77320  0.06511  0.20549  Biso   1.000  O
  O2       1.0000 0.54600  0.10783  0.18337  Biso   1.000  O
  O3       1.0000 0.72680  0.79451  0.93489  Biso   1.000  O
  O4       1.0000 0.95400  0.81663  0.89217  Biso   1.000  O
  O5       1.0000 0.22680  0.93489  0.79451  Biso   1.000  O
  O6       1.0000 0.45400  0.89217  0.81663  Biso   1.000  O
  O7       1.0000 0.27320  0.20549  0.06511  Biso   1.000  O
  O8       1.0000 0.04600  0.18337  0.10783  Biso   1.000  O
