data_image0
_cell_length_a       8.6276
_cell_length_b       9.4066
_cell_length_c       13.0569
_cell_angle_alpha    90
_cell_angle_beta     105.504
_cell_angle_gamma    90

_symmetry_space_group_name_H-M    "P 1"
_symmetry_int_tables_number       1

loop_
  _symmetry_equiv_pos_as_xyz
  'x, y, z'

loop_
  _atom_site_label
  _atom_site_occupancy
  _atom_site_fract_x
  _atom_site_fract_y
  _atom_site_fract_z
  _atom_site_thermal_displace_type
  _atom_site_B_iso_or_equiv
  _atom_site_type_symbol
  N1       1.0000 0.06260  0.94450  0.18170  Biso   1.000  N
  N2       1.0000 0.22760  0.87170  0.99310  Biso   1.000  N
  N3       1.0000 0.83880  0.79850  0.95730  Biso   1.000  N
  N4       1.0000 0.56260  0.44450  0.18170  Biso   1.000  N
  N5       1.0000 0.72760  0.37170  0.99310  Biso   1.000  N
  N6       1.0000 0.33880  0.29850  0.95730  Biso   1.000  N
  N7       1.0000 0.93740  0.94450  0.31830  Biso   1.000  N
  N8       1.0000 0.77240  0.87170  0.50690  Biso   1.000  N
  N9       1.0000 0.16120  0.79850  0.54270  Biso   1.000  N
  N10      1.0000 0.43740  0.44450  0.31830  Biso   1.000  N
  N11      1.0000 0.27240  0.37170  0.50690  Biso   1.000  N
  N12      1.0000 0.66120  0.29850  0.54270  Biso   1.000  N
  N13      1.0000 0.93740  0.05550  0.81830  Biso   1.000  N
  N14      1.0000 0.77240  0.12830  0.00690  Biso   1.000  N
  N15      1.0000 0.16120  0.20150  0.04270  Biso   1.000  N
  N16      1.0000 0.43740  0.55550  0.81830  Biso   1.000  N
  N17      1.0000 0.27240  0.62830  0.00690  Biso   1.000  N
  N18      1.0000 0.66120  0.70150  0.04270  Biso   1.000  N
  N19      1.0000 0.06260  0.05550  0.68170  Biso   1.000  N
  N20      1.0000 0.22760  0.12830  0.49310  Biso   1.000  N
  N21      1.0000 0.83880  0.20150  0.45730  Biso   1.000  N
  N22      1.0000 0.56260  0.55550  0.68170  Biso   1.000  N
  N23      1.0000 0.72760  0.62830  0.49310  Biso   1.000  N
  N24      1.0000 0.33880  0.70150  0.45730  Biso   1.000  N
  Cd1      1.0000 0.00000  0.00000  0.00000  Biso   1.000  Cd
  Cd2      1.0000 0.50000  0.50000  0.00000  Biso   1.000  Cd
  Cd3      1.0000 0.00000  0.00000  0.50000  Biso   1.000  Cd
  Cd4      1.0000 0.50000  0.50000  0.50000  Biso   1.000  Cd
  N25      1.0000 0.00000  0.94720  0.25000  Biso   1.000  N
  N26      1.0000 0.50000  0.44720  0.25000  Biso   1.000  N
  N27      1.0000 1.00000  0.05280  0.75000  Biso   1.000  N
  N28      1.0000 0.50000  0.55280  0.75000  Biso   1.000  N
  N29      1.0000 0.25000  0.75000  0.00000  Biso   1.000  N
  N30      1.0000 0.75000  0.75000  0.50000  Biso   1.000  N
  N31      1.0000 0.75000  0.25000  0.00000  Biso   1.000  N
  N32      1.0000 0.25000  0.25000  0.50000  Biso   1.000  N
  N33      1.0000 0.75000  0.75000  0.00000  Biso   1.000  N
  N34      1.0000 0.25000  0.75000  0.50000  Biso   1.000  N
  N35      1.0000 0.25000  0.25000  0.00000  Biso   1.000  N
  N36      1.0000 0.75000  0.25000  0.50000  Biso   1.000  N
