data_image0
_cell_length_a       16.274
_cell_length_b       20.465
_cell_length_c       21.243
_cell_angle_alpha    90
_cell_angle_beta     90
_cell_angle_gamma    90

_symmetry_space_group_name_H-M    P 1
_symmetry_int_tables_number       1

loop_
  _symmetry_equiv_pos_as_xyz
  'x, y, z'

loop_
  _atom_site_label
  _atom_site_occupancy
  _atom_site_fract_x
  _atom_site_fract_y
  _atom_site_fract_z
  _atom_site_thermal_displace_type
  _atom_site_B_iso_or_equiv
  _atom_site_type_symbol
  Mn1      1.0000 0.25815  0.00889  0.62949  Biso   1.000  Mn
  Mn2      1.0000 0.01662  0.62523  0.49462  Biso   1.000  Mn
  Mn3      1.0000 0.75815  0.99111  0.37051  Biso   1.000  Mn
  Mn4      1.0000 0.51662  0.37477  0.50538  Biso   1.000  Mn
  Mn5      1.0000 0.25815  0.50889  0.87051  Biso   1.000  Mn
  Mn6      1.0000 0.01662  0.12523  0.00538  Biso   1.000  Mn
  Mn7      1.0000 0.75815  0.49111  0.12949  Biso   1.000  Mn
  Mn8      1.0000 0.51662  0.87477  0.99462  Biso   1.000  Mn
  Cr1      1.0000 0.01209  0.88797  0.50169  Biso   1.000  Cr
  Cr2      1.0000 0.26172  0.99989  0.88328  Biso   1.000  Cr
  Cr3      1.0000 0.51209  0.11203  0.49831  Biso   1.000  Cr
  Cr4      1.0000 0.76172  0.00011  0.11672  Biso   1.000  Cr
  Cr5      1.0000 0.01209  0.38797  0.99831  Biso   1.000  Cr
  Cr6      1.0000 0.26172  0.49989  0.61672  Biso   1.000  Cr
  Cr7      1.0000 0.51209  0.61203  0.00169  Biso   1.000  Cr
  Cr8      1.0000 0.76172  0.50011  0.38328  Biso   1.000  Cr
  C1       1.0000 0.01440  0.75980  0.53530  Biso   1.000  C
  C2       1.0000 0.01660  0.76130  0.46210  Biso   1.000  C
  C3       1.0000 0.16330  0.93200  0.54210  Biso   1.000  C
  C4       1.0000 0.09860  0.96730  0.58340  Biso   1.000  C
  C5       1.0000 0.35890  0.08150  0.54240  Biso   1.000  C
  C6       1.0000 0.42000  0.04270  0.58340  Biso   1.000  C
  C7       1.0000 0.35410  0.91710  0.95570  Biso   1.000  C
  C8       1.0000 0.41640  0.96030  0.91870  Biso   1.000  C
  C9       1.0000 0.25310  0.04230  0.76100  Biso   1.000  C
  C10      1.0000 0.26490  0.96550  0.75900  Biso   1.000  C
  C11      1.0000 0.11080  0.03760  0.92760  Biso   1.000  C
  C12      1.0000 0.17560  0.08030  0.96070  Biso   1.000  C
  C13      1.0000 0.51440  0.24020  0.46470  Biso   1.000  C
  C14      1.0000 0.51660  0.23870  0.53790  Biso   1.000  C
  C15      1.0000 0.66330  0.06800  0.45790  Biso   1.000  C
  C16      1.0000 0.59860  0.03270  0.41660  Biso   1.000  C
  C17      1.0000 0.85890  0.91850  0.45760  Biso   1.000  C
  C18      1.0000 0.92000  0.95730  0.41660  Biso   1.000  C
  C19      1.0000 0.85410  0.08290  0.04430  Biso   1.000  C
  C20      1.0000 0.91640  0.03970  0.08130  Biso   1.000  C
  C21      1.0000 0.75310  0.95770  0.23900  Biso   1.000  C
  C22      1.0000 0.76490  0.03450  0.24100  Biso   1.000  C
  C23      1.0000 0.61080  0.96240  0.07240  Biso   1.000  C
  C24      1.0000 0.67560  0.91970  0.03930  Biso   1.000  C
  C25      1.0000 0.01440  0.25980  0.96470  Biso   1.000  C
  C26      1.0000 0.01660  0.26130  0.03790  Biso   1.000  C
  C27      1.0000 0.16330  0.43200  0.95790  Biso   1.000  C
  C28      1.0000 0.09860  0.46730  0.91660  Biso   1.000  C
  C29      1.0000 0.35890  0.58150  0.95760  Biso   1.000  C
  C30      1.0000 0.42000  0.54270  0.91660  Biso   1.000  C
  C31      1.0000 0.35410  0.41710  0.54430  Biso   1.000  C
  C32      1.0000 0.41640  0.46030  0.58130  Biso   1.000  C
  C33      1.0000 0.25310  0.54230  0.73900  Biso   1.000  C
  C34      1.0000 0.26490  0.46550  0.74100  Biso   1.000  C
  C35      1.0000 0.11080  0.53760  0.57240  Biso   1.000  C
  C36      1.0000 0.17560  0.58030  0.53930  Biso   1.000  C
  C37      1.0000 0.51440  0.74020  0.03530  Biso   1.000  C
  C38      1.0000 0.51660  0.73870  0.96210  Biso   1.000  C
  C39      1.0000 0.66330  0.56800  0.04210  Biso   1.000  C
  C40      1.0000 0.59860  0.53270  0.08340  Biso   1.000  C
  C41      1.0000 0.85890  0.41850  0.04240  Biso   1.000  C
  C42      1.0000 0.92000  0.45730  0.08340  Biso   1.000  C
  C43      1.0000 0.85410  0.58290  0.45570  Biso   1.000  C
  C44      1.0000 0.91640  0.53970  0.41870  Biso   1.000  C
  C45      1.0000 0.75310  0.45770  0.26100  Biso   1.000  C
  C46      1.0000 0.76490  0.53450  0.25900  Biso   1.000  C
  C47      1.0000 0.61080  0.46240  0.42760  Biso   1.000  C
  C48      1.0000 0.67560  0.41970  0.46070  Biso   1.000  C
  O1       1.0000 0.01580  0.81470  0.56150  Biso   1.000  O
  O2       1.0000 0.01300  0.81870  0.43810  Biso   1.000  O
  O3       1.0000 0.01120  0.70570  0.56190  Biso   1.000  O
  O4       1.0000 0.01870  0.70860  0.43300  Biso   1.000  O
  O5       1.0000 0.13270  0.89570  0.49840  Biso   1.000  O
  O6       1.0000 0.02320  0.95330  0.56980  Biso   1.000  O
  O7       1.0000 0.23570  0.93950  0.55390  Biso   1.000  O
  O8       1.0000 0.12380  0.00480  0.62320  Biso   1.000  O
  O9       1.0000 0.39090  0.11260  0.49570  Biso   1.000  O
  O10      1.0000 0.49550  0.04730  0.56690  Biso   1.000  O
  O11      1.0000 0.28540  0.07970  0.55650  Biso   1.000  O
  O12      1.0000 0.39250  0.01260  0.62820  Biso   1.000  O
  O13      1.0000 0.38190  0.87450  0.99110  Biso   1.000  O
  O14      1.0000 0.48960  0.94940  0.92330  Biso   1.000  O
  O15      1.0000 0.38240  0.00470  0.88420  Biso   1.000  O
  O16      1.0000 0.27850  0.92920  0.94500  Biso   1.000  O
  O17      1.0000 0.24930  0.07260  0.71160  Biso   1.000  O
  O18      1.0000 0.26780  0.93960  0.70740  Biso   1.000  O
  O19      1.0000 0.25130  0.06590  0.81650  Biso   1.000  O
  O20      1.0000 0.26480  0.93800  0.81200  Biso   1.000  O
  O21      1.0000 0.14120  0.99350  0.89170  Biso   1.000  O
  O22      1.0000 0.24950  0.06870  0.94750  Biso   1.000  O
  O23      1.0000 0.03760  0.04760  0.93680  Biso   1.000  O
  O24      1.0000 0.14940  0.12350  0.99720  Biso   1.000  O
  O25      1.0000 0.51580  0.18530  0.43850  Biso   1.000  O
  O26      1.0000 0.51300  0.18130  0.56190  Biso   1.000  O
  O27      1.0000 0.51120  0.29430  0.43810  Biso   1.000  O
  O28      1.0000 0.51870  0.29140  0.56700  Biso   1.000  O
  O29      1.0000 0.63270  0.10430  0.50160  Biso   1.000  O
  O30      1.0000 0.52320  0.04670  0.43020  Biso   1.000  O
  O31      1.0000 0.73570  0.06050  0.44610  Biso   1.000  O
  O32      1.0000 0.62380  0.99520  0.37680  Biso   1.000  O
  O33      1.0000 0.89090  0.88740  0.50430  Biso   1.000  O
  O34      1.0000 0.99550  0.95270  0.43310  Biso   1.000  O
  O35      1.0000 0.78540  0.92030  0.44350  Biso   1.000  O
  O36      1.0000 0.89250  0.98740  0.37180  Biso   1.000  O
  O37      1.0000 0.88190  0.12550  0.00890  Biso   1.000  O
  O38      1.0000 0.98960  0.05060  0.07670  Biso   1.000  O
  O39      1.0000 0.88240  0.99530  0.11580  Biso   1.000  O
  O40      1.0000 0.77850  0.07080  0.05500  Biso   1.000  O
  O41      1.0000 0.74930  0.92740  0.28840  Biso   1.000  O
  O42      1.0000 0.76780  0.06040  0.29260  Biso   1.000  O
  O43      1.0000 0.75130  0.93410  0.18350  Biso   1.000  O
  O44      1.0000 0.76480  0.06200  0.18800  Biso   1.000  O
  O45      1.0000 0.64120  0.00650  0.10830  Biso   1.000  O
  O46      1.0000 0.74950  0.93130  0.05250  Biso   1.000  O
  O47      1.0000 0.53760  0.95240  0.06320  Biso   1.000  O
  O48      1.0000 0.64940  0.87650  0.00280  Biso   1.000  O
  O49      1.0000 0.01580  0.31470  0.93850  Biso   1.000  O
  O50      1.0000 0.01300  0.31870  0.06190  Biso   1.000  O
  O51      1.0000 0.01120  0.20570  0.93810  Biso   1.000  O
  O52      1.0000 0.01870  0.20860  0.06700  Biso   1.000  O
  O53      1.0000 0.13270  0.39570  0.00160  Biso   1.000  O
  O54      1.0000 0.02320  0.45330  0.93020  Biso   1.000  O
  O55      1.0000 0.23570  0.43950  0.94610  Biso   1.000  O
  O56      1.0000 0.12380  0.50480  0.87680  Biso   1.000  O
  O57      1.0000 0.39090  0.61260  0.00430  Biso   1.000  O
  O58      1.0000 0.49550  0.54730  0.93310  Biso   1.000  O
  O59      1.0000 0.28540  0.57970  0.94350  Biso   1.000  O
  O60      1.0000 0.39250  0.51260  0.87180  Biso   1.000  O
  O61      1.0000 0.38190  0.37450  0.50890  Biso   1.000  O
  O62      1.0000 0.48960  0.44940  0.57670  Biso   1.000  O
  O63      1.0000 0.38240  0.50470  0.61580  Biso   1.000  O
  O64      1.0000 0.27850  0.42920  0.55500  Biso   1.000  O
  O65      1.0000 0.24930  0.57260  0.78840  Biso   1.000  O
  O66      1.0000 0.26780  0.43960  0.79260  Biso   1.000  O
  O67      1.0000 0.25130  0.56590  0.68350  Biso   1.000  O
  O68      1.0000 0.26480  0.43800  0.68800  Biso   1.000  O
  O69      1.0000 0.14120  0.49350  0.60830  Biso   1.000  O
  O70      1.0000 0.24950  0.56870  0.55250  Biso   1.000  O
  O71      1.0000 0.03760  0.54760  0.56320  Biso   1.000  O
  O72      1.0000 0.14940  0.62350  0.50280  Biso   1.000  O
  O73      1.0000 0.51580  0.68530  0.06150  Biso   1.000  O
  O74      1.0000 0.51300  0.68130  0.93810  Biso   1.000  O
  O75      1.0000 0.51120  0.79430  0.06190  Biso   1.000  O
  O76      1.0000 0.51870  0.79140  0.93300  Biso   1.000  O
  O77      1.0000 0.63270  0.60430  0.99840  Biso   1.000  O
  O78      1.0000 0.52320  0.54670  0.06980  Biso   1.000  O
  O79      1.0000 0.73570  0.56050  0.05390  Biso   1.000  O
  O80      1.0000 0.62380  0.49520  0.12320  Biso   1.000  O
  O81      1.0000 0.89090  0.38740  0.99570  Biso   1.000  O
  O82      1.0000 0.99550  0.45270  0.06690  Biso   1.000  O
  O83      1.0000 0.78540  0.42030  0.05650  Biso   1.000  O
  O84      1.0000 0.89250  0.48740  0.12820  Biso   1.000  O
  O85      1.0000 0.88190  0.62550  0.49110  Biso   1.000  O
  O86      1.0000 0.98960  0.55060  0.42330  Biso   1.000  O
  O87      1.0000 0.88240  0.49530  0.38420  Biso   1.000  O
  O88      1.0000 0.77850  0.57080  0.44500  Biso   1.000  O
  O89      1.0000 0.74930  0.42740  0.21160  Biso   1.000  O
  O90      1.0000 0.76780  0.56040  0.20740  Biso   1.000  O
  O91      1.0000 0.75130  0.43410  0.31650  Biso   1.000  O
  O92      1.0000 0.76480  0.56200  0.31200  Biso   1.000  O
  O93      1.0000 0.64120  0.50650  0.39170  Biso   1.000  O
  O94      1.0000 0.74950  0.43130  0.44750  Biso   1.000  O
  O95      1.0000 0.53760  0.45240  0.43680  Biso   1.000  O
  O96      1.0000 0.64940  0.37650  0.49720  Biso   1.000  O
