data_GURTIX_charged
_audit_creation_date              2014-07-02
_audit_creation_method            'Materials Studio'
_symmetry_space_group_name_H-M    'P1'
_symmetry_Int_Tables_number       1
_symmetry_cell_setting            triclinic
loop_
_symmetry_equiv_pos_as_xyz
  x,y,z
_cell_length_a                    13.5020
_cell_length_b                    15.4650
_cell_length_c                    32.4160
_cell_angle_alpha                 90.0000
_cell_angle_beta                  90.0000
_cell_angle_gamma                 90.0000
loop_
_atom_site_label
_atom_site_type_symbol
_atom_site_fract_x
_atom_site_fract_y
_atom_site_fract_z
_atom_site_U_iso_or_equiv
_atom_site_adp_type
_atom_site_occupancy
In1    In    0.72237   0.92376   0.65882   0.01267  Uiso   1.00
In2    In    0.27721   0.81818   0.38154   0.01267  Uiso   1.00
In3    In    0.77763   0.07624   0.15882   0.01267  Uiso   1.00
In4    In    0.22279   0.18182   0.88154   0.01267  Uiso   1.00
In5    In    0.27763   0.42376   0.84118   0.01267  Uiso   1.00
In6    In    0.72279   0.31818   0.11846   0.01267  Uiso   1.00
In7    In    0.22237   0.57624   0.34118   0.01267  Uiso   1.00
In8    In    0.77721   0.68182   0.61846   0.01267  Uiso   1.00
In9    In    0.27763   0.07624   0.34118   0.01267  Uiso   1.00
In10   In    0.72279   0.18182   0.61846   0.01267  Uiso   1.00
In11   In    0.22237   0.92376   0.84118   0.01267  Uiso   1.00
In12   In    0.77721   0.81818   0.11846   0.01267  Uiso   1.00
In13   In    0.72237   0.57624   0.15882   0.01267  Uiso   1.00
In14   In    0.27721   0.68182   0.88154   0.01267  Uiso   1.00
In15   In    0.77763   0.42376   0.65882   0.01267  Uiso   1.00
In16   In    0.22279   0.31818   0.38154   0.01267  Uiso   1.00
H1     H     0.99840   0.99210   0.75960   0.01267  Uiso   1.00
H2     H     0.02710   0.25110   0.80330   0.01267  Uiso   1.00
H3     H     0.91810   0.30690   0.75530   0.01267  Uiso   1.00
H4     H     0.43640   0.71940   0.48520   0.01267  Uiso   1.00
H5     H     0.53460   0.68550   0.53940   0.01267  Uiso   1.00
H6     H     0.51320   0.94420   0.57780   0.01267  Uiso   1.00
H7     H     0.40590   0.97330   0.52540   0.01267  Uiso   1.00
H8     H     0.87480   0.84570   0.62310   0.01267  Uiso   1.00
H9     H     0.77620   0.01320   0.58850   0.01267  Uiso   1.00
H10    H     0.50160   0.00790   0.25960   0.01267  Uiso   1.00
H11    H     0.47290   0.74890   0.30330   0.01267  Uiso   1.00
H12    H     0.58190   0.69310   0.25530   0.01267  Uiso   1.00
H13    H     0.06360   0.28060   0.98520   0.01267  Uiso   1.00
H14    H     0.96540   0.31450   0.03940   0.01267  Uiso   1.00
H15    H     0.98680   0.05580   0.07780   0.01267  Uiso   1.00
H16    H     0.09410   0.02670   0.02540   0.01267  Uiso   1.00
H17    H     0.62520   0.15430   0.12310   0.01267  Uiso   1.00
H18    H     0.72380   0.98680   0.08850   0.01267  Uiso   1.00
H19    H     0.00160   0.49210   0.74040   0.01267  Uiso   1.00
H20    H     0.97290   0.75110   0.69670   0.01267  Uiso   1.00
H21    H     0.08190   0.80690   0.74470   0.01267  Uiso   1.00
H22    H     0.56360   0.21940   0.01480   0.01267  Uiso   1.00
H23    H     0.46540   0.18550   0.96060   0.01267  Uiso   1.00
H24    H     0.48680   0.44420   0.92220   0.01267  Uiso   1.00
H25    H     0.59410   0.47330   0.97460   0.01267  Uiso   1.00
H26    H     0.12520   0.34570   0.87690   0.01267  Uiso   1.00
H27    H     0.22380   0.51320   0.91150   0.01267  Uiso   1.00
H28    H     0.49840   0.50790   0.24040   0.01267  Uiso   1.00
H29    H     0.52710   0.24890   0.19670   0.01267  Uiso   1.00
H30    H     0.41810   0.19310   0.24470   0.01267  Uiso   1.00
H31    H     0.93640   0.78060   0.51480   0.01267  Uiso   1.00
H32    H     0.03460   0.81450   0.46060   0.01267  Uiso   1.00
H33    H     0.01320   0.55580   0.42220   0.01267  Uiso   1.00
H34    H     0.90590   0.52670   0.47460   0.01267  Uiso   1.00
H35    H     0.37480   0.65430   0.37690   0.01267  Uiso   1.00
H36    H     0.27620   0.48680   0.41150   0.01267  Uiso   1.00
H37    H     0.00160   0.00790   0.24040   0.01267  Uiso   1.00
H38    H     0.97290   0.74890   0.19670   0.01267  Uiso   1.00
H39    H     0.08190   0.69310   0.24470   0.01267  Uiso   1.00
H40    H     0.56360   0.28060   0.51480   0.01267  Uiso   1.00
H41    H     0.46540   0.31450   0.46060   0.01267  Uiso   1.00
H42    H     0.48680   0.05580   0.42220   0.01267  Uiso   1.00
H43    H     0.59410   0.02670   0.47460   0.01267  Uiso   1.00
H44    H     0.12520   0.15430   0.37690   0.01267  Uiso   1.00
H45    H     0.22380   0.98680   0.41150   0.01267  Uiso   1.00
H46    H     0.49840   0.99210   0.74040   0.01267  Uiso   1.00
H47    H     0.52710   0.25110   0.69670   0.01267  Uiso   1.00
H48    H     0.41810   0.30690   0.74470   0.01267  Uiso   1.00
H49    H     0.93640   0.71940   0.01480   0.01267  Uiso   1.00
H50    H     0.03460   0.68550   0.96060   0.01267  Uiso   1.00
H51    H     0.01320   0.94420   0.92220   0.01267  Uiso   1.00
H52    H     0.90590   0.97330   0.97460   0.01267  Uiso   1.00
H53    H     0.37480   0.84570   0.87690   0.01267  Uiso   1.00
H54    H     0.27620   0.01320   0.91150   0.01267  Uiso   1.00
H55    H     0.99840   0.50790   0.25960   0.01267  Uiso   1.00
H56    H     0.02710   0.24890   0.30330   0.01267  Uiso   1.00
H57    H     0.91810   0.19310   0.25530   0.01267  Uiso   1.00
H58    H     0.43640   0.78060   0.98520   0.01267  Uiso   1.00
H59    H     0.53460   0.81450   0.03940   0.01267  Uiso   1.00
H60    H     0.51320   0.55580   0.07780   0.01267  Uiso   1.00
H61    H     0.40590   0.52670   0.02540   0.01267  Uiso   1.00
H62    H     0.87480   0.65430   0.12310   0.01267  Uiso   1.00
H63    H     0.77620   0.48680   0.08850   0.01267  Uiso   1.00
H64    H     0.50160   0.49210   0.75960   0.01267  Uiso   1.00
H65    H     0.47290   0.75110   0.80330   0.01267  Uiso   1.00
H66    H     0.58190   0.80690   0.75530   0.01267  Uiso   1.00
H67    H     0.06360   0.21940   0.48520   0.01267  Uiso   1.00
H68    H     0.96540   0.18550   0.53940   0.01267  Uiso   1.00
H69    H     0.98680   0.44420   0.57780   0.01267  Uiso   1.00
H70    H     0.09410   0.47330   0.52540   0.01267  Uiso   1.00
H71    H     0.62520   0.34570   0.62310   0.01267  Uiso   1.00
H72    H     0.72380   0.51320   0.58850   0.01267  Uiso   1.00
C1     C     0.91890   0.08270   0.73060   0.01267  Uiso   1.00
C2     C     0.98180   0.05040   0.75790   0.01267  Uiso   1.00
C3     C     0.02210   0.11750   0.78510   0.01267  Uiso   1.00
C4     C     0.99730   0.21470   0.78410   0.01267  Uiso   1.00
C5     C     0.93480   0.24860   0.75670   0.01267  Uiso   1.00
C6     C     0.89680   0.18310   0.72980   0.01267  Uiso   1.00
C7     C     0.87830   0.00430   0.70300   0.01267  Uiso   1.00
C8     C     0.83630   0.22580   0.69780   0.01267  Uiso   1.00
C9     C     0.09110   0.08420   0.81380   0.01267  Uiso   1.00
C10    C     0.36170   0.87870   0.46290   0.01267  Uiso   1.00
C11    C     0.42460   0.85730   0.49670   0.01267  Uiso   1.00
C12    C     0.45840   0.76210   0.50320   0.01267  Uiso   1.00
C13    C     0.51600   0.74170   0.53290   0.01267  Uiso   1.00
C14    C     0.55000   0.82180   0.55610   0.01267  Uiso   1.00
C15    C     0.50130   0.90430   0.55690   0.01267  Uiso   1.00
C16    C     0.43920   0.92080   0.52670   0.01267  Uiso   1.00
C17    C     0.62180   0.80620   0.58670   0.01267  Uiso   1.00
C18    C     0.58110   0.91730   0.23060   0.01267  Uiso   1.00
C19    C     0.51820   0.94960   0.25790   0.01267  Uiso   1.00
C20    C     0.47790   0.88250   0.28510   0.01267  Uiso   1.00
C21    C     0.50270   0.78530   0.28410   0.01267  Uiso   1.00
C22    C     0.56520   0.75140   0.25670   0.01267  Uiso   1.00
C23    C     0.60320   0.81690   0.22980   0.01267  Uiso   1.00
C24    C     0.62170   0.99570   0.20300   0.01267  Uiso   1.00
C25    C     0.66370   0.77420   0.19780   0.01267  Uiso   1.00
C26    C     0.40890   0.91580   0.31380   0.01267  Uiso   1.00
C27    C     0.13830   0.12130   0.96290   0.01267  Uiso   1.00
C28    C     0.07540   0.14270   0.99670   0.01267  Uiso   1.00
C29    C     0.04160   0.23790   0.00320   0.01267  Uiso   1.00
C30    C     0.98400   0.25830   0.03290   0.01267  Uiso   1.00
C31    C     0.95000   0.17820   0.05610   0.01267  Uiso   1.00
C32    C     0.99870   0.09570   0.05690   0.01267  Uiso   1.00
C33    C     0.06080   0.07920   0.02670   0.01267  Uiso   1.00
C34    C     0.87820   0.19380   0.08670   0.01267  Uiso   1.00
C35    C     0.08110   0.58270   0.76940   0.01267  Uiso   1.00
C36    C     0.01820   0.55040   0.74210   0.01267  Uiso   1.00
C37    C     0.97790   0.61750   0.71490   0.01267  Uiso   1.00
C38    C     0.00270   0.71470   0.71590   0.01267  Uiso   1.00
C39    C     0.06520   0.74860   0.74330   0.01267  Uiso   1.00
C40    C     0.10320   0.68310   0.77020   0.01267  Uiso   1.00
C41    C     0.12170   0.50430   0.79700   0.01267  Uiso   1.00
C42    C     0.16370   0.72580   0.80220   0.01267  Uiso   1.00
C43    C     0.90890   0.58420   0.68620   0.01267  Uiso   1.00
C44    C     0.63830   0.37870   0.03710   0.01267  Uiso   1.00
C45    C     0.57540   0.35730   0.00330   0.01267  Uiso   1.00
C46    C     0.54160   0.26210   0.99680   0.01267  Uiso   1.00
C47    C     0.48400   0.24170   0.96710   0.01267  Uiso   1.00
C48    C     0.45000   0.32180   0.94390   0.01267  Uiso   1.00
C49    C     0.49870   0.40430   0.94310   0.01267  Uiso   1.00
C50    C     0.56080   0.42080   0.97330   0.01267  Uiso   1.00
C51    C     0.37820   0.30620   0.91330   0.01267  Uiso   1.00
C52    C     0.41890   0.41730   0.26940   0.01267  Uiso   1.00
C53    C     0.48180   0.44960   0.24210   0.01267  Uiso   1.00
C54    C     0.52210   0.38250   0.21490   0.01267  Uiso   1.00
C55    C     0.49730   0.28530   0.21590   0.01267  Uiso   1.00
C56    C     0.43480   0.25140   0.24330   0.01267  Uiso   1.00
C57    C     0.39680   0.31690   0.27020   0.01267  Uiso   1.00
C58    C     0.37830   0.49570   0.29700   0.01267  Uiso   1.00
C59    C     0.33630   0.27420   0.30220   0.01267  Uiso   1.00
C60    C     0.59110   0.41580   0.18620   0.01267  Uiso   1.00
C61    C     0.86170   0.62130   0.53710   0.01267  Uiso   1.00
C62    C     0.92460   0.64270   0.50330   0.01267  Uiso   1.00
C63    C     0.95840   0.73790   0.49680   0.01267  Uiso   1.00
C64    C     0.01600   0.75830   0.46710   0.01267  Uiso   1.00
C65    C     0.05000   0.67820   0.44390   0.01267  Uiso   1.00
C66    C     0.00130   0.59570   0.44310   0.01267  Uiso   1.00
C67    C     0.93920   0.57920   0.47330   0.01267  Uiso   1.00
C68    C     0.12180   0.69380   0.41330   0.01267  Uiso   1.00
C69    C     0.08110   0.91730   0.26940   0.01267  Uiso   1.00
C70    C     0.01820   0.94960   0.24210   0.01267  Uiso   1.00
C71    C     0.97790   0.88250   0.21490   0.01267  Uiso   1.00
C72    C     0.00270   0.78530   0.21590   0.01267  Uiso   1.00
C73    C     0.06520   0.75140   0.24330   0.01267  Uiso   1.00
C74    C     0.10320   0.81690   0.27020   0.01267  Uiso   1.00
C75    C     0.12170   0.99570   0.29700   0.01267  Uiso   1.00
C76    C     0.16370   0.77420   0.30220   0.01267  Uiso   1.00
C77    C     0.90890   0.91580   0.18620   0.01267  Uiso   1.00
C78    C     0.63830   0.12130   0.53710   0.01267  Uiso   1.00
C79    C     0.57540   0.14270   0.50330   0.01267  Uiso   1.00
C80    C     0.54160   0.23790   0.49680   0.01267  Uiso   1.00
C81    C     0.48400   0.25830   0.46710   0.01267  Uiso   1.00
C82    C     0.45000   0.17820   0.44390   0.01267  Uiso   1.00
C83    C     0.49870   0.09570   0.44310   0.01267  Uiso   1.00
C84    C     0.56080   0.07920   0.47330   0.01267  Uiso   1.00
C85    C     0.37820   0.19380   0.41330   0.01267  Uiso   1.00
C86    C     0.41890   0.08270   0.76940   0.01267  Uiso   1.00
C87    C     0.48180   0.05040   0.74210   0.01267  Uiso   1.00
C88    C     0.52210   0.11750   0.71490   0.01267  Uiso   1.00
C89    C     0.49730   0.21470   0.71590   0.01267  Uiso   1.00
C90    C     0.43480   0.24860   0.74330   0.01267  Uiso   1.00
C91    C     0.39680   0.18310   0.77020   0.01267  Uiso   1.00
C92    C     0.37830   0.00430   0.79700   0.01267  Uiso   1.00
C93    C     0.33630   0.22580   0.80220   0.01267  Uiso   1.00
C94    C     0.59110   0.08420   0.68620   0.01267  Uiso   1.00
C95    C     0.86170   0.87870   0.03710   0.01267  Uiso   1.00
C96    C     0.92460   0.85730   0.00330   0.01267  Uiso   1.00
C97    C     0.95840   0.76210   0.99680   0.01267  Uiso   1.00
C98    C     0.01600   0.74170   0.96710   0.01267  Uiso   1.00
C99    C     0.05000   0.82180   0.94390   0.01267  Uiso   1.00
C100   C     0.00130   0.90430   0.94310   0.01267  Uiso   1.00
C101   C     0.93920   0.92080   0.97330   0.01267  Uiso   1.00
C102   C     0.12180   0.80620   0.91330   0.01267  Uiso   1.00
C103   C     0.91890   0.41730   0.23060   0.01267  Uiso   1.00
C104   C     0.98180   0.44960   0.25790   0.01267  Uiso   1.00
C105   C     0.02210   0.38250   0.28510   0.01267  Uiso   1.00
C106   C     0.99730   0.28530   0.28410   0.01267  Uiso   1.00
C107   C     0.93480   0.25140   0.25670   0.01267  Uiso   1.00
C108   C     0.89680   0.31690   0.22980   0.01267  Uiso   1.00
C109   C     0.87830   0.49570   0.20300   0.01267  Uiso   1.00
C110   C     0.83630   0.27420   0.19780   0.01267  Uiso   1.00
C111   C     0.09110   0.41580   0.31380   0.01267  Uiso   1.00
C112   C     0.36170   0.62130   0.96290   0.01267  Uiso   1.00
C113   C     0.42460   0.64270   0.99670   0.01267  Uiso   1.00
C114   C     0.45840   0.73790   0.00320   0.01267  Uiso   1.00
C115   C     0.51600   0.75830   0.03290   0.01267  Uiso   1.00
C116   C     0.55000   0.67820   0.05610   0.01267  Uiso   1.00
C117   C     0.50130   0.59570   0.05690   0.01267  Uiso   1.00
C118   C     0.43920   0.57920   0.02670   0.01267  Uiso   1.00
C119   C     0.62180   0.69380   0.08670   0.01267  Uiso   1.00
C120   C     0.58110   0.58270   0.73060   0.01267  Uiso   1.00
C121   C     0.51820   0.55040   0.75790   0.01267  Uiso   1.00
C122   C     0.47790   0.61750   0.78510   0.01267  Uiso   1.00
C123   C     0.50270   0.71470   0.78410   0.01267  Uiso   1.00
C124   C     0.56520   0.74860   0.75670   0.01267  Uiso   1.00
C125   C     0.60320   0.68310   0.72980   0.01267  Uiso   1.00
C126   C     0.62170   0.50430   0.70300   0.01267  Uiso   1.00
C127   C     0.66370   0.72580   0.69780   0.01267  Uiso   1.00
C128   C     0.40890   0.58420   0.81380   0.01267  Uiso   1.00
C129   C     0.13830   0.37870   0.46290   0.01267  Uiso   1.00
C130   C     0.07540   0.35730   0.49670   0.01267  Uiso   1.00
C131   C     0.04160   0.26210   0.50320   0.01267  Uiso   1.00
C132   C     0.98400   0.24170   0.53290   0.01267  Uiso   1.00
C133   C     0.95000   0.32180   0.55610   0.01267  Uiso   1.00
C134   C     0.99870   0.40430   0.55690   0.01267  Uiso   1.00
C135   C     0.06080   0.42080   0.52670   0.01267  Uiso   1.00
C136   C     0.87820   0.30620   0.58670   0.01267  Uiso   1.00
O1     O     0.79660   0.99340   0.70683   0.01267  Uiso   1.00
O2     O     0.92360   0.95320   0.68110   0.01267  Uiso   1.00
O3     O     0.80780   0.31040   0.70441   0.01267  Uiso   1.00
O4     O     0.82290   0.17450   0.66613   0.01267  Uiso   1.00
O5     O     0.12270   0.14900   0.83620   0.01267  Uiso   1.00
O6     O     0.11280   0.99620   0.81299   0.01267  Uiso   1.00
O7     O     0.36390   0.82060   0.43250   0.01267  Uiso   1.00
O8     O     0.31440   0.95240   0.46500   0.01267  Uiso   1.00
O9     O     0.67370   0.73620   0.57941   0.01267  Uiso   1.00
O10    O     0.62290   0.86300   0.61744   0.01267  Uiso   1.00
O11    O     0.81220   0.82740   0.63130   0.01267  Uiso   1.00
O12    O     0.74970   0.03110   0.61353   0.01267  Uiso   1.00
O13    O     0.70340   0.00660   0.20683   0.01267  Uiso   1.00
O14    O     0.57640   0.04680   0.18110   0.01267  Uiso   1.00
O15    O     0.69220   0.68960   0.20441   0.01267  Uiso   1.00
O16    O     0.67710   0.82550   0.16613   0.01267  Uiso   1.00
O17    O     0.37730   0.85100   0.33620   0.01267  Uiso   1.00
O18    O     0.38720   0.00380   0.31299   0.01267  Uiso   1.00
O19    O     0.13610   0.17940   0.93250   0.01267  Uiso   1.00
O20    O     0.18560   0.04760   0.96500   0.01267  Uiso   1.00
O21    O     0.82630   0.26380   0.07941   0.01267  Uiso   1.00
O22    O     0.87710   0.13700   0.11744   0.01267  Uiso   1.00
O23    O     0.68780   0.17260   0.13130   0.01267  Uiso   1.00
O24    O     0.75030   0.96890   0.11353   0.01267  Uiso   1.00
O25    O     0.20340   0.49340   0.79317   0.01267  Uiso   1.00
O26    O     0.07640   0.45320   0.81890   0.01267  Uiso   1.00
O27    O     0.19220   0.81040   0.79559   0.01267  Uiso   1.00
O28    O     0.17710   0.67450   0.83387   0.01267  Uiso   1.00
O29    O     0.87730   0.64900   0.66380   0.01267  Uiso   1.00
O30    O     0.88720   0.49620   0.68701   0.01267  Uiso   1.00
O31    O     0.63610   0.32060   0.06750   0.01267  Uiso   1.00
O32    O     0.68560   0.45240   0.03500   0.01267  Uiso   1.00
O33    O     0.32630   0.23620   0.92059   0.01267  Uiso   1.00
O34    O     0.37710   0.36300   0.88256   0.01267  Uiso   1.00
O35    O     0.18780   0.32740   0.86870   0.01267  Uiso   1.00
O36    O     0.25030   0.53110   0.88647   0.01267  Uiso   1.00
O37    O     0.29660   0.50660   0.29317   0.01267  Uiso   1.00
O38    O     0.42360   0.54680   0.31890   0.01267  Uiso   1.00
O39    O     0.30780   0.18960   0.29559   0.01267  Uiso   1.00
O40    O     0.32290   0.32550   0.33387   0.01267  Uiso   1.00
O41    O     0.62270   0.35100   0.16380   0.01267  Uiso   1.00
O42    O     0.61280   0.50380   0.18701   0.01267  Uiso   1.00
O43    O     0.86390   0.67940   0.56750   0.01267  Uiso   1.00
O44    O     0.81440   0.54760   0.53500   0.01267  Uiso   1.00
O45    O     0.17370   0.76380   0.42059   0.01267  Uiso   1.00
O46    O     0.12290   0.63700   0.38256   0.01267  Uiso   1.00
O47    O     0.31220   0.67260   0.36870   0.01267  Uiso   1.00
O48    O     0.24970   0.46890   0.38647   0.01267  Uiso   1.00
O49    O     0.20340   0.00660   0.29317   0.01267  Uiso   1.00
O50    O     0.07640   0.04680   0.31890   0.01267  Uiso   1.00
O51    O     0.19220   0.68960   0.29559   0.01267  Uiso   1.00
O52    O     0.17710   0.82550   0.33387   0.01267  Uiso   1.00
O53    O     0.87730   0.85100   0.16380   0.01267  Uiso   1.00
O54    O     0.88720   0.00380   0.18701   0.01267  Uiso   1.00
O55    O     0.63610   0.17940   0.56750   0.01267  Uiso   1.00
O56    O     0.68560   0.04760   0.53500   0.01267  Uiso   1.00
O57    O     0.32630   0.26380   0.42059   0.01267  Uiso   1.00
O58    O     0.37710   0.13700   0.38256   0.01267  Uiso   1.00
O59    O     0.18780   0.17260   0.36870   0.01267  Uiso   1.00
O60    O     0.25030   0.96890   0.38647   0.01267  Uiso   1.00
O61    O     0.29660   0.99340   0.79317   0.01267  Uiso   1.00
O62    O     0.42360   0.95320   0.81890   0.01267  Uiso   1.00
O63    O     0.30780   0.31040   0.79559   0.01267  Uiso   1.00
O64    O     0.32290   0.17450   0.83387   0.01267  Uiso   1.00
O65    O     0.62270   0.14900   0.66380   0.01267  Uiso   1.00
O66    O     0.61280   0.99620   0.68701   0.01267  Uiso   1.00
O67    O     0.86390   0.82060   0.06750   0.01267  Uiso   1.00
O68    O     0.81440   0.95240   0.03500   0.01267  Uiso   1.00
O69    O     0.17370   0.73620   0.92059   0.01267  Uiso   1.00
O70    O     0.12290   0.86300   0.88256   0.01267  Uiso   1.00
O71    O     0.31220   0.82740   0.86870   0.01267  Uiso   1.00
O72    O     0.24970   0.03110   0.88647   0.01267  Uiso   1.00
O73    O     0.79660   0.50660   0.20683   0.01267  Uiso   1.00
O74    O     0.92360   0.54680   0.18110   0.01267  Uiso   1.00
O75    O     0.80780   0.18960   0.20441   0.01267  Uiso   1.00
O76    O     0.82290   0.32550   0.16613   0.01267  Uiso   1.00
O77    O     0.12270   0.35100   0.33620   0.01267  Uiso   1.00
O78    O     0.11280   0.50380   0.31299   0.01267  Uiso   1.00
O79    O     0.36390   0.67940   0.93250   0.01267  Uiso   1.00
O80    O     0.31440   0.54760   0.96500   0.01267  Uiso   1.00
O81    O     0.67370   0.76380   0.07941   0.01267  Uiso   1.00
O82    O     0.62290   0.63700   0.11744   0.01267  Uiso   1.00
O83    O     0.81220   0.67260   0.13130   0.01267  Uiso   1.00
O84    O     0.74970   0.46890   0.11353   0.01267  Uiso   1.00
O85    O     0.70340   0.49340   0.70683   0.01267  Uiso   1.00
O86    O     0.57640   0.45320   0.68110   0.01267  Uiso   1.00
O87    O     0.69220   0.81040   0.70441   0.01267  Uiso   1.00
O88    O     0.67710   0.67450   0.66613   0.01267  Uiso   1.00
O89    O     0.37730   0.64900   0.83620   0.01267  Uiso   1.00
O90    O     0.38720   0.49620   0.81299   0.01267  Uiso   1.00
O91    O     0.13610   0.32060   0.43250   0.01267  Uiso   1.00
O92    O     0.18560   0.45240   0.46500   0.01267  Uiso   1.00
O93    O     0.82630   0.23620   0.57941   0.01267  Uiso   1.00
O94    O     0.87710   0.36300   0.61744   0.01267  Uiso   1.00
O95    O     0.68780   0.32740   0.63130   0.01267  Uiso   1.00
O96    O     0.75030   0.53110   0.61353   0.01267  Uiso   1.00
