data_GUSNEN01_SL
_audit_creation_date              2015-05-20
_audit_creation_method            'Materials Studio'
_symmetry_space_group_name_H-M    'P1'
_symmetry_Int_Tables_number       1
_symmetry_cell_setting            triclinic
loop_
_symmetry_equiv_pos_as_xyz
  x,y,z
_cell_length_a                    19.6812
_cell_length_b                    7.7005
_cell_length_c                    6.7780
_cell_angle_alpha                 90.0000
_cell_angle_beta                  75.4997
_cell_angle_gamma                 90.0000
loop_
_atom_site_label
_atom_site_type_symbol
_atom_site_fract_x
_atom_site_fract_y
_atom_site_fract_z
_atom_site_U_iso_or_equiv
_atom_site_adp_type
_atom_site_occupancy
H1     H     0.16870   0.72960   0.79940   0.01267  Uiso   1.00
H2     H     0.21250   0.83660   0.34260   0.01267  Uiso   1.00
C3     C     0.18080   0.78860   0.08270   0.01267  Uiso   1.00
C4     C     0.20260   0.73810   0.88310   0.01267  Uiso   1.00
C5     C     0.22820   0.80050   0.19960   0.01267  Uiso   1.00
C6     C     0.10660   0.82990   0.17140   0.01267  Uiso   1.00
O7     O     0.06280   0.82070   0.06240   0.01267  Uiso   1.00
O8     O     0.08620   0.87490   0.35710   0.01267  Uiso   1.00
H9     H     0.66870   0.22960   0.79940   0.01267  Uiso   1.00
H10    H     0.71250   0.33660   0.34260   0.01267  Uiso   1.00
C11    C     0.68080   0.28860   0.08270   0.01267  Uiso   1.00
C12    C     0.70260   0.23810   0.88310   0.01267  Uiso   1.00
C13    C     0.72820   0.30050   0.19960   0.01267  Uiso   1.00
C14    C     0.60660   0.32990   0.17140   0.01267  Uiso   1.00
O15    O     0.56280   0.32070   0.06240   0.01267  Uiso   1.00
O16    O     0.58620   0.37490   0.35710   0.01267  Uiso   1.00
H17    H     0.83130   0.72960   0.70060   0.01267  Uiso   1.00
H18    H     0.78750   0.83660   0.15740   0.01267  Uiso   1.00
C19    C     0.81920   0.78860   0.41730   0.01267  Uiso   1.00
C20    C     0.79740   0.73810   0.61690   0.01267  Uiso   1.00
C21    C     0.77180   0.80050   0.30040   0.01267  Uiso   1.00
C22    C     0.89340   0.82990   0.32860   0.01267  Uiso   1.00
O23    O     0.93720   0.82070   0.43760   0.01267  Uiso   1.00
O24    O     0.91380   0.87490   0.14290   0.01267  Uiso   1.00
H25    H     0.33130   0.22960   0.70060   0.01267  Uiso   1.00
H26    H     0.28750   0.33660   0.15740   0.01267  Uiso   1.00
C27    C     0.31920   0.28860   0.41730   0.01267  Uiso   1.00
C28    C     0.29740   0.23810   0.61690   0.01267  Uiso   1.00
C29    C     0.27180   0.30050   0.30040   0.01267  Uiso   1.00
C30    C     0.39340   0.32990   0.32860   0.01267  Uiso   1.00
O31    O     0.43720   0.32070   0.43760   0.01267  Uiso   1.00
O32    O     0.41380   0.37490   0.14290   0.01267  Uiso   1.00
H33    H     0.83130   0.27040   0.20060   0.01267  Uiso   1.00
H34    H     0.78750   0.16340   0.65740   0.01267  Uiso   1.00
C35    C     0.81920   0.21140   0.91730   0.01267  Uiso   1.00
C36    C     0.79740   0.26190   0.11690   0.01267  Uiso   1.00
C37    C     0.77180   0.19950   0.80040   0.01267  Uiso   1.00
C38    C     0.89340   0.17010   0.82860   0.01267  Uiso   1.00
O39    O     0.93720   0.17930   0.93760   0.01267  Uiso   1.00
O40    O     0.91380   0.12510   0.64290   0.01267  Uiso   1.00
H41    H     0.33130   0.77040   0.20060   0.01267  Uiso   1.00
H42    H     0.28750   0.66340   0.65740   0.01267  Uiso   1.00
C43    C     0.31920   0.71140   0.91730   0.01267  Uiso   1.00
C44    C     0.29740   0.76190   0.11690   0.01267  Uiso   1.00
C45    C     0.27180   0.69950   0.80040   0.01267  Uiso   1.00
C46    C     0.39340   0.67010   0.82860   0.01267  Uiso   1.00
O47    O     0.43720   0.67930   0.93760   0.01267  Uiso   1.00
O48    O     0.41380   0.62510   0.64290   0.01267  Uiso   1.00
H49    H     0.16870   0.27040   0.29940   0.01267  Uiso   1.00
H50    H     0.21250   0.16340   0.84260   0.01267  Uiso   1.00
C51    C     0.18080   0.21140   0.58270   0.01267  Uiso   1.00
C52    C     0.20260   0.26190   0.38310   0.01267  Uiso   1.00
C53    C     0.22820   0.19950   0.69960   0.01267  Uiso   1.00
C54    C     0.10660   0.17010   0.67140   0.01267  Uiso   1.00
O55    O     0.06280   0.17930   0.56240   0.01267  Uiso   1.00
O56    O     0.08620   0.12510   0.85710   0.01267  Uiso   1.00
H57    H     0.66870   0.77040   0.29940   0.01267  Uiso   1.00
H58    H     0.71250   0.66340   0.84260   0.01267  Uiso   1.00
C59    C     0.68080   0.71140   0.58270   0.01267  Uiso   1.00
C60    C     0.70260   0.76190   0.38310   0.01267  Uiso   1.00
C61    C     0.72820   0.69950   0.69960   0.01267  Uiso   1.00
C62    C     0.60660   0.67010   0.67140   0.01267  Uiso   1.00
O63    O     0.56280   0.67930   0.56240   0.01267  Uiso   1.00
O64    O     0.58620   0.62510   0.85710   0.01267  Uiso   1.00
H65    H     0.50000   0.74906   0.25000   0.01267  Uiso   1.00
H66    H     0.00000   0.24906   0.25000   0.01267  Uiso   1.00
H67    H     0.50000   0.25094   0.75000   0.01267  Uiso   1.00
H68    H     0.00000   0.75094   0.75000   0.01267  Uiso   1.00
Cr69   Cr   -0.00000   0.00000   0.00000   0.01267  Uiso   1.00
Cr70   Cr    0.50000   0.50000   0.00000   0.01267  Uiso   1.00
Cr71   Cr   -0.00000   0.00000   0.50000   0.01267  Uiso   1.00
Cr72   Cr    0.50000   0.50000   0.50000   0.01267  Uiso   1.00
O73    O    -0.00000   0.88080   0.75000   0.01267  Uiso   1.00
O74    O     0.50000   0.38080   0.75000   0.01267  Uiso   1.00
O75    O    -0.00000   0.11920   0.25000   0.01267  Uiso   1.00
O76    O     0.50000   0.61920   0.25000   0.01267  Uiso   1.00
