data_GUSNEN_clean_h
_audit_creation_date              2015-05-20
_audit_creation_method            'Materials Studio'
_symmetry_space_group_name_H-M    'P1'
_symmetry_Int_Tables_number       1
_symmetry_cell_setting            triclinic
loop_
_symmetry_equiv_pos_as_xyz
  x,y,z
_cell_length_a                    19.6850
_cell_length_b                    7.8490
_cell_length_c                    6.7820
_cell_angle_alpha                 90.0000
_cell_angle_beta                  75.0994
_cell_angle_gamma                 90.0000
loop_
_atom_site_label
_atom_site_type_symbol
_atom_site_fract_x
_atom_site_fract_y
_atom_site_fract_z
_atom_site_U_iso_or_equiv
_atom_site_adp_type
_atom_site_occupancy
C1     C     0.11100   0.19000   0.17000   0.01267  Uiso   1.00
C2     C     0.19800   0.29600   0.88200   0.01267  Uiso   1.00
C3     C     0.22900   0.18000   0.20400   0.01267  Uiso   1.00
C4     C     0.18400   0.21000   0.07900   0.01267  Uiso   1.00
O5     O     0.06800   0.16600   0.05500   0.01267  Uiso   1.00
O6     O     0.08700   0.14100   0.34800   0.01267  Uiso   1.00
H7     H     0.15552   0.33862   0.80656   0.01267  Uiso   1.00
H8     H     0.20786   0.13774   0.36922   0.01267  Uiso   1.00
H9     H     0.50000   0.74040   0.75000   0.01267  Uiso   1.00
C10    C     0.61100   0.69000   0.17000   0.01267  Uiso   1.00
C11    C     0.69800   0.79600   0.88200   0.01267  Uiso   1.00
C12    C     0.72900   0.68000   0.20400   0.01267  Uiso   1.00
C13    C     0.68400   0.71000   0.07900   0.01267  Uiso   1.00
O14    O     0.56800   0.66600   0.05500   0.01267  Uiso   1.00
O15    O     0.58700   0.64100   0.34800   0.01267  Uiso   1.00
H16    H     0.65552   0.83862   0.80656   0.01267  Uiso   1.00
H17    H     0.70786   0.63774   0.36922   0.01267  Uiso   1.00
H18    H     0.00000   0.24040   0.75000   0.01267  Uiso   1.00
C19    C     0.88900   0.19000   0.33000   0.01267  Uiso   1.00
C20    C     0.80200   0.29600   0.61800   0.01267  Uiso   1.00
C21    C     0.77100   0.18000   0.29600   0.01267  Uiso   1.00
C22    C     0.81600   0.21000   0.42100   0.01267  Uiso   1.00
O23    O     0.93200   0.16600   0.44500   0.01267  Uiso   1.00
O24    O     0.91300   0.14100   0.15200   0.01267  Uiso   1.00
H25    H     0.84448   0.33862   0.69344   0.01267  Uiso   1.00
H26    H     0.79214   0.13774   0.13078   0.01267  Uiso   1.00
C28    C     0.38900   0.69000   0.33000   0.01267  Uiso   1.00
C29    C     0.30200   0.79600   0.61800   0.01267  Uiso   1.00
C30    C     0.27100   0.68000   0.29600   0.01267  Uiso   1.00
C31    C     0.31600   0.71000   0.42100   0.01267  Uiso   1.00
O32    O     0.43200   0.66600   0.44500   0.01267  Uiso   1.00
O33    O     0.41300   0.64100   0.15200   0.01267  Uiso   1.00
H34    H     0.34448   0.83862   0.69344   0.01267  Uiso   1.00
H35    H     0.29214   0.63774   0.13078   0.01267  Uiso   1.00
C37    C     0.88900   0.81000   0.83000   0.01267  Uiso   1.00
C38    C     0.80200   0.70400   0.11800   0.01267  Uiso   1.00
C39    C     0.77100   0.82000   0.79600   0.01267  Uiso   1.00
C40    C     0.81600   0.79000   0.92100   0.01267  Uiso   1.00
O41    O     0.93200   0.83400   0.94500   0.01267  Uiso   1.00
O42    O     0.91300   0.85900   0.65200   0.01267  Uiso   1.00
H43    H     0.84448   0.66138   0.19344   0.01267  Uiso   1.00
H44    H     0.79214   0.86226   0.63078   0.01267  Uiso   1.00
H45    H     0.50000   0.25960   0.25000   0.01267  Uiso   1.00
C46    C     0.38900   0.31000   0.83000   0.01267  Uiso   1.00
C47    C     0.30200   0.20400   0.11800   0.01267  Uiso   1.00
C48    C     0.27100   0.32000   0.79600   0.01267  Uiso   1.00
C49    C     0.31600   0.29000   0.92100   0.01267  Uiso   1.00
O50    O     0.43200   0.33400   0.94500   0.01267  Uiso   1.00
O51    O     0.41300   0.35900   0.65200   0.01267  Uiso   1.00
H52    H     0.34448   0.16138   0.19344   0.01267  Uiso   1.00
H53    H     0.29214   0.36226   0.63078   0.01267  Uiso   1.00
H54    H    -0.00000   0.75960   0.25000   0.01267  Uiso   1.00
C55    C     0.11100   0.81000   0.67000   0.01267  Uiso   1.00
C56    C     0.19800   0.70400   0.38200   0.01267  Uiso   1.00
C57    C     0.22900   0.82000   0.70400   0.01267  Uiso   1.00
C58    C     0.18400   0.79000   0.57900   0.01267  Uiso   1.00
O59    O     0.06800   0.83400   0.55500   0.01267  Uiso   1.00
O60    O     0.08700   0.85900   0.84800   0.01267  Uiso   1.00
H61    H     0.15552   0.66138   0.30656   0.01267  Uiso   1.00
H62    H     0.20786   0.86226   0.86922   0.01267  Uiso   1.00
C64    C     0.61100   0.31000   0.67000   0.01267  Uiso   1.00
C65    C     0.69800   0.20400   0.38200   0.01267  Uiso   1.00
C66    C     0.72900   0.32000   0.70400   0.01267  Uiso   1.00
C67    C     0.68400   0.29000   0.57900   0.01267  Uiso   1.00
O68    O     0.56800   0.33400   0.55500   0.01267  Uiso   1.00
O69    O     0.58700   0.35900   0.84800   0.01267  Uiso   1.00
H70    H     0.65552   0.16138   0.30656   0.01267  Uiso   1.00
H71    H     0.70786   0.36226   0.86922   0.01267  Uiso   1.00
Cr73   Cr    0.00000   0.00000   0.50000   0.01267  Uiso   1.00
Cr74   Cr    0.50000   0.50000   0.50000   0.01267  Uiso   1.00
Cr75   Cr    0.00000   0.00000  -0.00000   0.01267  Uiso   1.00
Cr76   Cr    0.50000   0.50000  -0.00000   0.01267  Uiso   1.00
O77    O     0.00000   0.88700   0.25000   0.01267  Uiso   1.00
O78    O     0.50000   0.38700   0.25000   0.01267  Uiso   1.00
O79    O     0.00000   0.11300   0.75000   0.01267  Uiso   1.00
O80    O     0.50000   0.61300   0.75000   0.01267  Uiso   1.00
