data_image0
_cell_length_a       9.9218
_cell_length_b       12.653
_cell_length_c       15.5131
_cell_angle_alpha    90
_cell_angle_beta     90.761
_cell_angle_gamma    90

_symmetry_space_group_name_H-M    "P 1"
_symmetry_int_tables_number       1

loop_
  _symmetry_equiv_pos_as_xyz
  'x, y, z'

loop_
  _atom_site_label
  _atom_site_occupancy
  _atom_site_fract_x
  _atom_site_fract_y
  _atom_site_fract_z
  _atom_site_thermal_displace_type
  _atom_site_B_iso_or_equiv
  _atom_site_type_symbol
  O1       1.0000 0.08033  0.91261  0.33845  Biso   1.000  O
  O2       1.0000 0.24474  0.82630  0.27283  Biso   1.000  O
  O3       1.0000 0.42578  0.60225  0.33355  Biso   1.000  O
  O4       1.0000 0.20598  0.59379  0.30487  Biso   1.000  O
  C1       1.0000 0.21048  0.79261  0.41998  Biso   1.000  C
  C2       1.0000 0.28047  0.69662  0.42340  Biso   1.000  C
  C3       1.0000 0.31984  0.65644  0.50319  Biso   1.000  C
  H1       1.0000 0.36800  0.59340  0.50530  Biso   1.000  H
  C4       1.0000 0.17617  0.84669  0.33556  Biso   1.000  C
  C5       1.0000 0.30448  0.62737  0.34556  Biso   1.000  C
  O5       1.0000 0.58033  0.41261  0.33845  Biso   1.000  O
  O6       1.0000 0.74474  0.32630  0.27283  Biso   1.000  O
  O7       1.0000 0.92578  0.10225  0.33355  Biso   1.000  O
  O8       1.0000 0.70598  0.09379  0.30487  Biso   1.000  O
  C6       1.0000 0.71048  0.29261  0.41998  Biso   1.000  C
  C7       1.0000 0.78047  0.19662  0.42340  Biso   1.000  C
  C8       1.0000 0.81984  0.15644  0.50319  Biso   1.000  C
  H2       1.0000 0.86800  0.09340  0.50530  Biso   1.000  H
  C9       1.0000 0.67617  0.34669  0.33556  Biso   1.000  C
  C10      1.0000 0.80448  0.12737  0.34556  Biso   1.000  C
  O9       1.0000 0.91967  0.91261  0.16155  Biso   1.000  O
  O10      1.0000 0.75526  0.82630  0.22717  Biso   1.000  O
  O11      1.0000 0.57422  0.60225  0.16645  Biso   1.000  O
  O12      1.0000 0.79402  0.59379  0.19513  Biso   1.000  O
  C11      1.0000 0.78952  0.79261  0.08002  Biso   1.000  C
  C12      1.0000 0.71953  0.69662  0.07660  Biso   1.000  C
  C13      1.0000 0.68016  0.65644  0.99681  Biso   1.000  C
  H3       1.0000 0.63200  0.59340  0.99470  Biso   1.000  H
  C14      1.0000 0.82383  0.84669  0.16444  Biso   1.000  C
  C15      1.0000 0.69552  0.62737  0.15444  Biso   1.000  C
  O13      1.0000 0.41967  0.41261  0.16155  Biso   1.000  O
  O14      1.0000 0.25526  0.32630  0.22717  Biso   1.000  O
  O15      1.0000 0.07422  0.10225  0.16645  Biso   1.000  O
  O16      1.0000 0.29402  0.09379  0.19513  Biso   1.000  O
  C16      1.0000 0.28952  0.29261  0.08002  Biso   1.000  C
  C17      1.0000 0.21953  0.19662  0.07660  Biso   1.000  C
  C18      1.0000 0.18016  0.15644  0.99681  Biso   1.000  C
  H4       1.0000 0.13200  0.09340  0.99470  Biso   1.000  H
  C19      1.0000 0.32383  0.34669  0.16444  Biso   1.000  C
  C20      1.0000 0.19552  0.12737  0.15444  Biso   1.000  C
  O17      1.0000 0.91967  0.08739  0.66155  Biso   1.000  O
  O18      1.0000 0.75526  0.17370  0.72717  Biso   1.000  O
  O19      1.0000 0.57422  0.39775  0.66645  Biso   1.000  O
  O20      1.0000 0.79402  0.40621  0.69513  Biso   1.000  O
  C21      1.0000 0.78952  0.20739  0.58002  Biso   1.000  C
  C22      1.0000 0.71953  0.30338  0.57660  Biso   1.000  C
  C23      1.0000 0.68016  0.34356  0.49681  Biso   1.000  C
  H5       1.0000 0.63200  0.40660  0.49470  Biso   1.000  H
  C24      1.0000 0.82383  0.15331  0.66444  Biso   1.000  C
  C25      1.0000 0.69552  0.37263  0.65444  Biso   1.000  C
  O21      1.0000 0.41967  0.58739  0.66155  Biso   1.000  O
  O22      1.0000 0.25526  0.67370  0.72717  Biso   1.000  O
  O23      1.0000 0.07422  0.89775  0.66645  Biso   1.000  O
  O24      1.0000 0.29402  0.90621  0.69513  Biso   1.000  O
  C26      1.0000 0.28952  0.70739  0.58002  Biso   1.000  C
  C27      1.0000 0.21953  0.80338  0.57660  Biso   1.000  C
  C28      1.0000 0.18016  0.84356  0.49681  Biso   1.000  C
  H6       1.0000 0.13200  0.90660  0.49470  Biso   1.000  H
  C29      1.0000 0.32383  0.65331  0.66444  Biso   1.000  C
  C30      1.0000 0.19552  0.87263  0.65444  Biso   1.000  C
  O25      1.0000 0.08033  0.08739  0.83845  Biso   1.000  O
  O26      1.0000 0.24474  0.17370  0.77283  Biso   1.000  O
  O27      1.0000 0.42578  0.39775  0.83355  Biso   1.000  O
  O28      1.0000 0.20598  0.40621  0.80487  Biso   1.000  O
  C31      1.0000 0.21048  0.20739  0.91998  Biso   1.000  C
  C32      1.0000 0.28047  0.30338  0.92340  Biso   1.000  C
  C33      1.0000 0.31984  0.34356  0.00319  Biso   1.000  C
  H7       1.0000 0.36800  0.40660  0.00530  Biso   1.000  H
  C34      1.0000 0.17617  0.15331  0.83556  Biso   1.000  C
  C35      1.0000 0.30448  0.37263  0.84556  Biso   1.000  C
  O29      1.0000 0.58033  0.58739  0.83845  Biso   1.000  O
  O30      1.0000 0.74474  0.67370  0.77283  Biso   1.000  O
  O31      1.0000 0.92578  0.89775  0.83355  Biso   1.000  O
  O32      1.0000 0.70598  0.90621  0.80487  Biso   1.000  O
  C36      1.0000 0.71048  0.70739  0.91998  Biso   1.000  C
  C37      1.0000 0.78047  0.80338  0.92340  Biso   1.000  C
  C38      1.0000 0.81984  0.84356  0.00319  Biso   1.000  C
  H8       1.0000 0.86800  0.90660  0.00530  Biso   1.000  H
  C39      1.0000 0.67617  0.65331  0.83556  Biso   1.000  C
  C40      1.0000 0.80448  0.87263  0.84556  Biso   1.000  C
  Zn1      1.0000 0.00000  0.00341  0.25000  Biso   1.000  Zn
  Zn2      1.0000 0.50000  0.50341  0.25000  Biso   1.000  Zn
  Zn3      1.0000 0.00000  0.99659  0.75000  Biso   1.000  Zn
  Zn4      1.0000 0.50000  0.49659  0.75000  Biso   1.000  Zn
