data_image0
_cell_length_a       17.0531
_cell_length_b       17.0531
_cell_length_c       10.7397
_cell_angle_alpha    90
_cell_angle_beta     90
_cell_angle_gamma    90

_symmetry_space_group_name_H-M    "P 1"
_symmetry_int_tables_number       1

loop_
  _symmetry_equiv_pos_as_xyz
  'x, y, z'

loop_
  _atom_site_label
  _atom_site_occupancy
  _atom_site_fract_x
  _atom_site_fract_y
  _atom_site_fract_z
  _atom_site_thermal_displace_type
  _atom_site_B_iso_or_equiv
  _atom_site_type_symbol
  W1       1.0000 0.33813  0.94138  0.19340  Biso   1.000  W
  P1       1.0000 0.36522  0.83297  0.44620  Biso   1.000  P
  O1       1.0000 0.42680  0.93110  0.10800  Biso   1.000  O
  O2       1.0000 0.25030  0.96650  0.33170  Biso   1.000  O
  O3       1.0000 0.29300  0.85030  0.16490  Biso   1.000  O
  O4       1.0000 0.39260  0.89480  0.34860  Biso   1.000  O
  O5       1.0000 0.34010  0.75750  0.38310  Biso   1.000  O
  O6       1.0000 0.29570  0.86850  0.52110  Biso   1.000  O
  O7       1.0000 0.43410  0.82150  0.53420  Biso   1.000  O
  W2       1.0000 0.83813  0.44138  0.69340  Biso   1.000  W
  P2       1.0000 0.86522  0.33297  0.94620  Biso   1.000  P
  O8       1.0000 0.92680  0.43110  0.60800  Biso   1.000  O
  O9       1.0000 0.75030  0.46650  0.83170  Biso   1.000  O
  O10      1.0000 0.79300  0.35030  0.66490  Biso   1.000  O
  O11      1.0000 0.89260  0.39480  0.84860  Biso   1.000  O
  O12      1.0000 0.84010  0.25750  0.88310  Biso   1.000  O
  O13      1.0000 0.79570  0.36850  0.02110  Biso   1.000  O
  O14      1.0000 0.93410  0.32150  0.03420  Biso   1.000  O
  W3       1.0000 0.16187  0.05862  0.69340  Biso   1.000  W
  P3       1.0000 0.13478  0.16703  0.94620  Biso   1.000  P
  O15      1.0000 0.07320  0.06890  0.60800  Biso   1.000  O
  O16      1.0000 0.24970  0.03350  0.83170  Biso   1.000  O
  O17      1.0000 0.20700  0.14970  0.66490  Biso   1.000  O
  O18      1.0000 0.10740  0.10520  0.84860  Biso   1.000  O
  O19      1.0000 0.15990  0.24250  0.88310  Biso   1.000  O
  O20      1.0000 0.20430  0.13150  0.02110  Biso   1.000  O
  O21      1.0000 0.06590  0.17850  0.03420  Biso   1.000  O
  W4       1.0000 0.66187  0.55862  0.19340  Biso   1.000  W
  P4       1.0000 0.63478  0.66703  0.44620  Biso   1.000  P
  O22      1.0000 0.57320  0.56890  0.10800  Biso   1.000  O
  O23      1.0000 0.74970  0.53350  0.33170  Biso   1.000  O
  O24      1.0000 0.70700  0.64970  0.16490  Biso   1.000  O
  O25      1.0000 0.60740  0.60520  0.34860  Biso   1.000  O
  O26      1.0000 0.65990  0.74250  0.38310  Biso   1.000  O
  O27      1.0000 0.70430  0.63150  0.52110  Biso   1.000  O
  O28      1.0000 0.56590  0.67850  0.53420  Biso   1.000  O
  W5       1.0000 0.80862  0.58813  0.44340  Biso   1.000  W
  P5       1.0000 0.91703  0.61522  0.69620  Biso   1.000  P
  O29      1.0000 0.81890  0.67680  0.35800  Biso   1.000  O
  O30      1.0000 0.78350  0.50030  0.58170  Biso   1.000  O
  O31      1.0000 0.89970  0.54300  0.41490  Biso   1.000  O
  O32      1.0000 0.85520  0.64260  0.59860  Biso   1.000  O
  O33      1.0000 0.99250  0.59010  0.63310  Biso   1.000  O
  O34      1.0000 0.88150  0.54570  0.77110  Biso   1.000  O
  O35      1.0000 0.92850  0.68410  0.78420  Biso   1.000  O
  W6       1.0000 0.30862  0.08813  0.94340  Biso   1.000  W
  P6       1.0000 0.41703  0.11522  0.19620  Biso   1.000  P
  O36      1.0000 0.31890  0.17680  0.85800  Biso   1.000  O
  O37      1.0000 0.28350  0.00030  0.08170  Biso   1.000  O
  O38      1.0000 0.39970  0.04300  0.91490  Biso   1.000  O
  O39      1.0000 0.35520  0.14260  0.09860  Biso   1.000  O
  O40      1.0000 0.49250  0.09010  0.13310  Biso   1.000  O
  O41      1.0000 0.38150  0.04570  0.27110  Biso   1.000  O
  O42      1.0000 0.42850  0.18410  0.28420  Biso   1.000  O
  W7       1.0000 0.69138  0.41187  0.94340  Biso   1.000  W
  P7       1.0000 0.58297  0.38478  0.19620  Biso   1.000  P
  O43      1.0000 0.68110  0.32320  0.85800  Biso   1.000  O
  O44      1.0000 0.71650  0.49970  0.08170  Biso   1.000  O
  O45      1.0000 0.60030  0.45700  0.91490  Biso   1.000  O
  O46      1.0000 0.64480  0.35740  0.09860  Biso   1.000  O
  O47      1.0000 0.50750  0.40990  0.13310  Biso   1.000  O
  O48      1.0000 0.61850  0.45430  0.27110  Biso   1.000  O
  O49      1.0000 0.57150  0.31590  0.28420  Biso   1.000  O
  W8       1.0000 0.19138  0.91187  0.44340  Biso   1.000  W
  P8       1.0000 0.08297  0.88478  0.69620  Biso   1.000  P
  O50      1.0000 0.18110  0.82320  0.35800  Biso   1.000  O
  O51      1.0000 0.21650  0.99970  0.58170  Biso   1.000  O
  O52      1.0000 0.10030  0.95700  0.41490  Biso   1.000  O
  O53      1.0000 0.14480  0.85740  0.59860  Biso   1.000  O
  O54      1.0000 0.00750  0.90990  0.63310  Biso   1.000  O
  O55      1.0000 0.11850  0.95430  0.77110  Biso   1.000  O
  O56      1.0000 0.07150  0.81590  0.78420  Biso   1.000  O
  W9       1.0000 0.66187  0.05862  0.80660  Biso   1.000  W
  P9       1.0000 0.63478  0.16703  0.55380  Biso   1.000  P
  O57      1.0000 0.57320  0.06890  0.89200  Biso   1.000  O
  O58      1.0000 0.74970  0.03350  0.66830  Biso   1.000  O
  O59      1.0000 0.70700  0.14970  0.83510  Biso   1.000  O
  O60      1.0000 0.60740  0.10520  0.65140  Biso   1.000  O
  O61      1.0000 0.65990  0.24250  0.61690  Biso   1.000  O
  O62      1.0000 0.70430  0.13150  0.47890  Biso   1.000  O
  O63      1.0000 0.56590  0.17850  0.46580  Biso   1.000  O
  W10      1.0000 0.16187  0.55862  0.30660  Biso   1.000  W
  P10      1.0000 0.13478  0.66703  0.05380  Biso   1.000  P
  O64      1.0000 0.07320  0.56890  0.39200  Biso   1.000  O
  O65      1.0000 0.24970  0.53350  0.16830  Biso   1.000  O
  O66      1.0000 0.20700  0.64970  0.33510  Biso   1.000  O
  O67      1.0000 0.10740  0.60520  0.15140  Biso   1.000  O
  O68      1.0000 0.15990  0.74250  0.11690  Biso   1.000  O
  O69      1.0000 0.20430  0.63150  0.97890  Biso   1.000  O
  O70      1.0000 0.06590  0.67850  0.96580  Biso   1.000  O
  W11      1.0000 0.83813  0.94138  0.30660  Biso   1.000  W
  P11      1.0000 0.86522  0.83297  0.05380  Biso   1.000  P
  O71      1.0000 0.92680  0.93110  0.39200  Biso   1.000  O
  O72      1.0000 0.75030  0.96650  0.16830  Biso   1.000  O
  O73      1.0000 0.79300  0.85030  0.33510  Biso   1.000  O
  O74      1.0000 0.89260  0.89480  0.15140  Biso   1.000  O
  O75      1.0000 0.84010  0.75750  0.11690  Biso   1.000  O
  O76      1.0000 0.79570  0.86850  0.97890  Biso   1.000  O
  O77      1.0000 0.93410  0.82150  0.96580  Biso   1.000  O
  W12      1.0000 0.33813  0.44138  0.80660  Biso   1.000  W
  P12      1.0000 0.36522  0.33297  0.55380  Biso   1.000  P
  O78      1.0000 0.42680  0.43110  0.89200  Biso   1.000  O
  O79      1.0000 0.25030  0.46650  0.66830  Biso   1.000  O
  O80      1.0000 0.29300  0.35030  0.83510  Biso   1.000  O
  O81      1.0000 0.39260  0.39480  0.65140  Biso   1.000  O
  O82      1.0000 0.34010  0.25750  0.61690  Biso   1.000  O
  O83      1.0000 0.29570  0.36850  0.47890  Biso   1.000  O
  O84      1.0000 0.43410  0.32150  0.46580  Biso   1.000  O
  W13      1.0000 0.19138  0.41187  0.55660  Biso   1.000  W
  P13      1.0000 0.08297  0.38478  0.30380  Biso   1.000  P
  O85      1.0000 0.18110  0.32320  0.64200  Biso   1.000  O
  O86      1.0000 0.21650  0.49970  0.41830  Biso   1.000  O
  O87      1.0000 0.10030  0.45700  0.58510  Biso   1.000  O
  O88      1.0000 0.14480  0.35740  0.40140  Biso   1.000  O
  O89      1.0000 0.00750  0.40990  0.36690  Biso   1.000  O
  O90      1.0000 0.11850  0.45430  0.22890  Biso   1.000  O
  O91      1.0000 0.07150  0.31590  0.21580  Biso   1.000  O
  W14      1.0000 0.69138  0.91187  0.05660  Biso   1.000  W
  P14      1.0000 0.58297  0.88478  0.80380  Biso   1.000  P
  O92      1.0000 0.68110  0.82320  0.14200  Biso   1.000  O
  O93      1.0000 0.71650  0.99970  0.91830  Biso   1.000  O
  O94      1.0000 0.60030  0.95700  0.08510  Biso   1.000  O
  O95      1.0000 0.64480  0.85740  0.90140  Biso   1.000  O
  O96      1.0000 0.50750  0.90990  0.86690  Biso   1.000  O
  O97      1.0000 0.61850  0.95430  0.72890  Biso   1.000  O
  O98      1.0000 0.57150  0.81590  0.71580  Biso   1.000  O
  W15      1.0000 0.30862  0.58813  0.05660  Biso   1.000  W
  P15      1.0000 0.41703  0.61522  0.80380  Biso   1.000  P
  O99      1.0000 0.31890  0.67680  0.14200  Biso   1.000  O
  O100     1.0000 0.28350  0.50030  0.91830  Biso   1.000  O
  O101     1.0000 0.39970  0.54300  0.08510  Biso   1.000  O
  O102     1.0000 0.35520  0.64260  0.90140  Biso   1.000  O
  O103     1.0000 0.49250  0.59010  0.86690  Biso   1.000  O
  O104     1.0000 0.38150  0.54570  0.72890  Biso   1.000  O
  O105     1.0000 0.42850  0.68410  0.71580  Biso   1.000  O
  W16      1.0000 0.80862  0.08813  0.55660  Biso   1.000  W
  P16      1.0000 0.91703  0.11522  0.30380  Biso   1.000  P
  O106     1.0000 0.81890  0.17680  0.64200  Biso   1.000  O
  O107     1.0000 0.78350  0.00030  0.41830  Biso   1.000  O
  O108     1.0000 0.89970  0.04300  0.58510  Biso   1.000  O
  O109     1.0000 0.85520  0.14260  0.40140  Biso   1.000  O
  O110     1.0000 0.99250  0.09010  0.36690  Biso   1.000  O
  O111     1.0000 0.88150  0.04570  0.22890  Biso   1.000  O
  O112     1.0000 0.92850  0.18410  0.21580  Biso   1.000  O
  Ni1      1.0000 0.50000  0.75000  0.62500  Biso   1.000  Ni
  Ni2      1.0000 0.00000  0.25000  0.12500  Biso   1.000  Ni
  Ni3      1.0000 0.00000  0.75000  0.87500  Biso   1.000  Ni
  Ni4      1.0000 0.50000  0.25000  0.37500  Biso   1.000  Ni
  Ni5      1.0000 0.25000  0.75000  0.25000  Biso   1.000  Ni
  Ni6      1.0000 0.25000  0.25000  0.75000  Biso   1.000  Ni
  Ni7      1.0000 0.00000  0.50000  0.50000  Biso   1.000  Ni
  Ni8      1.0000 0.50000  0.00000  0.00000  Biso   1.000  Ni
  Ni9      1.0000 0.50000  0.50000  0.00000  Biso   1.000  Ni
  Ni10     1.0000 0.00000  0.00000  0.50000  Biso   1.000  Ni
  Ni11     1.0000 0.75000  0.25000  0.75000  Biso   1.000  Ni
  Ni12     1.0000 0.75000  0.75000  0.25000  Biso   1.000  Ni
