data_image0
_cell_length_a       9.5384
_cell_length_b       12.1759
_cell_length_c       19.313
_cell_angle_alpha    101.152
_cell_angle_beta     100.351
_cell_angle_gamma    105.304

_symmetry_space_group_name_H-M    P 1
_symmetry_int_tables_number       1

loop_
  _symmetry_equiv_pos_as_xyz
  'x, y, z'

loop_
  _atom_site_label
  _atom_site_occupancy
  _atom_site_fract_x
  _atom_site_fract_y
  _atom_site_fract_z
  _atom_site_thermal_displace_type
  _atom_site_B_iso_or_equiv
  _atom_site_type_symbol
  Co1      1.0000 0.99594  0.42270  0.64661  Biso   1.000  Co
  Co2      1.0000 0.00406  0.57730  0.35339  Biso   1.000  Co
  Co3      1.0000 0.00000  0.50000  0.50000  Biso   1.000  Co
  Co4      1.0000 0.50000  0.00000  0.00000  Biso   1.000  Co
  H1       1.0000 0.15290  0.25750  0.24720  Biso   1.000  H
  H2       1.0000 0.12950  0.31760  0.32190  Biso   1.000  H
  H3       1.0000 0.28020  0.36640  0.30020  Biso   1.000  H
  H4       1.0000 0.17330  0.04560  0.34420  Biso   1.000  H
  H5       1.0000 0.06730  0.12370  0.35240  Biso   1.000  H
  H6       1.0000 0.08550  0.07030  0.27510  Biso   1.000  H
  H7       1.0000 0.33000  0.14130  0.24500  Biso   1.000  H
  H8       1.0000 0.45730  0.25110  0.29710  Biso   1.000  H
  H9       1.0000 0.42220  0.12990  0.31770  Biso   1.000  H
  H10      1.0000 0.40160  0.81140  0.03490  Biso   1.000  H
  H11      1.0000 0.33260  0.76430  0.96230  Biso   1.000  H
  H12      1.0000 0.49480  0.41640  0.61450  Biso   1.000  H
  H13      1.0000 0.55130  0.29800  0.41570  Biso   1.000  H
  H14      1.0000 0.14000  0.28150  0.44150  Biso   1.000  H
  H15      1.0000 0.70200  0.20710  0.20510  Biso   1.000  H
  H16      1.0000 0.58940  0.91460  0.27610  Biso   1.000  H
  H17      1.0000 0.83920  0.22030  0.41660  Biso   1.000  H
  H18      1.0000 0.78440  0.86190  0.36480  Biso   1.000  H
  H19      1.0000 0.82890  0.88160  0.44950  Biso   1.000  H
  H20      1.0000 0.92030  0.96980  0.41240  Biso   1.000  H
  H21      1.0000 0.49160  0.95690  0.41340  Biso   1.000  H
  H22      1.0000 0.56440  0.87910  0.45470  Biso   1.000  H
  H23      1.0000 0.53020  0.85090  0.36960  Biso   1.000  H
  H24      1.0000 0.87420  0.13010  0.50010  Biso   1.000  H
  H25      1.0000 0.77090  0.03920  0.53130  Biso   1.000  H
  H26      1.0000 0.70970  0.13090  0.49910  Biso   1.000  H
  H27      1.0000 0.15790  0.29800  0.74130  Biso   1.000  H
  H28      1.0000 0.12340  0.20000  0.82980  Biso   1.000  H
  H29      1.0000 0.69990  0.20650  0.79290  Biso   1.000  H
  H30      1.0000 0.74440  0.30100  0.70470  Biso   1.000  H
  H31      1.0000 0.13960  0.24540  0.99830  Biso   1.000  H
  H32      1.0000 0.34870  0.19420  0.03950  Biso   1.000  H
  H33      1.0000 0.17690  0.88380  0.90830  Biso   1.000  H
  H34      1.0000 0.96220  0.92470  0.86490  Biso   1.000  H
  H35      1.0000 0.84710  0.74250  0.75280  Biso   1.000  H
  H36      1.0000 0.87050  0.68240  0.67810  Biso   1.000  H
  H37      1.0000 0.71980  0.63360  0.69980  Biso   1.000  H
  H38      1.0000 0.82670  0.95440  0.65580  Biso   1.000  H
  H39      1.0000 0.93270  0.87630  0.64760  Biso   1.000  H
  H40      1.0000 0.91450  0.92970  0.72490  Biso   1.000  H
  H41      1.0000 0.67000  0.85870  0.75500  Biso   1.000  H
  H42      1.0000 0.54270  0.74890  0.70290  Biso   1.000  H
  H43      1.0000 0.57780  0.87010  0.68230  Biso   1.000  H
  H44      1.0000 0.59840  0.18860  0.96510  Biso   1.000  H
  H45      1.0000 0.66740  0.23570  0.03770  Biso   1.000  H
  H46      1.0000 0.50520  0.58360  0.38550  Biso   1.000  H
  H47      1.0000 0.44870  0.70200  0.58430  Biso   1.000  H
  H48      1.0000 0.86000  0.71850  0.55850  Biso   1.000  H
  H49      1.0000 0.29800  0.79290  0.79490  Biso   1.000  H
  H50      1.0000 0.41060  0.08540  0.72390  Biso   1.000  H
  H51      1.0000 0.16080  0.77970  0.58340  Biso   1.000  H
  H52      1.0000 0.21560  0.13810  0.63520  Biso   1.000  H
  H53      1.0000 0.17110  0.11840  0.55050  Biso   1.000  H
  H54      1.0000 0.07970  0.03020  0.58760  Biso   1.000  H
  H55      1.0000 0.50840  0.04310  0.58660  Biso   1.000  H
  H56      1.0000 0.43560  0.12090  0.54530  Biso   1.000  H
  H57      1.0000 0.46980  0.14910  0.63040  Biso   1.000  H
  H58      1.0000 0.12580  0.86990  0.49990  Biso   1.000  H
  H59      1.0000 0.22910  0.96080  0.46870  Biso   1.000  H
  H60      1.0000 0.29030  0.86910  0.50090  Biso   1.000  H
  H61      1.0000 0.84210  0.70200  0.25870  Biso   1.000  H
  H62      1.0000 0.87660  0.80000  0.17020  Biso   1.000  H
  H63      1.0000 0.30010  0.79350  0.20710  Biso   1.000  H
  H64      1.0000 0.25560  0.69900  0.29530  Biso   1.000  H
  H65      1.0000 0.86040  0.75460  0.00170  Biso   1.000  H
  H66      1.0000 0.65130  0.80580  0.96050  Biso   1.000  H
  H67      1.0000 0.82310  0.11620  0.09170  Biso   1.000  H
  H68      1.0000 0.03780  0.07530  0.13510  Biso   1.000  H
  C1       1.0000 0.20140  0.29660  0.29730  Biso   1.000  C
  C2       1.0000 0.13610  0.10290  0.32560  Biso   1.000  C
  C3       1.0000 0.37940  0.18100  0.29490  Biso   1.000  C
  C4       1.0000 0.30170  0.35370  0.53460  Biso   1.000  C
  C5       1.0000 0.45550  0.38370  0.56483  Biso   1.000  C
  C6       1.0000 0.54850  0.36380  0.51956  Biso   1.000  C
  C7       1.0000 0.48740  0.31030  0.44547  Biso   1.000  C
  C8       1.0000 0.33370  0.27470  0.41479  Biso   1.000  C
  C9       1.0000 0.24250  0.30050  0.46079  Biso   1.000  C
  C10      1.0000 0.19910  0.37700  0.58223  Biso   1.000  C
  C11      1.0000 0.71600  0.39940  0.54584  Biso   1.000  C
  C12      1.0000 0.26790  0.21330  0.33390  Biso   1.000  C
  C13      1.0000 0.78680  0.23210  0.31275  Biso   1.000  C
  C14      1.0000 0.70570  0.16960  0.24271  Biso   1.000  C
  C15      1.0000 0.63010  0.05030  0.22933  Biso   1.000  C
  C16      1.0000 0.63680  0.99510  0.28592  Biso   1.000  C
  C17      1.0000 0.71330  0.05790  0.35733  Biso   1.000  C
  C18      1.0000 0.78760  0.17660  0.36954  Biso   1.000  C
  C19      1.0000 0.87650  0.35800  0.32851  Biso   1.000  C
  C20      1.0000 0.54120  0.98180  0.15331  Biso   1.000  C
  C21      1.0000 0.71740  0.99430  0.41871  Biso   1.000  C
  C22      1.0000 0.82250  0.92000  0.41060  Biso   1.000  C
  C23      1.0000 0.56140  0.91270  0.41360  Biso   1.000  C
  C24      1.0000 0.77330  0.08190  0.49444  Biso   1.000  C
  C25      1.0000 0.06460  0.27970  0.75200  Biso   1.000  C
  C26      1.0000 0.04510  0.22110  0.80560  Biso   1.000  C
  C27      1.0000 0.90770  0.19420  0.82298  Biso   1.000  C
  C28      1.0000 0.79450  0.22480  0.78350  Biso   1.000  C
  C29      1.0000 0.82230  0.28180  0.73084  Biso   1.000  C
  C30      1.0000 0.02860  0.09100  0.92451  Biso   1.000  C
  C31      1.0000 0.14510  0.17120  0.97850  Biso   1.000  C
  C32      1.0000 0.27060  0.13940  0.00290  Biso   1.000  C
  C33      1.0000 0.17010  0.95820  0.92660  Biso   1.000  C
  C34      1.0000 0.04070  0.98230  0.89970  Biso   1.000  C
  C35      1.0000 0.79860  0.70340  0.70270  Biso   1.000  C
  C36      1.0000 0.86390  0.89710  0.67440  Biso   1.000  C
  C37      1.0000 0.62060  0.81900  0.70510  Biso   1.000  C
  C38      1.0000 0.69830  0.64630  0.46540  Biso   1.000  C
  C39      1.0000 0.54450  0.61630  0.43517  Biso   1.000  C
  C40      1.0000 0.45150  0.63620  0.48044  Biso   1.000  C
  C41      1.0000 0.51260  0.68970  0.55453  Biso   1.000  C
  C42      1.0000 0.66630  0.72530  0.58521  Biso   1.000  C
  C43      1.0000 0.75750  0.69950  0.53921  Biso   1.000  C
  C44      1.0000 0.80090  0.62300  0.41777  Biso   1.000  C
  C45      1.0000 0.28400  0.60060  0.45416  Biso   1.000  C
  C46      1.0000 0.73210  0.78670  0.66610  Biso   1.000  C
  C47      1.0000 0.21320  0.76790  0.68725  Biso   1.000  C
  C48      1.0000 0.29430  0.83040  0.75729  Biso   1.000  C
  C49      1.0000 0.36990  0.94970  0.77067  Biso   1.000  C
  C50      1.0000 0.36320  0.00490  0.71408  Biso   1.000  C
  C51      1.0000 0.28670  0.94210  0.64267  Biso   1.000  C
  C52      1.0000 0.21240  0.82340  0.63046  Biso   1.000  C
  C53      1.0000 0.12350  0.64200  0.67149  Biso   1.000  C
  C54      1.0000 0.45880  0.01820  0.84669  Biso   1.000  C
  C55      1.0000 0.28260  0.00570  0.58129  Biso   1.000  C
  C56      1.0000 0.17750  0.08000  0.58940  Biso   1.000  C
  C57      1.0000 0.43860  0.08730  0.58640  Biso   1.000  C
  C58      1.0000 0.22670  0.91810  0.50556  Biso   1.000  C
  C59      1.0000 0.93540  0.72030  0.24800  Biso   1.000  C
  C60      1.0000 0.95490  0.77890  0.19440  Biso   1.000  C
  C61      1.0000 0.09230  0.80580  0.17702  Biso   1.000  C
  C62      1.0000 0.20550  0.77520  0.21650  Biso   1.000  C
  C63      1.0000 0.17770  0.71820  0.26916  Biso   1.000  C
  C64      1.0000 0.97140  0.90900  0.07549  Biso   1.000  C
  C65      1.0000 0.85490  0.82880  0.02150  Biso   1.000  C
  C66      1.0000 0.72940  0.86060  0.99710  Biso   1.000  C
  C67      1.0000 0.82990  0.04180  0.07340  Biso   1.000  C
  C68      1.0000 0.95930  0.01770  0.10030  Biso   1.000  C
  S1       1.0000 0.86145  0.12301  0.89080  Biso   1.000  S
  S2       1.0000 0.13855  0.87699  0.10920  Biso   1.000  S
  N1       1.0000 0.95700  0.31170  0.71460  Biso   1.000  N
  N2       1.0000 0.28570  0.03570  0.97724  Biso   1.000  N
  N3       1.0000 0.04300  0.68830  0.28540  Biso   1.000  N
  N4       1.0000 0.71430  0.96430  0.02276  Biso   1.000  N
  O1       1.0000 0.06225  0.36882  0.55162  Biso   1.000  O
  O2       1.0000 0.23980  0.40200  0.64926  Biso   1.000  O
  O3       1.0000 0.77410  0.40196  0.61071  Biso   1.000  O
  O4       1.0000 0.78750  0.42160  0.49890  Biso   1.000  O
  O5       1.0000 0.87770  0.41396  0.27966  Biso   1.000  O
  O6       1.0000 0.95740  0.40996  0.39196  Biso   1.000  O
  O7       1.0000 0.52280  0.04354  0.10865  Biso   1.000  O
  O8       1.0000 0.49240  0.87300  0.13928  Biso   1.000  O
  O9       1.0000 0.39200  0.82160  0.99379  Biso   1.000  O
  O10      1.0000 0.93775  0.63118  0.44838  Biso   1.000  O
  O11      1.0000 0.76020  0.59800  0.35074  Biso   1.000  O
  O12      1.0000 0.22590  0.59804  0.38929  Biso   1.000  O
  O13      1.0000 0.21250  0.57840  0.50110  Biso   1.000  O
  O14      1.0000 0.12230  0.58604  0.72034  Biso   1.000  O
  O15      1.0000 0.04260  0.59004  0.60804  Biso   1.000  O
  O16      1.0000 0.47720  0.95646  0.89135  Biso   1.000  O
  O17      1.0000 0.50760  0.12700  0.86072  Biso   1.000  O
  O18      1.0000 0.60800  0.17840  0.00621  Biso   1.000  O
