data_image0
_cell_length_a       6.3758
_cell_length_b       6.884
_cell_length_c       9.0254
_cell_angle_alpha    69.01
_cell_angle_beta     85.197
_cell_angle_gamma    79.452

_symmetry_space_group_name_H-M    P 1
_symmetry_int_tables_number       1

loop_
  _symmetry_equiv_pos_as_xyz
  'x, y, z'

loop_
  _atom_site_label
  _atom_site_occupancy
  _atom_site_fract_x
  _atom_site_fract_y
  _atom_site_fract_z
  _atom_site_thermal_displace_type
  _atom_site_B_iso_or_equiv
  _atom_site_type_symbol
  V1       1.0000 0.00000  0.50000  0.50000  Biso   1.000  V
  V2       1.0000 0.00000  0.00000  0.50000  Biso   1.000  V
  H1       1.0000 0.82440  0.60860  0.99430  Biso   1.000  H
  H2       1.0000 0.06570  0.83740  0.31660  Biso   1.000  H
  H3       1.0000 0.17560  0.39140  0.00570  Biso   1.000  H
  H4       1.0000 0.93430  0.16260  0.68340  Biso   1.000  H
  C1       1.0000 0.39610  0.54390  0.85860  Biso   1.000  C
  C2       1.0000 0.26770  0.61880  0.71130  Biso   1.000  C
  C3       1.0000 0.59400  0.60640  0.85570  Biso   1.000  C
  C4       1.0000 0.71740  0.68590  0.70310  Biso   1.000  C
  C5       1.0000 0.69450  0.56410  0.99660  Biso   1.000  C
  C6       1.0000 0.60390  0.45610  0.14140  Biso   1.000  C
  C7       1.0000 0.73230  0.38120  0.28870  Biso   1.000  C
  C8       1.0000 0.40600  0.39360  0.14430  Biso   1.000  C
  C9       1.0000 0.28260  0.31410  0.29690  Biso   1.000  C
  C10      1.0000 0.30550  0.43590  0.00340  Biso   1.000  C
  O1       1.0000 0.01070  0.79890  0.39240  Biso   1.000  O
  O2       1.0000 0.80670  0.84270  0.67910  Biso   1.000  O
  O3       1.0000 0.17460  0.48870  0.68480  Biso   1.000  O
  O4       1.0000 0.25200  0.81300  0.63100  Biso   1.000  O
  O5       1.0000 0.73170  0.57790  0.61440  Biso   1.000  O
  O6       1.0000 0.98930  0.20110  0.60760  Biso   1.000  O
  O7       1.0000 0.19330  0.15730  0.32090  Biso   1.000  O
  O8       1.0000 0.82540  0.51130  0.31520  Biso   1.000  O
  O9       1.0000 0.74800  0.18700  0.36900  Biso   1.000  O
  O10      1.0000 0.26830  0.42210  0.38560  Biso   1.000  O
