data_image0
_cell_length_a       13.0584
_cell_length_b       13.0584
_cell_length_c       53.731
_cell_angle_alpha    90
_cell_angle_beta     90
_cell_angle_gamma    90

_symmetry_space_group_name_H-M    P 1
_symmetry_int_tables_number       1

loop_
  _symmetry_equiv_pos_as_xyz
  'x, y, z'

loop_
  _atom_site_label
  _atom_site_occupancy
  _atom_site_fract_x
  _atom_site_fract_y
  _atom_site_fract_z
  _atom_site_thermal_displace_type
  _atom_site_B_iso_or_equiv
  _atom_site_type_symbol
  Zn1      1.0000 0.15764  0.12635  0.88462  Biso   1.000  Zn
  Zn2      1.0000 0.32566  0.05892  0.68485  Biso   1.000  Zn
  Zn3      1.0000 0.84236  0.87365  0.38462  Biso   1.000  Zn
  Zn4      1.0000 0.67434  0.94108  0.18485  Biso   1.000  Zn
  Zn5      1.0000 0.37365  0.65764  0.13462  Biso   1.000  Zn
  Zn6      1.0000 0.44108  0.82566  0.93485  Biso   1.000  Zn
  Zn7      1.0000 0.62635  0.34236  0.63462  Biso   1.000  Zn
  Zn8      1.0000 0.55892  0.17434  0.43485  Biso   1.000  Zn
  Zn9      1.0000 0.34236  0.62635  0.36538  Biso   1.000  Zn
  Zn10     1.0000 0.17434  0.55892  0.56515  Biso   1.000  Zn
  Zn11     1.0000 0.65764  0.37365  0.86538  Biso   1.000  Zn
  Zn12     1.0000 0.82566  0.44108  0.06515  Biso   1.000  Zn
  Zn13     1.0000 0.12635  0.15764  0.11538  Biso   1.000  Zn
  Zn14     1.0000 0.05892  0.32566  0.31515  Biso   1.000  Zn
  Zn15     1.0000 0.87365  0.84236  0.61538  Biso   1.000  Zn
  Zn16     1.0000 0.94108  0.67434  0.81515  Biso   1.000  Zn
  B1       1.0000 0.26280  0.53090  0.87190  Biso   1.000  B
  B2       1.0000 0.73720  0.46910  0.37190  Biso   1.000  B
  B3       1.0000 0.96910  0.76280  0.12190  Biso   1.000  B
  B4       1.0000 0.03090  0.23720  0.62190  Biso   1.000  B
  B5       1.0000 0.23720  0.03090  0.37810  Biso   1.000  B
  B6       1.0000 0.76280  0.96910  0.87810  Biso   1.000  B
  B7       1.0000 0.53090  0.26280  0.12810  Biso   1.000  B
  B8       1.0000 0.46910  0.73720  0.62810  Biso   1.000  B
  H1       1.0000 0.06040  0.54420  0.85230  Biso   1.000  H
  H2       1.0000 0.31380  0.70200  0.83850  Biso   1.000  H
  H3       1.0000 0.17500  0.77120  0.81330  Biso   1.000  H
  H4       1.0000 0.27840  0.31520  0.87060  Biso   1.000  H
  H5       1.0000 0.01540  0.32010  0.90250  Biso   1.000  H
  H6       1.0000 0.05860  0.49380  0.89560  Biso   1.000  H
  H7       1.0000 0.46380  0.47820  0.88720  Biso   1.000  H
  H8       1.0000 0.32160  0.45650  0.82280  Biso   1.000  H
  H9       1.0000 0.48680  0.38290  0.81810  Biso   1.000  H
  H10      1.0000 0.33900  0.96410  0.88950  Biso   1.000  H
  H11      1.0000 0.32240  0.00380  0.96100  Biso   1.000  H
  H12      1.0000 0.21250  0.12580  0.94140  Biso   1.000  H
  H13      1.0000 0.35820  0.72250  0.88400  Biso   1.000  H
  H14      1.0000 0.35630  0.60920  0.95160  Biso   1.000  H
  H15      1.0000 0.26730  0.49180  0.92480  Biso   1.000  H
  H16      1.0000 0.35520  0.18690  0.80390  Biso   1.000  H
  H17      1.0000 0.36040  0.16090  0.76180  Biso   1.000  H
  H18      1.0000 0.13160  0.96220  0.76660  Biso   1.000  H
  H19      1.0000 0.12470  0.98500  0.81010  Biso   1.000  H
  H20      1.0000 0.93960  0.45580  0.35230  Biso   1.000  H
  H21      1.0000 0.68620  0.29800  0.33850  Biso   1.000  H
  H22      1.0000 0.82500  0.22880  0.31330  Biso   1.000  H
  H23      1.0000 0.72160  0.68480  0.37060  Biso   1.000  H
  H24      1.0000 0.98460  0.67990  0.40250  Biso   1.000  H
  H25      1.0000 0.94140  0.50620  0.39560  Biso   1.000  H
  H26      1.0000 0.53620  0.52180  0.38720  Biso   1.000  H
  H27      1.0000 0.67840  0.54350  0.32280  Biso   1.000  H
  H28      1.0000 0.51320  0.61710  0.31810  Biso   1.000  H
  H29      1.0000 0.66100  0.03590  0.38950  Biso   1.000  H
  H30      1.0000 0.67760  0.99620  0.46100  Biso   1.000  H
  H31      1.0000 0.78750  0.87420  0.44140  Biso   1.000  H
  H32      1.0000 0.64180  0.27750  0.38400  Biso   1.000  H
  H33      1.0000 0.64370  0.39080  0.45160  Biso   1.000  H
  H34      1.0000 0.73270  0.50820  0.42480  Biso   1.000  H
  H35      1.0000 0.64480  0.81310  0.30390  Biso   1.000  H
  H36      1.0000 0.63960  0.83910  0.26180  Biso   1.000  H
  H37      1.0000 0.86840  0.03780  0.26660  Biso   1.000  H
  H38      1.0000 0.87530  0.01500  0.31010  Biso   1.000  H
  H39      1.0000 0.95580  0.56040  0.10230  Biso   1.000  H
  H40      1.0000 0.79800  0.81380  0.08850  Biso   1.000  H
  H41      1.0000 0.72880  0.67500  0.06330  Biso   1.000  H
  H42      1.0000 0.18480  0.77840  0.12060  Biso   1.000  H
  H43      1.0000 0.17990  0.51540  0.15250  Biso   1.000  H
  H44      1.0000 0.00620  0.55860  0.14560  Biso   1.000  H
  H45      1.0000 0.02180  0.96380  0.13720  Biso   1.000  H
  H46      1.0000 0.04350  0.82160  0.07280  Biso   1.000  H
  H47      1.0000 0.11710  0.98680  0.06810  Biso   1.000  H
  H48      1.0000 0.53590  0.83900  0.13950  Biso   1.000  H
  H49      1.0000 0.49620  0.82240  0.21100  Biso   1.000  H
  H50      1.0000 0.37420  0.71250  0.19140  Biso   1.000  H
  H51      1.0000 0.77750  0.85820  0.13400  Biso   1.000  H
  H52      1.0000 0.89080  0.85630  0.20160  Biso   1.000  H
  H53      1.0000 0.00820  0.76730  0.17480  Biso   1.000  H
  H54      1.0000 0.31310  0.85520  0.05390  Biso   1.000  H
  H55      1.0000 0.33910  0.86040  0.01180  Biso   1.000  H
  H56      1.0000 0.53780  0.63160  0.01660  Biso   1.000  H
  H57      1.0000 0.51500  0.62470  0.06010  Biso   1.000  H
  H58      1.0000 0.04420  0.43960  0.60230  Biso   1.000  H
  H59      1.0000 0.20200  0.18620  0.58850  Biso   1.000  H
  H60      1.0000 0.27120  0.32500  0.56330  Biso   1.000  H
  H61      1.0000 0.81520  0.22160  0.62060  Biso   1.000  H
  H62      1.0000 0.82010  0.48460  0.65250  Biso   1.000  H
  H63      1.0000 0.99380  0.44140  0.64560  Biso   1.000  H
  H64      1.0000 0.97820  0.03620  0.63720  Biso   1.000  H
  H65      1.0000 0.95650  0.17840  0.57280  Biso   1.000  H
  H66      1.0000 0.88290  0.01320  0.56810  Biso   1.000  H
  H67      1.0000 0.46410  0.16100  0.63950  Biso   1.000  H
  H68      1.0000 0.50380  0.17760  0.71100  Biso   1.000  H
  H69      1.0000 0.62580  0.28750  0.69140  Biso   1.000  H
  H70      1.0000 0.22250  0.14180  0.63400  Biso   1.000  H
  H71      1.0000 0.10920  0.14370  0.70160  Biso   1.000  H
  H72      1.0000 0.99180  0.23270  0.67480  Biso   1.000  H
  H73      1.0000 0.68690  0.14480  0.55390  Biso   1.000  H
  H74      1.0000 0.66090  0.13960  0.51180  Biso   1.000  H
  H75      1.0000 0.46220  0.36840  0.51660  Biso   1.000  H
  H76      1.0000 0.48500  0.37530  0.56010  Biso   1.000  H
  H77      1.0000 0.43960  0.04420  0.39770  Biso   1.000  H
  H78      1.0000 0.18620  0.20200  0.41150  Biso   1.000  H
  H79      1.0000 0.32500  0.27120  0.43670  Biso   1.000  H
  H80      1.0000 0.22160  0.81520  0.37940  Biso   1.000  H
  H81      1.0000 0.48460  0.82010  0.34750  Biso   1.000  H
  H82      1.0000 0.44140  0.99380  0.35440  Biso   1.000  H
  H83      1.0000 0.03620  0.97820  0.36280  Biso   1.000  H
  H84      1.0000 0.17840  0.95650  0.42720  Biso   1.000  H
  H85      1.0000 0.01320  0.88290  0.43190  Biso   1.000  H
  H86      1.0000 0.16100  0.46410  0.36050  Biso   1.000  H
  H87      1.0000 0.17760  0.50380  0.28900  Biso   1.000  H
  H88      1.0000 0.28750  0.62580  0.30860  Biso   1.000  H
  H89      1.0000 0.14180  0.22250  0.36600  Biso   1.000  H
  H90      1.0000 0.14370  0.10920  0.29840  Biso   1.000  H
  H91      1.0000 0.23270  0.99180  0.32520  Biso   1.000  H
  H92      1.0000 0.14480  0.68690  0.44610  Biso   1.000  H
  H93      1.0000 0.13960  0.66090  0.48820  Biso   1.000  H
  H94      1.0000 0.36840  0.46220  0.48340  Biso   1.000  H
  H95      1.0000 0.37530  0.48500  0.43990  Biso   1.000  H
  H96      1.0000 0.56040  0.95580  0.89770  Biso   1.000  H
  H97      1.0000 0.81380  0.79800  0.91150  Biso   1.000  H
  H98      1.0000 0.67500  0.72880  0.93670  Biso   1.000  H
  H99      1.0000 0.77840  0.18480  0.87940  Biso   1.000  H
  H100     1.0000 0.51540  0.17990  0.84750  Biso   1.000  H
  H101     1.0000 0.55860  0.00620  0.85440  Biso   1.000  H
  H102     1.0000 0.96380  0.02180  0.86280  Biso   1.000  H
  H103     1.0000 0.82160  0.04350  0.92720  Biso   1.000  H
  H104     1.0000 0.98680  0.11710  0.93190  Biso   1.000  H
  H105     1.0000 0.83900  0.53590  0.86050  Biso   1.000  H
  H106     1.0000 0.82240  0.49620  0.78900  Biso   1.000  H
  H107     1.0000 0.71250  0.37420  0.80860  Biso   1.000  H
  H108     1.0000 0.85820  0.77750  0.86600  Biso   1.000  H
  H109     1.0000 0.85630  0.89080  0.79840  Biso   1.000  H
  H110     1.0000 0.76730  0.00820  0.82520  Biso   1.000  H
  H111     1.0000 0.85520  0.31310  0.94610  Biso   1.000  H
  H112     1.0000 0.86040  0.33910  0.98820  Biso   1.000  H
  H113     1.0000 0.63160  0.53780  0.98340  Biso   1.000  H
  H114     1.0000 0.62470  0.51500  0.93990  Biso   1.000  H
  H115     1.0000 0.54420  0.06040  0.14770  Biso   1.000  H
  H116     1.0000 0.70200  0.31380  0.16150  Biso   1.000  H
  H117     1.0000 0.77120  0.17500  0.18670  Biso   1.000  H
  H118     1.0000 0.31520  0.27840  0.12940  Biso   1.000  H
  H119     1.0000 0.32010  0.01540  0.09750  Biso   1.000  H
  H120     1.0000 0.49380  0.05860  0.10440  Biso   1.000  H
  H121     1.0000 0.47820  0.46380  0.11280  Biso   1.000  H
  H122     1.0000 0.45650  0.32160  0.17720  Biso   1.000  H
  H123     1.0000 0.38290  0.48680  0.18190  Biso   1.000  H
  H124     1.0000 0.96410  0.33900  0.11050  Biso   1.000  H
  H125     1.0000 0.00380  0.32240  0.03900  Biso   1.000  H
  H126     1.0000 0.12580  0.21250  0.05860  Biso   1.000  H
  H127     1.0000 0.72250  0.35820  0.11600  Biso   1.000  H
  H128     1.0000 0.60920  0.35630  0.04840  Biso   1.000  H
  H129     1.0000 0.49180  0.26730  0.07520  Biso   1.000  H
  H130     1.0000 0.18690  0.35520  0.19610  Biso   1.000  H
  H131     1.0000 0.16090  0.36040  0.23820  Biso   1.000  H
  H132     1.0000 0.96220  0.13160  0.23340  Biso   1.000  H
  H133     1.0000 0.98500  0.12470  0.18990  Biso   1.000  H
  H134     1.0000 0.45580  0.93960  0.64770  Biso   1.000  H
  H135     1.0000 0.29800  0.68620  0.66150  Biso   1.000  H
  H136     1.0000 0.22880  0.82500  0.68670  Biso   1.000  H
  H137     1.0000 0.68480  0.72160  0.62940  Biso   1.000  H
  H138     1.0000 0.67990  0.98460  0.59750  Biso   1.000  H
  H139     1.0000 0.50620  0.94140  0.60440  Biso   1.000  H
  H140     1.0000 0.52180  0.53620  0.61280  Biso   1.000  H
  H141     1.0000 0.54350  0.67840  0.67720  Biso   1.000  H
  H142     1.0000 0.61710  0.51320  0.68190  Biso   1.000  H
  H143     1.0000 0.03590  0.66100  0.61050  Biso   1.000  H
  H144     1.0000 0.99620  0.67760  0.53900  Biso   1.000  H
  H145     1.0000 0.87420  0.78750  0.55860  Biso   1.000  H
  H146     1.0000 0.27750  0.64180  0.61600  Biso   1.000  H
  H147     1.0000 0.39080  0.64370  0.54840  Biso   1.000  H
  H148     1.0000 0.50820  0.73270  0.57520  Biso   1.000  H
  H149     1.0000 0.81310  0.64480  0.69610  Biso   1.000  H
  H150     1.0000 0.83910  0.63960  0.73820  Biso   1.000  H
  H151     1.0000 0.03780  0.86840  0.73340  Biso   1.000  H
  H152     1.0000 0.01500  0.87530  0.68990  Biso   1.000  H
  C1       1.0000 0.10660  0.59100  0.84560  Biso   1.000  C
  C2       1.0000 0.24640  0.67900  0.83820  Biso   1.000  C
  C3       1.0000 0.16990  0.71590  0.82410  Biso   1.000  C
  C4       1.0000 0.21800  0.33940  0.87760  Biso   1.000  C
  C5       1.0000 0.07540  0.34240  0.89490  Biso   1.000  C
  C6       1.0000 0.09840  0.43750  0.89120  Biso   1.000  C
  C7       1.0000 0.44980  0.46490  0.87060  Biso   1.000  C
  C8       1.0000 0.37130  0.45300  0.83510  Biso   1.000  C
  C9       1.0000 0.46140  0.41210  0.83260  Biso   1.000  C
  C10      1.0000 0.32120  0.98850  0.90520  Biso   1.000  C
  C11      1.0000 0.31260  0.01000  0.94400  Biso   1.000  C
  C12      1.0000 0.25180  0.07700  0.93320  Biso   1.000  C
  C13      1.0000 0.34460  0.67960  0.89740  Biso   1.000  C
  C14      1.0000 0.34430  0.61780  0.93470  Biso   1.000  C
  C15      1.0000 0.29600  0.55370  0.91980  Biso   1.000  C
  C16      1.0000 0.23020  0.11090  0.83870  Biso   1.000  C
  C17      1.0000 0.23710  0.09350  0.81120  Biso   1.000  C
  C18      1.0000 0.30900  0.14190  0.79660  Biso   1.000  C
  C19      1.0000 0.31370  0.12470  0.77150  Biso   1.000  C
  C20      1.0000 0.24910  0.05330  0.76040  Biso   1.000  C
  C21      1.0000 0.17790  0.00620  0.77430  Biso   1.000  C
  C22      1.0000 0.17120  0.02160  0.80050  Biso   1.000  C
  C23      1.0000 0.25660  0.03110  0.73270  Biso   1.000  C
  C24      1.0000 0.89340  0.40900  0.34560  Biso   1.000  C
  C25      1.0000 0.75360  0.32100  0.33820  Biso   1.000  C
  C26      1.0000 0.83010  0.28410  0.32410  Biso   1.000  C
  C27      1.0000 0.78200  0.66060  0.37760  Biso   1.000  C
  C28      1.0000 0.92460  0.65760  0.39490  Biso   1.000  C
  C29      1.0000 0.90160  0.56250  0.39120  Biso   1.000  C
  C30      1.0000 0.55020  0.53510  0.37060  Biso   1.000  C
  C31      1.0000 0.62870  0.54700  0.33510  Biso   1.000  C
  C32      1.0000 0.53860  0.58790  0.33260  Biso   1.000  C
  C33      1.0000 0.67880  0.01150  0.40520  Biso   1.000  C
  C34      1.0000 0.68740  0.99000  0.44400  Biso   1.000  C
  C35      1.0000 0.74820  0.92300  0.43320  Biso   1.000  C
  C36      1.0000 0.65540  0.32040  0.39740  Biso   1.000  C
  C37      1.0000 0.65570  0.38220  0.43470  Biso   1.000  C
  C38      1.0000 0.70400  0.44630  0.41980  Biso   1.000  C
  C39      1.0000 0.76980  0.88910  0.33870  Biso   1.000  C
  C40      1.0000 0.76290  0.90650  0.31120  Biso   1.000  C
  C41      1.0000 0.69100  0.85810  0.29660  Biso   1.000  C
  C42      1.0000 0.68630  0.87530  0.27150  Biso   1.000  C
  C43      1.0000 0.75090  0.94670  0.26040  Biso   1.000  C
  C44      1.0000 0.82210  0.99380  0.27430  Biso   1.000  C
  C45      1.0000 0.82880  0.97840  0.30050  Biso   1.000  C
  C46      1.0000 0.74340  0.96890  0.23270  Biso   1.000  C
  C47      1.0000 0.90900  0.60660  0.09560  Biso   1.000  C
  C48      1.0000 0.82100  0.74640  0.08820  Biso   1.000  C
  C49      1.0000 0.78410  0.66990  0.07410  Biso   1.000  C
  C50      1.0000 0.16060  0.71800  0.12760  Biso   1.000  C
  C51      1.0000 0.15760  0.57540  0.14490  Biso   1.000  C
  C52      1.0000 0.06250  0.59840  0.14120  Biso   1.000  C
  C53      1.0000 0.03510  0.94980  0.12060  Biso   1.000  C
  C54      1.0000 0.04700  0.87130  0.08510  Biso   1.000  C
  C55      1.0000 0.08790  0.96140  0.08260  Biso   1.000  C
  C56      1.0000 0.51150  0.82120  0.15520  Biso   1.000  C
  C57      1.0000 0.49000  0.81260  0.19400  Biso   1.000  C
  C58      1.0000 0.42300  0.75180  0.18320  Biso   1.000  C
  C59      1.0000 0.82040  0.84460  0.14740  Biso   1.000  C
  C60      1.0000 0.88220  0.84430  0.18470  Biso   1.000  C
  C61      1.0000 0.94630  0.79600  0.16980  Biso   1.000  C
  C62      1.0000 0.38910  0.73020  0.08870  Biso   1.000  C
  C63      1.0000 0.40650  0.73710  0.06120  Biso   1.000  C
  C64      1.0000 0.35810  0.80900  0.04660  Biso   1.000  C
  C65      1.0000 0.37530  0.81370  0.02150  Biso   1.000  C
  C66      1.0000 0.44670  0.74910  0.01040  Biso   1.000  C
  C67      1.0000 0.49380  0.67790  0.02430  Biso   1.000  C
  C68      1.0000 0.47840  0.67120  0.05050  Biso   1.000  C
  C69      1.0000 0.46890  0.75660  0.98270  Biso   1.000  C
  C70      1.0000 0.09100  0.39340  0.59560  Biso   1.000  C
  C71      1.0000 0.17900  0.25360  0.58820  Biso   1.000  C
  C72      1.0000 0.21590  0.33010  0.57410  Biso   1.000  C
  C73      1.0000 0.83940  0.28200  0.62760  Biso   1.000  C
  C74      1.0000 0.84240  0.42460  0.64490  Biso   1.000  C
  C75      1.0000 0.93750  0.40160  0.64120  Biso   1.000  C
  C76      1.0000 0.96490  0.05020  0.62060  Biso   1.000  C
  C77      1.0000 0.95300  0.12870  0.58510  Biso   1.000  C
  C78      1.0000 0.91210  0.03860  0.58260  Biso   1.000  C
  C79      1.0000 0.48850  0.17880  0.65520  Biso   1.000  C
  C80      1.0000 0.51000  0.18740  0.69400  Biso   1.000  C
  C81      1.0000 0.57700  0.24820  0.68320  Biso   1.000  C
  C82      1.0000 0.17960  0.15540  0.64740  Biso   1.000  C
  C83      1.0000 0.11780  0.15570  0.68470  Biso   1.000  C
  C84      1.0000 0.05370  0.20400  0.66980  Biso   1.000  C
  C85      1.0000 0.61090  0.26980  0.58870  Biso   1.000  C
  C86      1.0000 0.59350  0.26290  0.56120  Biso   1.000  C
  C87      1.0000 0.64190  0.19100  0.54660  Biso   1.000  C
  C88      1.0000 0.62470  0.18630  0.52150  Biso   1.000  C
  C89      1.0000 0.55330  0.25090  0.51040  Biso   1.000  C
  C90      1.0000 0.50620  0.32210  0.52430  Biso   1.000  C
  C91      1.0000 0.52160  0.32880  0.55050  Biso   1.000  C
  C92      1.0000 0.53110  0.24340  0.48270  Biso   1.000  C
  C93      1.0000 0.39340  0.09100  0.40440  Biso   1.000  C
  C94      1.0000 0.25360  0.17900  0.41180  Biso   1.000  C
  C95      1.0000 0.33010  0.21590  0.42590  Biso   1.000  C
  C96      1.0000 0.28200  0.83940  0.37240  Biso   1.000  C
  C97      1.0000 0.42460  0.84240  0.35510  Biso   1.000  C
  C98      1.0000 0.40160  0.93750  0.35880  Biso   1.000  C
  C99      1.0000 0.05020  0.96490  0.37940  Biso   1.000  C
  C100     1.0000 0.12870  0.95300  0.41490  Biso   1.000  C
  C101     1.0000 0.03860  0.91210  0.41740  Biso   1.000  C
  C102     1.0000 0.17880  0.48850  0.34480  Biso   1.000  C
  C103     1.0000 0.18740  0.51000  0.30600  Biso   1.000  C
  C104     1.0000 0.24820  0.57700  0.31680  Biso   1.000  C
  C105     1.0000 0.15540  0.17960  0.35260  Biso   1.000  C
  C106     1.0000 0.15570  0.11780  0.31530  Biso   1.000  C
  C107     1.0000 0.20400  0.05370  0.33020  Biso   1.000  C
  C108     1.0000 0.26980  0.61090  0.41130  Biso   1.000  C
  C109     1.0000 0.26290  0.59350  0.43880  Biso   1.000  C
  C110     1.0000 0.19100  0.64190  0.45340  Biso   1.000  C
  C111     1.0000 0.18630  0.62470  0.47850  Biso   1.000  C
  C112     1.0000 0.25090  0.55330  0.48960  Biso   1.000  C
  C113     1.0000 0.32210  0.50620  0.47570  Biso   1.000  C
  C114     1.0000 0.32880  0.52160  0.44950  Biso   1.000  C
  C115     1.0000 0.24340  0.53110  0.51730  Biso   1.000  C
  C116     1.0000 0.60660  0.90900  0.90440  Biso   1.000  C
  C117     1.0000 0.74640  0.82100  0.91180  Biso   1.000  C
  C118     1.0000 0.66990  0.78410  0.92590  Biso   1.000  C
  C119     1.0000 0.71800  0.16060  0.87240  Biso   1.000  C
  C120     1.0000 0.57540  0.15760  0.85510  Biso   1.000  C
  C121     1.0000 0.59840  0.06250  0.85880  Biso   1.000  C
  C122     1.0000 0.94980  0.03510  0.87940  Biso   1.000  C
  C123     1.0000 0.87130  0.04700  0.91490  Biso   1.000  C
  C124     1.0000 0.96140  0.08790  0.91740  Biso   1.000  C
  C125     1.0000 0.82120  0.51150  0.84480  Biso   1.000  C
  C126     1.0000 0.81260  0.49000  0.80600  Biso   1.000  C
  C127     1.0000 0.75180  0.42300  0.81680  Biso   1.000  C
  C128     1.0000 0.84460  0.82040  0.85260  Biso   1.000  C
  C129     1.0000 0.84430  0.88220  0.81530  Biso   1.000  C
  C130     1.0000 0.79600  0.94630  0.83020  Biso   1.000  C
  C131     1.0000 0.73020  0.38910  0.91130  Biso   1.000  C
  C132     1.0000 0.73710  0.40650  0.93880  Biso   1.000  C
  C133     1.0000 0.80900  0.35810  0.95340  Biso   1.000  C
  C134     1.0000 0.81370  0.37530  0.97850  Biso   1.000  C
  C135     1.0000 0.74910  0.44670  0.98960  Biso   1.000  C
  C136     1.0000 0.67790  0.49380  0.97570  Biso   1.000  C
  C137     1.0000 0.67120  0.47840  0.94950  Biso   1.000  C
  C138     1.0000 0.75660  0.46890  0.01730  Biso   1.000  C
  C139     1.0000 0.59100  0.10660  0.15440  Biso   1.000  C
  C140     1.0000 0.67900  0.24640  0.16180  Biso   1.000  C
  C141     1.0000 0.71590  0.16990  0.17590  Biso   1.000  C
  C142     1.0000 0.33940  0.21800  0.12240  Biso   1.000  C
  C143     1.0000 0.34240  0.07540  0.10510  Biso   1.000  C
  C144     1.0000 0.43750  0.09840  0.10880  Biso   1.000  C
  C145     1.0000 0.46490  0.44980  0.12940  Biso   1.000  C
  C146     1.0000 0.45300  0.37130  0.16490  Biso   1.000  C
  C147     1.0000 0.41210  0.46140  0.16740  Biso   1.000  C
  C148     1.0000 0.98850  0.32120  0.09480  Biso   1.000  C
  C149     1.0000 0.01000  0.31260  0.05600  Biso   1.000  C
  C150     1.0000 0.07700  0.25180  0.06680  Biso   1.000  C
  C151     1.0000 0.67960  0.34460  0.10260  Biso   1.000  C
  C152     1.0000 0.61780  0.34430  0.06530  Biso   1.000  C
  C153     1.0000 0.55370  0.29600  0.08020  Biso   1.000  C
  C154     1.0000 0.11090  0.23020  0.16130  Biso   1.000  C
  C155     1.0000 0.09350  0.23710  0.18880  Biso   1.000  C
  C156     1.0000 0.14190  0.30900  0.20340  Biso   1.000  C
  C157     1.0000 0.12470  0.31370  0.22850  Biso   1.000  C
  C158     1.0000 0.05330  0.24910  0.23960  Biso   1.000  C
  C159     1.0000 0.00620  0.17790  0.22570  Biso   1.000  C
  C160     1.0000 0.02160  0.17120  0.19950  Biso   1.000  C
  C161     1.0000 0.03110  0.25660  0.26730  Biso   1.000  C
  C162     1.0000 0.40900  0.89340  0.65440  Biso   1.000  C
  C163     1.0000 0.32100  0.75360  0.66180  Biso   1.000  C
  C164     1.0000 0.28410  0.83010  0.67590  Biso   1.000  C
  C165     1.0000 0.66060  0.78200  0.62240  Biso   1.000  C
  C166     1.0000 0.65760  0.92460  0.60510  Biso   1.000  C
  C167     1.0000 0.56250  0.90160  0.60880  Biso   1.000  C
  C168     1.0000 0.53510  0.55020  0.62940  Biso   1.000  C
  C169     1.0000 0.54700  0.62870  0.66490  Biso   1.000  C
  C170     1.0000 0.58790  0.53860  0.66740  Biso   1.000  C
  C171     1.0000 0.01150  0.67880  0.59480  Biso   1.000  C
  C172     1.0000 0.99000  0.68740  0.55600  Biso   1.000  C
  C173     1.0000 0.92300  0.74820  0.56680  Biso   1.000  C
  C174     1.0000 0.32040  0.65540  0.60260  Biso   1.000  C
  C175     1.0000 0.38220  0.65570  0.56530  Biso   1.000  C
  C176     1.0000 0.44630  0.70400  0.58020  Biso   1.000  C
  C177     1.0000 0.88910  0.76980  0.66130  Biso   1.000  C
  C178     1.0000 0.90650  0.76290  0.68880  Biso   1.000  C
  C179     1.0000 0.85810  0.69100  0.70340  Biso   1.000  C
  C180     1.0000 0.87530  0.68630  0.72850  Biso   1.000  C
  C181     1.0000 0.94670  0.75090  0.73960  Biso   1.000  C
  C182     1.0000 0.99380  0.82210  0.72570  Biso   1.000  C
  C183     1.0000 0.97840  0.82880  0.69950  Biso   1.000  C
  C184     1.0000 0.96890  0.74340  0.76730  Biso   1.000  C
  N1       1.0000 0.20430  0.59850  0.85218  Biso   1.000  N
  N2       1.0000 0.08360  0.65990  0.82817  Biso   1.000  N
  N3       1.0000 0.19400  0.44030  0.87964  Biso   1.000  N
  N4       1.0000 0.14710  0.28120  0.88650  Biso   1.000  N
  N5       1.0000 0.36070  0.49050  0.85919  Biso   1.000  N
  N6       1.0000 0.51450  0.41890  0.85533  Biso   1.000  N
  N7       1.0000 0.35970  0.95030  0.92608  Biso   1.000  N
  N8       1.0000 0.25560  0.06380  0.90849  Biso   1.000  N
  N9       1.0000 0.29410  0.59110  0.89555  Biso   1.000  N
  N10      1.0000 0.37300  0.69920  0.92045  Biso   1.000  N
  N11      1.0000 0.79570  0.40150  0.35218  Biso   1.000  N
  N12      1.0000 0.91640  0.34010  0.32817  Biso   1.000  N
  N13      1.0000 0.80600  0.55970  0.37964  Biso   1.000  N
  N14      1.0000 0.85290  0.71880  0.38650  Biso   1.000  N
  N15      1.0000 0.63930  0.50950  0.35919  Biso   1.000  N
  N16      1.0000 0.48550  0.58110  0.35533  Biso   1.000  N
  N17      1.0000 0.64030  0.04970  0.42608  Biso   1.000  N
  N18      1.0000 0.74440  0.93620  0.40849  Biso   1.000  N
  N19      1.0000 0.70590  0.40890  0.39555  Biso   1.000  N
  N20      1.0000 0.62700  0.30080  0.42045  Biso   1.000  N
  N21      1.0000 0.90150  0.70430  0.10218  Biso   1.000  N
  N22      1.0000 0.84010  0.58360  0.07817  Biso   1.000  N
  N23      1.0000 0.05970  0.69400  0.12964  Biso   1.000  N
  N24      1.0000 0.21880  0.64710  0.13650  Biso   1.000  N
  N25      1.0000 0.00950  0.86070  0.10919  Biso   1.000  N
  N26      1.0000 0.08110  0.01450  0.10533  Biso   1.000  N
  N27      1.0000 0.54970  0.85970  0.17608  Biso   1.000  N
  N28      1.0000 0.43620  0.75560  0.15849  Biso   1.000  N
  N29      1.0000 0.90890  0.79410  0.14555  Biso   1.000  N
  N30      1.0000 0.80080  0.87300  0.17045  Biso   1.000  N
  N31      1.0000 0.09850  0.29570  0.60218  Biso   1.000  N
  N32      1.0000 0.15990  0.41640  0.57817  Biso   1.000  N
  N33      1.0000 0.94030  0.30600  0.62964  Biso   1.000  N
  N34      1.0000 0.78120  0.35290  0.63650  Biso   1.000  N
  N35      1.0000 0.99050  0.13930  0.60919  Biso   1.000  N
  N36      1.0000 0.91890  0.98550  0.60533  Biso   1.000  N
  N37      1.0000 0.45030  0.14030  0.67608  Biso   1.000  N
  N38      1.0000 0.56380  0.24440  0.65849  Biso   1.000  N
  N39      1.0000 0.09110  0.20590  0.64555  Biso   1.000  N
  N40      1.0000 0.19920  0.12700  0.67045  Biso   1.000  N
  N41      1.0000 0.29570  0.09850  0.39782  Biso   1.000  N
  N42      1.0000 0.41640  0.15990  0.42183  Biso   1.000  N
  N43      1.0000 0.30600  0.94030  0.37036  Biso   1.000  N
  N44      1.0000 0.35290  0.78120  0.36350  Biso   1.000  N
  N45      1.0000 0.13930  0.99050  0.39081  Biso   1.000  N
  N46      1.0000 0.98550  0.91890  0.39467  Biso   1.000  N
  N47      1.0000 0.14030  0.45030  0.32392  Biso   1.000  N
  N48      1.0000 0.24440  0.56380  0.34151  Biso   1.000  N
  N49      1.0000 0.20590  0.09110  0.35445  Biso   1.000  N
  N50      1.0000 0.12700  0.19920  0.32955  Biso   1.000  N
  N51      1.0000 0.70430  0.90150  0.89782  Biso   1.000  N
  N52      1.0000 0.58360  0.84010  0.92183  Biso   1.000  N
  N53      1.0000 0.69400  0.05970  0.87036  Biso   1.000  N
  N54      1.0000 0.64710  0.21880  0.86350  Biso   1.000  N
  N55      1.0000 0.86070  0.00950  0.89081  Biso   1.000  N
  N56      1.0000 0.01450  0.08110  0.89467  Biso   1.000  N
  N57      1.0000 0.85970  0.54970  0.82392  Biso   1.000  N
  N58      1.0000 0.75560  0.43620  0.84151  Biso   1.000  N
  N59      1.0000 0.79410  0.90890  0.85445  Biso   1.000  N
  N60      1.0000 0.87300  0.80080  0.82955  Biso   1.000  N
  N61      1.0000 0.59850  0.20430  0.14782  Biso   1.000  N
  N62      1.0000 0.65990  0.08360  0.17183  Biso   1.000  N
  N63      1.0000 0.44030  0.19400  0.12036  Biso   1.000  N
  N64      1.0000 0.28120  0.14710  0.11350  Biso   1.000  N
  N65      1.0000 0.49050  0.36070  0.14081  Biso   1.000  N
  N66      1.0000 0.41890  0.51450  0.14467  Biso   1.000  N
  N67      1.0000 0.95030  0.35970  0.07392  Biso   1.000  N
  N68      1.0000 0.06380  0.25560  0.09151  Biso   1.000  N
  N69      1.0000 0.59110  0.29410  0.10445  Biso   1.000  N
  N70      1.0000 0.69920  0.37300  0.07955  Biso   1.000  N
  N71      1.0000 0.40150  0.79570  0.64782  Biso   1.000  N
  N72      1.0000 0.34010  0.91640  0.67183  Biso   1.000  N
  N73      1.0000 0.55970  0.80600  0.62036  Biso   1.000  N
  N74      1.0000 0.71880  0.85290  0.61350  Biso   1.000  N
  N75      1.0000 0.50950  0.63930  0.64081  Biso   1.000  N
  N76      1.0000 0.58110  0.48550  0.64467  Biso   1.000  N
  N77      1.0000 0.04970  0.64030  0.57392  Biso   1.000  N
  N78      1.0000 0.93620  0.74440  0.59151  Biso   1.000  N
  N79      1.0000 0.40890  0.70590  0.60445  Biso   1.000  N
  N80      1.0000 0.30080  0.62700  0.57955  Biso   1.000  N
  O1       1.0000 0.32400  0.08220  0.72031  Biso   1.000  O
  O2       1.0000 0.20030  0.97030  0.72297  Biso   1.000  O
  O3       1.0000 0.15260  0.07390  0.85011  Biso   1.000  O
  O4       1.0000 0.30250  0.15960  0.84944  Biso   1.000  O
  O5       1.0000 0.67600  0.91780  0.22031  Biso   1.000  O
  O6       1.0000 0.79970  0.02970  0.22297  Biso   1.000  O
  O7       1.0000 0.84740  0.92610  0.35011  Biso   1.000  O
  O8       1.0000 0.69750  0.84040  0.34944  Biso   1.000  O
  O9       1.0000 0.41780  0.82400  0.97031  Biso   1.000  O
  O10      1.0000 0.52970  0.70030  0.97297  Biso   1.000  O
  O11      1.0000 0.42610  0.65260  0.10011  Biso   1.000  O
  O12      1.0000 0.34040  0.80250  0.09944  Biso   1.000  O
  O13      1.0000 0.58220  0.17600  0.47031  Biso   1.000  O
  O14      1.0000 0.47030  0.29970  0.47297  Biso   1.000  O
  O15      1.0000 0.57390  0.34740  0.60011  Biso   1.000  O
  O16      1.0000 0.65960  0.19750  0.59944  Biso   1.000  O
  O17      1.0000 0.17600  0.58220  0.52969  Biso   1.000  O
  O18      1.0000 0.29970  0.47030  0.52703  Biso   1.000  O
  O19      1.0000 0.34740  0.57390  0.39989  Biso   1.000  O
  O20      1.0000 0.19750  0.65960  0.40056  Biso   1.000  O
  O21      1.0000 0.82400  0.41780  0.02969  Biso   1.000  O
  O22      1.0000 0.70030  0.52970  0.02703  Biso   1.000  O
  O23      1.0000 0.65260  0.42610  0.89989  Biso   1.000  O
  O24      1.0000 0.80250  0.34040  0.90056  Biso   1.000  O
  O25      1.0000 0.08220  0.32400  0.27969  Biso   1.000  O
  O26      1.0000 0.97030  0.20030  0.27703  Biso   1.000  O
  O27      1.0000 0.07390  0.15260  0.14989  Biso   1.000  O
  O28      1.0000 0.15960  0.30250  0.15056  Biso   1.000  O
  O29      1.0000 0.91780  0.67600  0.77969  Biso   1.000  O
  O30      1.0000 0.02970  0.79970  0.77703  Biso   1.000  O
  O31      1.0000 0.92610  0.84740  0.64989  Biso   1.000  O
  O32      1.0000 0.84040  0.69750  0.65056  Biso   1.000  O
