data_image0
_cell_length_a       23.5303
_cell_length_b       23.5303
_cell_length_c       23.5303
_cell_angle_alpha    109.471
_cell_angle_beta     109.471
_cell_angle_gamma    109.471

_symmetry_space_group_name_H-M    P 1
_symmetry_int_tables_number       1

loop_
  _symmetry_equiv_pos_as_xyz
  'x, y, z'

loop_
  _atom_site_label
  _atom_site_occupancy
  _atom_site_fract_x
  _atom_site_fract_y
  _atom_site_fract_z
  _atom_site_thermal_displace_type
  _atom_site_B_iso_or_equiv
  _atom_site_type_symbol
  Zn1      1.0000 0.27414  0.00000  0.00000  Biso   1.000  Zn
  Zn2      1.0000 0.50000  0.27414  0.50000  Biso   1.000  Zn
  Zn3      1.0000 0.00000  0.50000  0.77414  Biso   1.000  Zn
  Zn4      1.0000 0.22586  0.22586  0.72586  Biso   1.000  Zn
  Zn5      1.0000 0.77414  0.00000  1.00000  Biso   1.000  Zn
  Zn6      1.0000 0.50000  0.77414  0.50000  Biso   1.000  Zn
  Zn7      1.0000 0.72586  0.72586  0.22586  Biso   1.000  Zn
  Zn8      1.0000 0.00000  0.50000  0.27414  Biso   1.000  Zn
  Zn9      1.0000 0.62500  0.37500  0.25000  Biso   1.000  Zn
  Zn10     1.0000 0.87500  0.12500  0.75000  Biso   1.000  Zn
  Zn11     1.0000 0.25000  0.87500  0.62500  Biso   1.000  Zn
  Zn12     1.0000 0.75000  0.62500  0.87500  Biso   1.000  Zn
  Zn13     1.0000 0.37500  0.75000  0.12500  Biso   1.000  Zn
  Zn14     1.0000 0.12500  0.25000  0.37500  Biso   1.000  Zn
  H1       1.0000 0.42700  0.02670  0.09430  Biso   1.000  H
  H2       1.0000 0.54050  0.11870  0.16140  Biso   1.000  H
  H3       1.0000 0.56280  0.22980  0.18900  Biso   1.000  H
  H4       1.0000 0.16790  0.05770  0.97120  Biso   1.000  H
  H5       1.0000 0.17200  0.16430  0.00250  Biso   1.000  H
  H6       1.0000 0.28100  0.26790  0.07290  Biso   1.000  H
  H7       1.0000 0.52430  0.42700  0.20710  Biso   1.000  H
  H8       1.0000 0.43240  0.33270  0.40570  Biso   1.000  H
  H9       1.0000 0.45730  0.37910  0.33860  Biso   1.000  H
  H10      1.0000 0.54080  0.37380  0.31100  Biso   1.000  H
  H11      1.0000 0.58650  0.19670  0.52880  Biso   1.000  H
  H12      1.0000 0.66180  0.16950  0.49750  Biso   1.000  H
  H13      1.0000 0.69500  0.20810  0.42710  Biso   1.000  H
  H14      1.0000 0.71990  0.31720  0.29290  Biso   1.000  H
  H15      1.0000 0.06760  0.47330  0.90030  Biso   1.000  H
  H16      1.0000 0.04270  0.38130  0.92180  Biso   1.000  H
  H17      1.0000 0.95920  0.27020  0.83300  Biso   1.000  H
  H18      1.0000 0.91350  0.44230  0.61020  Biso   1.000  H
  H19      1.0000 0.83820  0.33570  0.50770  Biso   1.000  H
  H20      1.0000 0.80500  0.23210  0.51310  Biso   1.000  H
  H21      1.0000 0.78010  0.07300  0.59730  Biso   1.000  H
  H22      1.0000 0.07300  0.16730  0.59970  Biso   1.000  H
  H23      1.0000 0.95950  0.12090  0.57820  Biso   1.000  H
  H24      1.0000 0.93720  0.12620  0.66700  Biso   1.000  H
  H25      1.0000 0.33210  0.30330  0.88980  Biso   1.000  H
  H26      1.0000 0.32800  0.33050  0.99230  Biso   1.000  H
  H27      1.0000 0.21900  0.29190  0.98690  Biso   1.000  H
  H28      1.0000 0.97570  0.18280  0.90270  Biso   1.000  H
  H29      1.0000 0.40030  0.06760  0.97330  Biso   1.000  H
  H30      1.0000 0.42180  0.04270  0.88130  Biso   1.000  H
  H31      1.0000 0.33300  0.95920  0.77020  Biso   1.000  H
  H32      1.0000 0.11020  0.91350  0.94230  Biso   1.000  H
  H33      1.0000 0.00770  0.83820  0.83570  Biso   1.000  H
  H34      1.0000 0.01310  0.80500  0.73210  Biso   1.000  H
  H35      1.0000 0.09730  0.78010  0.57300  Biso   1.000  H
  H36      1.0000 0.09970  0.07300  0.66730  Biso   1.000  H
  H37      1.0000 0.07820  0.95950  0.62090  Biso   1.000  H
  H38      1.0000 0.16700  0.93720  0.62620  Biso   1.000  H
  H39      1.0000 0.38980  0.33210  0.80330  Biso   1.000  H
  H40      1.0000 0.49230  0.32800  0.83050  Biso   1.000  H
  H41      1.0000 0.48690  0.21900  0.79190  Biso   1.000  H
  H42      1.0000 0.40270  0.97570  0.68280  Biso   1.000  H
  H43      1.0000 0.59430  0.42700  0.52670  Biso   1.000  H
  H44      1.0000 0.66140  0.54050  0.61870  Biso   1.000  H
  H45      1.0000 0.68900  0.56280  0.72980  Biso   1.000  H
  H46      1.0000 0.47120  0.16790  0.55770  Biso   1.000  H
  H47      1.0000 0.50250  0.17200  0.66430  Biso   1.000  H
  H48      1.0000 0.57290  0.28100  0.76790  Biso   1.000  H
  H49      1.0000 0.70710  0.52430  0.92700  Biso   1.000  H
  H50      1.0000 0.90570  0.43240  0.83270  Biso   1.000  H
  H51      1.0000 0.83860  0.45730  0.87910  Biso   1.000  H
  H52      1.0000 0.81100  0.54080  0.87380  Biso   1.000  H
  H53      1.0000 0.02880  0.58650  0.69670  Biso   1.000  H
  H54      1.0000 0.99750  0.66180  0.66950  Biso   1.000  H
  H55      1.0000 0.92710  0.69500  0.70810  Biso   1.000  H
  H56      1.0000 0.79290  0.71990  0.81720  Biso   1.000  H
  H57      1.0000 0.33270  0.90570  0.93240  Biso   1.000  H
  H58      1.0000 0.37910  0.83860  0.95730  Biso   1.000  H
  H59      1.0000 0.37380  0.81100  0.04080  Biso   1.000  H
  H60      1.0000 0.19670  0.02880  0.08650  Biso   1.000  H
  H61      1.0000 0.16950  0.99750  0.16180  Biso   1.000  H
  H62      1.0000 0.20810  0.92710  0.19500  Biso   1.000  H
  H63      1.0000 0.31720  0.79290  0.21990  Biso   1.000  H
  H64      1.0000 0.02670  0.59430  0.92700  Biso   1.000  H
  H65      1.0000 0.11870  0.66140  0.04050  Biso   1.000  H
  H66      1.0000 0.22980  0.68900  0.06280  Biso   1.000  H
  H67      1.0000 0.05770  0.47120  0.66790  Biso   1.000  H
  H68      1.0000 0.16430  0.50250  0.67200  Biso   1.000  H
  H69      1.0000 0.26790  0.57290  0.78100  Biso   1.000  H
  H70      1.0000 0.42700  0.70710  0.02430  Biso   1.000  H
  H71      1.0000 0.16730  0.09970  0.57300  Biso   1.000  H
  H72      1.0000 0.12090  0.07820  0.45950  Biso   1.000  H
  H73      1.0000 0.12620  0.16700  0.43720  Biso   1.000  H
  H74      1.0000 0.30330  0.38980  0.83210  Biso   1.000  H
  H75      1.0000 0.33050  0.49230  0.82800  Biso   1.000  H
  H76      1.0000 0.29190  0.48690  0.71900  Biso   1.000  H
  H77      1.0000 0.18280  0.40270  0.47570  Biso   1.000  H
  H78      1.0000 0.47330  0.40030  0.56760  Biso   1.000  H
  H79      1.0000 0.38130  0.42180  0.54270  Biso   1.000  H
  H80      1.0000 0.27020  0.33300  0.45920  Biso   1.000  H
  H81      1.0000 0.44230  0.11020  0.41350  Biso   1.000  H
  H82      1.0000 0.33570  0.00770  0.33820  Biso   1.000  H
  H83      1.0000 0.23210  0.01310  0.30500  Biso   1.000  H
  H84      1.0000 0.07300  0.09730  0.28010  Biso   1.000  H
  H85      1.0000 0.83270  0.93240  0.90570  Biso   1.000  H
  H86      1.0000 0.87910  0.95730  0.83860  Biso   1.000  H
  H87      1.0000 0.87380  0.04080  0.81100  Biso   1.000  H
  H88      1.0000 0.69670  0.08650  0.02880  Biso   1.000  H
  H89      1.0000 0.66950  0.16180  0.99750  Biso   1.000  H
  H90      1.0000 0.70810  0.19500  0.92710  Biso   1.000  H
  H91      1.0000 0.81720  0.21990  0.79290  Biso   1.000  H
  H92      1.0000 0.52670  0.92700  0.59430  Biso   1.000  H
  H93      1.0000 0.61870  0.04050  0.66140  Biso   1.000  H
  H94      1.0000 0.72980  0.06280  0.68900  Biso   1.000  H
  H95      1.0000 0.55770  0.66790  0.47120  Biso   1.000  H
  H96      1.0000 0.66430  0.67200  0.50250  Biso   1.000  H
  H97      1.0000 0.76790  0.78100  0.57290  Biso   1.000  H
  H98      1.0000 0.92700  0.02430  0.70710  Biso   1.000  H
  H99      1.0000 0.66730  0.57300  0.09970  Biso   1.000  H
  H100     1.0000 0.62090  0.45950  0.07820  Biso   1.000  H
  H101     1.0000 0.62620  0.43720  0.16700  Biso   1.000  H
  H102     1.0000 0.80330  0.83210  0.38980  Biso   1.000  H
  H103     1.0000 0.83050  0.82800  0.49230  Biso   1.000  H
  H104     1.0000 0.79190  0.71900  0.48690  Biso   1.000  H
  H105     1.0000 0.68280  0.47570  0.40270  Biso   1.000  H
  H106     1.0000 0.97330  0.56760  0.40030  Biso   1.000  H
  H107     1.0000 0.88130  0.54270  0.42180  Biso   1.000  H
  H108     1.0000 0.77020  0.45920  0.33300  Biso   1.000  H
  H109     1.0000 0.94230  0.41350  0.11020  Biso   1.000  H
  H110     1.0000 0.83570  0.33820  0.00770  Biso   1.000  H
  H111     1.0000 0.73210  0.30500  0.01310  Biso   1.000  H
  H112     1.0000 0.57300  0.28010  0.09730  Biso   1.000  H
  H113     1.0000 0.92700  0.09430  0.02670  Biso   1.000  H
  H114     1.0000 0.04050  0.16140  0.11870  Biso   1.000  H
  H115     1.0000 0.06280  0.18900  0.22980  Biso   1.000  H
  H116     1.0000 0.66790  0.97120  0.05770  Biso   1.000  H
  H117     1.0000 0.67200  0.00250  0.16430  Biso   1.000  H
  H118     1.0000 0.78100  0.07290  0.26790  Biso   1.000  H
  H119     1.0000 0.02430  0.20710  0.42700  Biso   1.000  H
  H120     1.0000 0.93240  0.40570  0.33270  Biso   1.000  H
  H121     1.0000 0.95730  0.33860  0.37910  Biso   1.000  H
  H122     1.0000 0.04080  0.31100  0.37380  Biso   1.000  H
  H123     1.0000 0.08650  0.52880  0.19670  Biso   1.000  H
  H124     1.0000 0.16180  0.49750  0.16950  Biso   1.000  H
  H125     1.0000 0.19500  0.42710  0.20810  Biso   1.000  H
  H126     1.0000 0.21990  0.29290  0.31720  Biso   1.000  H
  H127     1.0000 0.56760  0.90030  0.47330  Biso   1.000  H
  H128     1.0000 0.54270  0.92180  0.38130  Biso   1.000  H
  H129     1.0000 0.45920  0.83300  0.27020  Biso   1.000  H
  H130     1.0000 0.41350  0.61020  0.44230  Biso   1.000  H
  H131     1.0000 0.33820  0.50770  0.33570  Biso   1.000  H
  H132     1.0000 0.30500  0.51310  0.23210  Biso   1.000  H
  H133     1.0000 0.28010  0.59730  0.07300  Biso   1.000  H
  H134     1.0000 0.57300  0.59970  0.16730  Biso   1.000  H
  H135     1.0000 0.45950  0.57820  0.12090  Biso   1.000  H
  H136     1.0000 0.43720  0.66700  0.12620  Biso   1.000  H
  H137     1.0000 0.83210  0.88980  0.30330  Biso   1.000  H
  H138     1.0000 0.82800  0.99230  0.33050  Biso   1.000  H
  H139     1.0000 0.71900  0.98690  0.29190  Biso   1.000  H
  H140     1.0000 0.47570  0.90270  0.18280  Biso   1.000  H
  H141     1.0000 0.90030  0.97330  0.06760  Biso   1.000  H
  H142     1.0000 0.92180  0.88130  0.04270  Biso   1.000  H
  H143     1.0000 0.83300  0.77020  0.95920  Biso   1.000  H
  H144     1.0000 0.61020  0.94230  0.91350  Biso   1.000  H
  H145     1.0000 0.50770  0.83570  0.83820  Biso   1.000  H
  H146     1.0000 0.51310  0.73210  0.80500  Biso   1.000  H
  H147     1.0000 0.59730  0.57300  0.78010  Biso   1.000  H
  H148     1.0000 0.59970  0.66730  0.07300  Biso   1.000  H
  H149     1.0000 0.57820  0.62090  0.95950  Biso   1.000  H
  H150     1.0000 0.66700  0.62620  0.93720  Biso   1.000  H
  H151     1.0000 0.88980  0.80330  0.33210  Biso   1.000  H
  H152     1.0000 0.99230  0.83050  0.32800  Biso   1.000  H
  H153     1.0000 0.98690  0.79190  0.21900  Biso   1.000  H
  H154     1.0000 0.90270  0.68280  0.97570  Biso   1.000  H
  H155     1.0000 0.09430  0.52670  0.42700  Biso   1.000  H
  H156     1.0000 0.16140  0.61870  0.54050  Biso   1.000  H
  H157     1.0000 0.18900  0.72980  0.56280  Biso   1.000  H
  H158     1.0000 0.97120  0.55770  0.16790  Biso   1.000  H
  H159     1.0000 0.00250  0.66430  0.17200  Biso   1.000  H
  H160     1.0000 0.07290  0.76790  0.28100  Biso   1.000  H
  H161     1.0000 0.20710  0.92700  0.52430  Biso   1.000  H
  H162     1.0000 0.40570  0.83270  0.43240  Biso   1.000  H
  H163     1.0000 0.33860  0.87910  0.45730  Biso   1.000  H
  H164     1.0000 0.31100  0.87380  0.54080  Biso   1.000  H
  H165     1.0000 0.52880  0.69670  0.58650  Biso   1.000  H
  H166     1.0000 0.49750  0.66950  0.66180  Biso   1.000  H
  H167     1.0000 0.42710  0.70810  0.69500  Biso   1.000  H
  H168     1.0000 0.29290  0.81720  0.71990  Biso   1.000  H
  C1       1.0000 0.43500  0.07210  0.10450  Biso   1.000  C
  C2       1.0000 0.50310  0.12710  0.14520  Biso   1.000  C
  C3       1.0000 0.51620  0.19230  0.16170  Biso   1.000  C
  C4       1.0000 0.46030  0.20530  0.13820  Biso   1.000  C
  C5       1.0000 0.39150  0.14460  0.09530  Biso   1.000  C
  C6       1.0000 0.21190  0.09910  0.00200  Biso   1.000  C
  C7       1.0000 0.21380  0.16280  0.01920  Biso   1.000  C
  C8       1.0000 0.27790  0.22380  0.06110  Biso   1.000  C
  C9       1.0000 0.33840  0.21851  0.08591  Biso   1.000  C
  C10      1.0000 0.33197  0.15289  0.06886  Biso   1.000  C
  C11      1.0000 0.49600  0.37800  0.18560  Biso   1.000  C
  C12      1.0000 0.40740  0.27770  0.12870  Biso   1.000  C
  C13      1.0000 0.46520  0.27030  0.15150  Biso   1.000  C
  C14      1.0000 0.46760  0.33050  0.39550  Biso   1.000  C
  C15      1.0000 0.48190  0.35790  0.35480  Biso   1.000  C
  C16      1.0000 0.53060  0.35450  0.33830  Biso   1.000  C
  C17      1.0000 0.56710  0.32210  0.36180  Biso   1.000  C
  C18      1.0000 0.54930  0.29620  0.40470  Biso   1.000  C
  C19      1.0000 0.59710  0.20990  0.49800  Biso   1.000  C
  C20      1.0000 0.64360  0.19460  0.48080  Biso   1.000  C
  C21      1.0000 0.66270  0.21680  0.43890  Biso   1.000  C
  C22      1.0000 0.63260  0.25249  0.41409  Biso   1.000  C
  C23      1.0000 0.58403  0.26311  0.43114  Biso   1.000  C
  C24      1.0000 0.69240  0.31040  0.31440  Biso   1.000  C
  C25      1.0000 0.64900  0.27870  0.37130  Biso   1.000  C
  C26      1.0000 0.61880  0.31370  0.34850  Biso   1.000  C
  C27      1.0000 0.03240  0.42790  0.86290  Biso   1.000  C
  C28      1.0000 0.01810  0.37290  0.87600  Biso   1.000  C
  C29      1.0000 0.96940  0.30770  0.82390  Biso   1.000  C
  C30      1.0000 0.93290  0.29470  0.75500  Biso   1.000  C
  C31      1.0000 0.95070  0.35540  0.74690  Biso   1.000  C
  C32      1.0000 0.90290  0.40090  0.61280  Biso   1.000  C
  C33      1.0000 0.85640  0.33720  0.55100  Biso   1.000  C
  C34      1.0000 0.83730  0.27620  0.55410  Biso   1.000  C
  C35      1.0000 0.86740  0.28149  0.61989  Biso   1.000  C
  C36      1.0000 0.91597  0.34711  0.67908  Biso   1.000  C
  C37      1.0000 0.80760  0.12200  0.61800  Biso   1.000  C
  C38      1.0000 0.85100  0.22230  0.62970  Biso   1.000  C
  C39      1.0000 0.88120  0.22970  0.69490  Biso   1.000  C
  C40      1.0000 0.06500  0.16950  0.63710  Biso   1.000  C
  C41      1.0000 0.99690  0.14210  0.62400  Biso   1.000  C
  C42      1.0000 0.98380  0.14550  0.67610  Biso   1.000  C
  C43      1.0000 0.03970  0.17790  0.74500  Biso   1.000  C
  C44      1.0000 0.10850  0.20380  0.75310  Biso   1.000  C
  C45      1.0000 0.28810  0.29010  0.88720  Biso   1.000  C
  C46      1.0000 0.28620  0.30540  0.94900  Biso   1.000  C
  C47      1.0000 0.22210  0.28320  0.94590  Biso   1.000  C
  C48      1.0000 0.16160  0.24751  0.88011  Biso   1.000  C
  C49      1.0000 0.16803  0.23689  0.82092  Biso   1.000  C
  C50      1.0000 0.00400  0.18960  0.88200  Biso   1.000  C
  C51      1.0000 0.09260  0.22130  0.87030  Biso   1.000  C
  C52      1.0000 0.03480  0.18630  0.80510  Biso   1.000  C
  C53      1.0000 0.36290  0.03240  0.92790  Biso   1.000  C
  C54      1.0000 0.37600  0.01810  0.87290  Biso   1.000  C
  C55      1.0000 0.32390  0.96940  0.80770  Biso   1.000  C
  C56      1.0000 0.25500  0.93290  0.79470  Biso   1.000  C
  C57      1.0000 0.24690  0.95070  0.85540  Biso   1.000  C
  C58      1.0000 0.11280  0.90290  0.90090  Biso   1.000  C
  C59      1.0000 0.05100  0.85640  0.83720  Biso   1.000  C
  C60      1.0000 0.05410  0.83730  0.77620  Biso   1.000  C
  C61      1.0000 0.11989  0.86740  0.78149  Biso   1.000  C
  C62      1.0000 0.17908  0.91597  0.84711  Biso   1.000  C
  C63      1.0000 0.11800  0.80760  0.62200  Biso   1.000  C
  C64      1.0000 0.12970  0.85100  0.72230  Biso   1.000  C
  C65      1.0000 0.19490  0.88120  0.72970  Biso   1.000  C
  C66      1.0000 0.13710  0.06500  0.66950  Biso   1.000  C
  C67      1.0000 0.12400  0.99690  0.64210  Biso   1.000  C
  C68      1.0000 0.17610  0.98380  0.64550  Biso   1.000  C
  C69      1.0000 0.24500  0.03970  0.67790  Biso   1.000  C
  C70      1.0000 0.25310  0.10850  0.70380  Biso   1.000  C
  C71      1.0000 0.38720  0.28810  0.79010  Biso   1.000  C
  C72      1.0000 0.44900  0.28620  0.80540  Biso   1.000  C
  C73      1.0000 0.44590  0.22210  0.78320  Biso   1.000  C
  C74      1.0000 0.38011  0.16160  0.74751  Biso   1.000  C
  C75      1.0000 0.32092  0.16803  0.73689  Biso   1.000  C
  C76      1.0000 0.38200  0.00400  0.68960  Biso   1.000  C
  C77      1.0000 0.37030  0.09260  0.72130  Biso   1.000  C
  C78      1.0000 0.30510  0.03480  0.68630  Biso   1.000  C
  C79      1.0000 0.60450  0.43500  0.57210  Biso   1.000  C
  C80      1.0000 0.64520  0.50310  0.62710  Biso   1.000  C
  C81      1.0000 0.66170  0.51620  0.69230  Biso   1.000  C
  C82      1.0000 0.63820  0.46030  0.70530  Biso   1.000  C
  C83      1.0000 0.59530  0.39150  0.64460  Biso   1.000  C
  C84      1.0000 0.50200  0.21190  0.59910  Biso   1.000  C
  C85      1.0000 0.51920  0.21380  0.66280  Biso   1.000  C
  C86      1.0000 0.56110  0.27790  0.72380  Biso   1.000  C
  C87      1.0000 0.58591  0.33840  0.71851  Biso   1.000  C
  C88      1.0000 0.56886  0.33197  0.65289  Biso   1.000  C
  C89      1.0000 0.68560  0.49600  0.87800  Biso   1.000  C
  C90      1.0000 0.62870  0.40740  0.77770  Biso   1.000  C
  C91      1.0000 0.65150  0.46520  0.77030  Biso   1.000  C
  C92      1.0000 0.89550  0.46760  0.83050  Biso   1.000  C
  C93      1.0000 0.85480  0.48190  0.85790  Biso   1.000  C
  C94      1.0000 0.83830  0.53060  0.85450  Biso   1.000  C
  C95      1.0000 0.86180  0.56710  0.82210  Biso   1.000  C
  C96      1.0000 0.90470  0.54930  0.79620  Biso   1.000  C
  C97      1.0000 0.99800  0.59710  0.70990  Biso   1.000  C
  C98      1.0000 0.98080  0.64360  0.69460  Biso   1.000  C
  C99      1.0000 0.93890  0.66270  0.71680  Biso   1.000  C
  C100     1.0000 0.91409  0.63260  0.75249  Biso   1.000  C
  C101     1.0000 0.93114  0.58403  0.76311  Biso   1.000  C
  C102     1.0000 0.81440  0.69240  0.81040  Biso   1.000  C
  C103     1.0000 0.87130  0.64900  0.77870  Biso   1.000  C
  C104     1.0000 0.84850  0.61880  0.81370  Biso   1.000  C
  C105     1.0000 0.33050  0.89550  0.96760  Biso   1.000  C
  C106     1.0000 0.35790  0.85480  0.98190  Biso   1.000  C
  C107     1.0000 0.35450  0.83830  0.03060  Biso   1.000  C
  C108     1.0000 0.32210  0.86180  0.06710  Biso   1.000  C
  C109     1.0000 0.29620  0.90470  0.04930  Biso   1.000  C
  C110     1.0000 0.20990  0.99800  0.09710  Biso   1.000  C
  C111     1.0000 0.19460  0.98080  0.14360  Biso   1.000  C
  C112     1.0000 0.21680  0.93890  0.16270  Biso   1.000  C
  C113     1.0000 0.25249  0.91409  0.13260  Biso   1.000  C
  C114     1.0000 0.26311  0.93114  0.08403  Biso   1.000  C
  C115     1.0000 0.31040  0.81440  0.19240  Biso   1.000  C
  C116     1.0000 0.27870  0.87130  0.14900  Biso   1.000  C
  C117     1.0000 0.31370  0.84850  0.11880  Biso   1.000  C
  C118     1.0000 0.07210  0.60450  0.93500  Biso   1.000  C
  C119     1.0000 0.12710  0.64520  0.00310  Biso   1.000  C
  C120     1.0000 0.19230  0.66170  0.01620  Biso   1.000  C
  C121     1.0000 0.20530  0.63820  0.96030  Biso   1.000  C
  C122     1.0000 0.14460  0.59530  0.89150  Biso   1.000  C
  C123     1.0000 0.09910  0.50200  0.71190  Biso   1.000  C
  C124     1.0000 0.16280  0.51920  0.71380  Biso   1.000  C
  C125     1.0000 0.22380  0.56110  0.77790  Biso   1.000  C
  C126     1.0000 0.21851  0.58591  0.83840  Biso   1.000  C
  C127     1.0000 0.15289  0.56886  0.83197  Biso   1.000  C
  C128     1.0000 0.37800  0.68560  0.99600  Biso   1.000  C
  C129     1.0000 0.27770  0.62870  0.90740  Biso   1.000  C
  C130     1.0000 0.27030  0.65150  0.96520  Biso   1.000  C
  C131     1.0000 0.16950  0.13710  0.56500  Biso   1.000  C
  C132     1.0000 0.14210  0.12400  0.49690  Biso   1.000  C
  C133     1.0000 0.14550  0.17610  0.48380  Biso   1.000  C
  C134     1.0000 0.17790  0.24500  0.53970  Biso   1.000  C
  C135     1.0000 0.20380  0.25310  0.60850  Biso   1.000  C
  C136     1.0000 0.29010  0.38720  0.78810  Biso   1.000  C
  C137     1.0000 0.30540  0.44900  0.78620  Biso   1.000  C
  C138     1.0000 0.28320  0.44590  0.72210  Biso   1.000  C
  C139     1.0000 0.24751  0.38011  0.66160  Biso   1.000  C
  C140     1.0000 0.23689  0.32092  0.66803  Biso   1.000  C
  C141     1.0000 0.18960  0.38200  0.50400  Biso   1.000  C
  C142     1.0000 0.22130  0.37030  0.59260  Biso   1.000  C
  C143     1.0000 0.18630  0.30510  0.53480  Biso   1.000  C
  C144     1.0000 0.42790  0.36290  0.53240  Biso   1.000  C
  C145     1.0000 0.37290  0.37600  0.51810  Biso   1.000  C
  C146     1.0000 0.30770  0.32390  0.46940  Biso   1.000  C
  C147     1.0000 0.29470  0.25500  0.43290  Biso   1.000  C
  C148     1.0000 0.35540  0.24690  0.45070  Biso   1.000  C
  C149     1.0000 0.40090  0.11280  0.40290  Biso   1.000  C
  C150     1.0000 0.33720  0.05100  0.35640  Biso   1.000  C
  C151     1.0000 0.27620  0.05410  0.33730  Biso   1.000  C
  C152     1.0000 0.28149  0.11989  0.36740  Biso   1.000  C
  C153     1.0000 0.34711  0.17908  0.41597  Biso   1.000  C
  C154     1.0000 0.12200  0.11800  0.30760  Biso   1.000  C
  C155     1.0000 0.22230  0.12970  0.35100  Biso   1.000  C
  C156     1.0000 0.22970  0.19490  0.38120  Biso   1.000  C
  C157     1.0000 0.83050  0.96760  0.89550  Biso   1.000  C
  C158     1.0000 0.85790  0.98190  0.85480  Biso   1.000  C
  C159     1.0000 0.85450  0.03060  0.83830  Biso   1.000  C
  C160     1.0000 0.82210  0.06710  0.86180  Biso   1.000  C
  C161     1.0000 0.79620  0.04930  0.90470  Biso   1.000  C
  C162     1.0000 0.70990  0.09710  0.99800  Biso   1.000  C
  C163     1.0000 0.69460  0.14360  0.98080  Biso   1.000  C
  C164     1.0000 0.71680  0.16270  0.93890  Biso   1.000  C
  C165     1.0000 0.75249  0.13260  0.91409  Biso   1.000  C
  C166     1.0000 0.76311  0.08403  0.93114  Biso   1.000  C
  C167     1.0000 0.81040  0.19240  0.81440  Biso   1.000  C
  C168     1.0000 0.77870  0.14900  0.87130  Biso   1.000  C
  C169     1.0000 0.81370  0.11880  0.84850  Biso   1.000  C
  C170     1.0000 0.57210  0.93500  0.60450  Biso   1.000  C
  C171     1.0000 0.62710  0.00310  0.64520  Biso   1.000  C
  C172     1.0000 0.69230  0.01620  0.66170  Biso   1.000  C
  C173     1.0000 0.70530  0.96030  0.63820  Biso   1.000  C
  C174     1.0000 0.64460  0.89150  0.59530  Biso   1.000  C
  C175     1.0000 0.59910  0.71190  0.50200  Biso   1.000  C
  C176     1.0000 0.66280  0.71380  0.51920  Biso   1.000  C
  C177     1.0000 0.72380  0.77790  0.56110  Biso   1.000  C
  C178     1.0000 0.71851  0.83840  0.58591  Biso   1.000  C
  C179     1.0000 0.65289  0.83197  0.56886  Biso   1.000  C
  C180     1.0000 0.87800  0.99600  0.68560  Biso   1.000  C
  C181     1.0000 0.77770  0.90740  0.62870  Biso   1.000  C
  C182     1.0000 0.77030  0.96520  0.65150  Biso   1.000  C
  C183     1.0000 0.66950  0.56500  0.13710  Biso   1.000  C
  C184     1.0000 0.64210  0.49690  0.12400  Biso   1.000  C
  C185     1.0000 0.64550  0.48380  0.17610  Biso   1.000  C
  C186     1.0000 0.67790  0.53970  0.24500  Biso   1.000  C
  C187     1.0000 0.70380  0.60850  0.25310  Biso   1.000  C
  C188     1.0000 0.79010  0.78810  0.38720  Biso   1.000  C
  C189     1.0000 0.80540  0.78620  0.44900  Biso   1.000  C
  C190     1.0000 0.78320  0.72210  0.44590  Biso   1.000  C
  C191     1.0000 0.74751  0.66160  0.38011  Biso   1.000  C
  C192     1.0000 0.73689  0.66803  0.32092  Biso   1.000  C
  C193     1.0000 0.68960  0.50400  0.38200  Biso   1.000  C
  C194     1.0000 0.72130  0.59260  0.37030  Biso   1.000  C
  C195     1.0000 0.68630  0.53480  0.30510  Biso   1.000  C
  C196     1.0000 0.92790  0.53240  0.36290  Biso   1.000  C
  C197     1.0000 0.87290  0.51810  0.37600  Biso   1.000  C
  C198     1.0000 0.80770  0.46940  0.32390  Biso   1.000  C
  C199     1.0000 0.79470  0.43290  0.25500  Biso   1.000  C
  C200     1.0000 0.85540  0.45070  0.24690  Biso   1.000  C
  C201     1.0000 0.90090  0.40290  0.11280  Biso   1.000  C
  C202     1.0000 0.83720  0.35640  0.05100  Biso   1.000  C
  C203     1.0000 0.77620  0.33730  0.05410  Biso   1.000  C
  C204     1.0000 0.78149  0.36740  0.11989  Biso   1.000  C
  C205     1.0000 0.84711  0.41597  0.17908  Biso   1.000  C
  C206     1.0000 0.62200  0.30760  0.11800  Biso   1.000  C
  C207     1.0000 0.72230  0.35100  0.12970  Biso   1.000  C
  C208     1.0000 0.72970  0.38120  0.19490  Biso   1.000  C
  C209     1.0000 0.93500  0.10450  0.07210  Biso   1.000  C
  C210     1.0000 0.00310  0.14520  0.12710  Biso   1.000  C
  C211     1.0000 0.01620  0.16170  0.19230  Biso   1.000  C
  C212     1.0000 0.96030  0.13820  0.20530  Biso   1.000  C
  C213     1.0000 0.89150  0.09530  0.14460  Biso   1.000  C
  C214     1.0000 0.71190  0.00200  0.09910  Biso   1.000  C
  C215     1.0000 0.71380  0.01920  0.16280  Biso   1.000  C
  C216     1.0000 0.77790  0.06110  0.22380  Biso   1.000  C
  C217     1.0000 0.83840  0.08591  0.21851  Biso   1.000  C
  C218     1.0000 0.83197  0.06886  0.15289  Biso   1.000  C
  C219     1.0000 0.99600  0.18560  0.37800  Biso   1.000  C
  C220     1.0000 0.90740  0.12870  0.27770  Biso   1.000  C
  C221     1.0000 0.96520  0.15150  0.27030  Biso   1.000  C
  C222     1.0000 0.96760  0.39550  0.33050  Biso   1.000  C
  C223     1.0000 0.98190  0.35480  0.35790  Biso   1.000  C
  C224     1.0000 0.03060  0.33830  0.35450  Biso   1.000  C
  C225     1.0000 0.06710  0.36180  0.32210  Biso   1.000  C
  C226     1.0000 0.04930  0.40470  0.29620  Biso   1.000  C
  C227     1.0000 0.09710  0.49800  0.20990  Biso   1.000  C
  C228     1.0000 0.14360  0.48080  0.19460  Biso   1.000  C
  C229     1.0000 0.16270  0.43890  0.21680  Biso   1.000  C
  C230     1.0000 0.13260  0.41409  0.25249  Biso   1.000  C
  C231     1.0000 0.08403  0.43114  0.26311  Biso   1.000  C
  C232     1.0000 0.19240  0.31440  0.31040  Biso   1.000  C
  C233     1.0000 0.14900  0.37130  0.27870  Biso   1.000  C
  C234     1.0000 0.11880  0.34850  0.31370  Biso   1.000  C
  C235     1.0000 0.53240  0.86290  0.42790  Biso   1.000  C
  C236     1.0000 0.51810  0.87600  0.37290  Biso   1.000  C
  C237     1.0000 0.46940  0.82390  0.30770  Biso   1.000  C
  C238     1.0000 0.43290  0.75500  0.29470  Biso   1.000  C
  C239     1.0000 0.45070  0.74690  0.35540  Biso   1.000  C
  C240     1.0000 0.40290  0.61280  0.40090  Biso   1.000  C
  C241     1.0000 0.35640  0.55100  0.33720  Biso   1.000  C
  C242     1.0000 0.33730  0.55410  0.27620  Biso   1.000  C
  C243     1.0000 0.36740  0.61989  0.28149  Biso   1.000  C
  C244     1.0000 0.41597  0.67908  0.34711  Biso   1.000  C
  C245     1.0000 0.30760  0.61800  0.12200  Biso   1.000  C
  C246     1.0000 0.35100  0.62970  0.22230  Biso   1.000  C
  C247     1.0000 0.38120  0.69490  0.22970  Biso   1.000  C
  C248     1.0000 0.56500  0.63710  0.16950  Biso   1.000  C
  C249     1.0000 0.49690  0.62400  0.14210  Biso   1.000  C
  C250     1.0000 0.48380  0.67610  0.14550  Biso   1.000  C
  C251     1.0000 0.53970  0.74500  0.17790  Biso   1.000  C
  C252     1.0000 0.60850  0.75310  0.20380  Biso   1.000  C
  C253     1.0000 0.78810  0.88720  0.29010  Biso   1.000  C
  C254     1.0000 0.78620  0.94900  0.30540  Biso   1.000  C
  C255     1.0000 0.72210  0.94590  0.28320  Biso   1.000  C
  C256     1.0000 0.66160  0.88011  0.24751  Biso   1.000  C
  C257     1.0000 0.66803  0.82092  0.23689  Biso   1.000  C
  C258     1.0000 0.50400  0.88200  0.18960  Biso   1.000  C
  C259     1.0000 0.59260  0.87030  0.22130  Biso   1.000  C
  C260     1.0000 0.53480  0.80510  0.18630  Biso   1.000  C
  C261     1.0000 0.86290  0.92790  0.03240  Biso   1.000  C
  C262     1.0000 0.87600  0.87290  0.01810  Biso   1.000  C
  C263     1.0000 0.82390  0.80770  0.96940  Biso   1.000  C
  C264     1.0000 0.75500  0.79470  0.93290  Biso   1.000  C
  C265     1.0000 0.74690  0.85540  0.95070  Biso   1.000  C
  C266     1.0000 0.61280  0.90090  0.90290  Biso   1.000  C
  C267     1.0000 0.55100  0.83720  0.85640  Biso   1.000  C
  C268     1.0000 0.55410  0.77620  0.83730  Biso   1.000  C
  C269     1.0000 0.61989  0.78149  0.86740  Biso   1.000  C
  C270     1.0000 0.67908  0.84711  0.91597  Biso   1.000  C
  C271     1.0000 0.61800  0.62200  0.80760  Biso   1.000  C
  C272     1.0000 0.62970  0.72230  0.85100  Biso   1.000  C
  C273     1.0000 0.69490  0.72970  0.88120  Biso   1.000  C
  C274     1.0000 0.63710  0.66950  0.06500  Biso   1.000  C
  C275     1.0000 0.62400  0.64210  0.99690  Biso   1.000  C
  C276     1.0000 0.67610  0.64550  0.98380  Biso   1.000  C
  C277     1.0000 0.74500  0.67790  0.03970  Biso   1.000  C
  C278     1.0000 0.75310  0.70380  0.10850  Biso   1.000  C
  C279     1.0000 0.88720  0.79010  0.28810  Biso   1.000  C
  C280     1.0000 0.94900  0.80540  0.28620  Biso   1.000  C
  C281     1.0000 0.94590  0.78320  0.22210  Biso   1.000  C
  C282     1.0000 0.88011  0.74751  0.16160  Biso   1.000  C
  C283     1.0000 0.82092  0.73689  0.16803  Biso   1.000  C
  C284     1.0000 0.88200  0.68960  0.00400  Biso   1.000  C
  C285     1.0000 0.87030  0.72130  0.09260  Biso   1.000  C
  C286     1.0000 0.80510  0.68630  0.03480  Biso   1.000  C
  C287     1.0000 0.10450  0.57210  0.43500  Biso   1.000  C
  C288     1.0000 0.14520  0.62710  0.50310  Biso   1.000  C
  C289     1.0000 0.16170  0.69230  0.51620  Biso   1.000  C
  C290     1.0000 0.13820  0.70530  0.46030  Biso   1.000  C
  C291     1.0000 0.09530  0.64460  0.39150  Biso   1.000  C
  C292     1.0000 0.00200  0.59910  0.21190  Biso   1.000  C
  C293     1.0000 0.01920  0.66280  0.21380  Biso   1.000  C
  C294     1.0000 0.06110  0.72380  0.27790  Biso   1.000  C
  C295     1.0000 0.08591  0.71851  0.33840  Biso   1.000  C
  C296     1.0000 0.06886  0.65289  0.33197  Biso   1.000  C
  C297     1.0000 0.18560  0.87800  0.49600  Biso   1.000  C
  C298     1.0000 0.12870  0.77770  0.40740  Biso   1.000  C
  C299     1.0000 0.15150  0.77030  0.46520  Biso   1.000  C
  C300     1.0000 0.39550  0.83050  0.46760  Biso   1.000  C
  C301     1.0000 0.35480  0.85790  0.48190  Biso   1.000  C
  C302     1.0000 0.33830  0.85450  0.53060  Biso   1.000  C
  C303     1.0000 0.36180  0.82210  0.56710  Biso   1.000  C
  C304     1.0000 0.40470  0.79620  0.54930  Biso   1.000  C
  C305     1.0000 0.49800  0.70990  0.59710  Biso   1.000  C
  C306     1.0000 0.48080  0.69460  0.64360  Biso   1.000  C
  C307     1.0000 0.43890  0.71680  0.66270  Biso   1.000  C
  C308     1.0000 0.41409  0.75249  0.63260  Biso   1.000  C
  C309     1.0000 0.43114  0.76311  0.58403  Biso   1.000  C
  C310     1.0000 0.31440  0.81040  0.69240  Biso   1.000  C
  C311     1.0000 0.37130  0.77870  0.64900  Biso   1.000  C
  C312     1.0000 0.34850  0.81370  0.61880  Biso   1.000  C
  N1       1.0000 0.38082  0.08041  0.07925  Biso   1.000  N
  N2       1.0000 0.26884  0.09335  0.02657  Biso   1.000  N
  N3       1.0000 0.52429  0.33649  0.19020  Biso   1.000  N
  N4       1.0000 0.42700  0.34640  0.14980  Biso   1.000  N
  N5       1.0000 0.50116  0.30157  0.42075  Biso   1.000  N
  N6       1.0000 0.56678  0.24227  0.47343  Biso   1.000  N
  N7       1.0000 0.64629  0.33409  0.30980  Biso   1.000  N
  N8       1.0000 0.69660  0.27720  0.35020  Biso   1.000  N
  N9       1.0000 0.99884  0.41959  0.80041  Biso   1.000  N
  N10      1.0000 0.93322  0.40665  0.67549  Biso   1.000  N
  N11      1.0000 0.85371  0.16351  0.68780  Biso   1.000  N
  N12      1.0000 0.80340  0.15360  0.58060  Biso   1.000  N
  N13      1.0000 0.11918  0.19843  0.69959  Biso   1.000  N
  N14      1.0000 0.23116  0.25773  0.82451  Biso   1.000  N
  N15      1.0000 0.97571  0.16591  0.81220  Biso   1.000  N
  N16      1.0000 0.07300  0.22280  0.91940  Biso   1.000  N
  N17      1.0000 0.30041  0.99884  0.91959  Biso   1.000  N
  N18      1.0000 0.17549  0.93322  0.90665  Biso   1.000  N
  N19      1.0000 0.18780  0.85371  0.66351  Biso   1.000  N
  N20      1.0000 0.08060  0.80340  0.65360  Biso   1.000  N
  N21      1.0000 0.19959  0.11918  0.69843  Biso   1.000  N
  N22      1.0000 0.32451  0.23116  0.75773  Biso   1.000  N
  N23      1.0000 0.31220  0.97571  0.66591  Biso   1.000  N
  N24      1.0000 0.41940  0.07300  0.72280  Biso   1.000  N
  N25      1.0000 0.57925  0.38082  0.58041  Biso   1.000  N
  N26      1.0000 0.52657  0.26884  0.59335  Biso   1.000  N
  N27      1.0000 0.69020  0.52429  0.83649  Biso   1.000  N
  N28      1.0000 0.64980  0.42700  0.84640  Biso   1.000  N
  N29      1.0000 0.92075  0.50116  0.80157  Biso   1.000  N
  N30      1.0000 0.97343  0.56678  0.74227  Biso   1.000  N
  N31      1.0000 0.80980  0.64629  0.83409  Biso   1.000  N
  N32      1.0000 0.85020  0.69660  0.77720  Biso   1.000  N
  N33      1.0000 0.30157  0.92075  0.00116  Biso   1.000  N
  N34      1.0000 0.24227  0.97343  0.06678  Biso   1.000  N
  N35      1.0000 0.33409  0.80980  0.14629  Biso   1.000  N
  N36      1.0000 0.27720  0.85020  0.19660  Biso   1.000  N
  N37      1.0000 0.08041  0.57925  0.88082  Biso   1.000  N
  N38      1.0000 0.09335  0.52657  0.76884  Biso   1.000  N
  N39      1.0000 0.33649  0.69020  0.02429  Biso   1.000  N
  N40      1.0000 0.34640  0.64980  0.92700  Biso   1.000  N
  N41      1.0000 0.19843  0.19959  0.61918  Biso   1.000  N
  N42      1.0000 0.25773  0.32451  0.73116  Biso   1.000  N
  N43      1.0000 0.16591  0.31220  0.47571  Biso   1.000  N
  N44      1.0000 0.22280  0.41940  0.57300  Biso   1.000  N
  N45      1.0000 0.41959  0.30041  0.49884  Biso   1.000  N
  N46      1.0000 0.40665  0.17549  0.43322  Biso   1.000  N
  N47      1.0000 0.16351  0.18780  0.35371  Biso   1.000  N
  N48      1.0000 0.15360  0.08060  0.30340  Biso   1.000  N
  N49      1.0000 0.80157  0.00116  0.92075  Biso   1.000  N
  N50      1.0000 0.74227  0.06678  0.97343  Biso   1.000  N
  N51      1.0000 0.83409  0.14629  0.80980  Biso   1.000  N
  N52      1.0000 0.77720  0.19660  0.85020  Biso   1.000  N
  N53      1.0000 0.58041  0.88082  0.57925  Biso   1.000  N
  N54      1.0000 0.59335  0.76884  0.52657  Biso   1.000  N
  N55      1.0000 0.83649  0.02429  0.69020  Biso   1.000  N
  N56      1.0000 0.84640  0.92700  0.64980  Biso   1.000  N
  N57      1.0000 0.69843  0.61918  0.19959  Biso   1.000  N
  N58      1.0000 0.75773  0.73116  0.32451  Biso   1.000  N
  N59      1.0000 0.66591  0.47571  0.31220  Biso   1.000  N
  N60      1.0000 0.72280  0.57300  0.41940  Biso   1.000  N
  N61      1.0000 0.91959  0.49884  0.30041  Biso   1.000  N
  N62      1.0000 0.90665  0.43322  0.17549  Biso   1.000  N
  N63      1.0000 0.66351  0.35371  0.18780  Biso   1.000  N
  N64      1.0000 0.65360  0.30340  0.08060  Biso   1.000  N
  N65      1.0000 0.88082  0.07925  0.08041  Biso   1.000  N
  N66      1.0000 0.76884  0.02657  0.09335  Biso   1.000  N
  N67      1.0000 0.02429  0.19020  0.33649  Biso   1.000  N
  N68      1.0000 0.92700  0.14980  0.34640  Biso   1.000  N
  N69      1.0000 0.00116  0.42075  0.30157  Biso   1.000  N
  N70      1.0000 0.06678  0.47343  0.24227  Biso   1.000  N
  N71      1.0000 0.14629  0.30980  0.33409  Biso   1.000  N
  N72      1.0000 0.19660  0.35020  0.27720  Biso   1.000  N
  N73      1.0000 0.49884  0.80041  0.41959  Biso   1.000  N
  N74      1.0000 0.43322  0.67549  0.40665  Biso   1.000  N
  N75      1.0000 0.35371  0.68780  0.16351  Biso   1.000  N
  N76      1.0000 0.30340  0.58060  0.15360  Biso   1.000  N
  N77      1.0000 0.61918  0.69959  0.19843  Biso   1.000  N
  N78      1.0000 0.73116  0.82451  0.25773  Biso   1.000  N
  N79      1.0000 0.47571  0.81220  0.16591  Biso   1.000  N
  N80      1.0000 0.57300  0.91940  0.22280  Biso   1.000  N
  N81      1.0000 0.80041  0.91959  0.99884  Biso   1.000  N
  N82      1.0000 0.67549  0.90665  0.93322  Biso   1.000  N
  N83      1.0000 0.68780  0.66351  0.85371  Biso   1.000  N
  N84      1.0000 0.58060  0.65360  0.80340  Biso   1.000  N
  N85      1.0000 0.69959  0.69843  0.11918  Biso   1.000  N
  N86      1.0000 0.82451  0.75773  0.23116  Biso   1.000  N
  N87      1.0000 0.81220  0.66591  0.97571  Biso   1.000  N
  N88      1.0000 0.91940  0.72280  0.07300  Biso   1.000  N
  N89      1.0000 0.07925  0.58041  0.38082  Biso   1.000  N
  N90      1.0000 0.02657  0.59335  0.26884  Biso   1.000  N
  N91      1.0000 0.19020  0.83649  0.52429  Biso   1.000  N
  N92      1.0000 0.14980  0.84640  0.42700  Biso   1.000  N
  N93      1.0000 0.42075  0.80157  0.50116  Biso   1.000  N
  N94      1.0000 0.47343  0.74227  0.56678  Biso   1.000  N
  N95      1.0000 0.30980  0.83409  0.64629  Biso   1.000  N
  N96      1.0000 0.35020  0.77720  0.69660  Biso   1.000  N
