data_image0
_cell_length_a       9.109
_cell_length_b       11.021
_cell_length_c       11.987
_cell_angle_alpha    90
_cell_angle_beta     90
_cell_angle_gamma    90

_symmetry_space_group_name_H-M    "P 1"
_symmetry_int_tables_number       1

loop_
  _symmetry_equiv_pos_as_xyz
  'x, y, z'

loop_
  _atom_site_label
  _atom_site_occupancy
  _atom_site_fract_x
  _atom_site_fract_y
  _atom_site_fract_z
  _atom_site_thermal_displace_type
  _atom_site_B_iso_or_equiv
  _atom_site_type_symbol
  P1       1.0000 0.54160  0.31350  0.40620  Biso   1.000  P
  O1       1.0000 0.54320  0.39610  0.50950  Biso   1.000  O
  O2       1.0000 0.53530  0.18160  0.43680  Biso   1.000  O
  O3       1.0000 0.40790  0.35270  0.33410  Biso   1.000  O
  O4       1.0000 0.31680  0.65560  0.65990  Biso   1.000  O
  P2       1.0000 0.54160  0.18650  0.09380  Biso   1.000  P
  O5       1.0000 0.54320  0.10390  0.99050  Biso   1.000  O
  O6       1.0000 0.53530  0.31840  0.06320  Biso   1.000  O
  O7       1.0000 0.40790  0.14730  0.16590  Biso   1.000  O
  O8       1.0000 0.31680  0.84440  0.84010  Biso   1.000  O
  P3       1.0000 0.95840  0.68650  0.90620  Biso   1.000  P
  O9       1.0000 0.95680  0.60390  0.00950  Biso   1.000  O
  O10      1.0000 0.96470  0.81840  0.93680  Biso   1.000  O
  O11      1.0000 0.09210  0.64730  0.83410  Biso   1.000  O
  O12      1.0000 0.18320  0.34440  0.15990  Biso   1.000  O
  P4       1.0000 0.95840  0.81350  0.59380  Biso   1.000  P
  O13      1.0000 0.95680  0.89610  0.49050  Biso   1.000  O
  O14      1.0000 0.96470  0.68160  0.56320  Biso   1.000  O
  O15      1.0000 0.09210  0.85270  0.66590  Biso   1.000  O
  O16      1.0000 0.18320  0.15560  0.34010  Biso   1.000  O
  P5       1.0000 0.45840  0.68650  0.59380  Biso   1.000  P
  O17      1.0000 0.45680  0.60390  0.49050  Biso   1.000  O
  O18      1.0000 0.46470  0.81840  0.56320  Biso   1.000  O
  O19      1.0000 0.59210  0.64730  0.66590  Biso   1.000  O
  O20      1.0000 0.68320  0.34440  0.34010  Biso   1.000  O
  P6       1.0000 0.45840  0.81350  0.90620  Biso   1.000  P
  O21      1.0000 0.45680  0.89610  0.00950  Biso   1.000  O
  O22      1.0000 0.46470  0.68160  0.93680  Biso   1.000  O
  O23      1.0000 0.59210  0.85270  0.83410  Biso   1.000  O
  O24      1.0000 0.68320  0.15560  0.15990  Biso   1.000  O
  P7       1.0000 0.04160  0.31350  0.09380  Biso   1.000  P
  O25      1.0000 0.04320  0.39610  0.99050  Biso   1.000  O
  O26      1.0000 0.03530  0.18160  0.06320  Biso   1.000  O
  O27      1.0000 0.90790  0.35270  0.16590  Biso   1.000  O
  O28      1.0000 0.81680  0.65560  0.84010  Biso   1.000  O
  P8       1.0000 0.04160  0.18650  0.40620  Biso   1.000  P
  O29      1.0000 0.04320  0.10390  0.50950  Biso   1.000  O
  O30      1.0000 0.03530  0.31840  0.43680  Biso   1.000  O
  O31      1.0000 0.90790  0.14730  0.33410  Biso   1.000  O
  O32      1.0000 0.81680  0.84440  0.65990  Biso   1.000  O
  Ga1      1.0000 0.70350  0.75000  0.75000  Biso   1.000  Ga
  Ga2      1.0000 0.79650  0.25000  0.25000  Biso   1.000  Ga
  Ga3      1.0000 0.29650  0.25000  0.25000  Biso   1.000  Ga
  Ga4      1.0000 0.20350  0.75000  0.75000  Biso   1.000  Ga
  H1       1.0000 0.50000  0.50000  0.50000  Biso   1.000  H
  H2       1.0000 0.50000  0.00000  0.00000  Biso   1.000  H
  H3       1.0000 0.00000  0.50000  0.00000  Biso   1.000  H
  H4       1.0000 0.00000  0.00000  0.50000  Biso   1.000  H
