data_image0
_cell_length_a       18.7318
_cell_length_b       18.7318
_cell_length_c       18.7318
_cell_angle_alpha    60
_cell_angle_beta     60
_cell_angle_gamma    60

_symmetry_space_group_name_H-M    P 1
_symmetry_int_tables_number       1

loop_
  _symmetry_equiv_pos_as_xyz
  'x, y, z'

loop_
  _atom_site_label
  _atom_site_occupancy
  _atom_site_fract_x
  _atom_site_fract_y
  _atom_site_fract_z
  _atom_site_thermal_displace_type
  _atom_site_B_iso_or_equiv
  _atom_site_type_symbol
  Ni1      1.0000 0.84004  0.05332  0.05332  Biso   1.000  Ni
  Ni2      1.0000 0.05332  0.84004  0.05332  Biso   1.000  Ni
  Ni3      1.0000 0.05332  0.05332  0.84004  Biso   1.000  Ni
  Ni4      1.0000 0.05332  0.05332  0.05332  Biso   1.000  Ni
  Ni5      1.0000 0.94668  0.15996  0.94668  Biso   1.000  Ni
  Ni6      1.0000 0.15996  0.94668  0.94668  Biso   1.000  Ni
  Ni7      1.0000 0.94668  0.94668  0.15996  Biso   1.000  Ni
  Ni8      1.0000 0.94668  0.94668  0.94668  Biso   1.000  Ni
  H1       1.0000 0.62940  0.07564  0.07564  Biso   1.000  H
  H2       1.0000 0.07564  0.62940  0.21932  Biso   1.000  H
  H3       1.0000 0.07564  0.21932  0.62940  Biso   1.000  H
  H4       1.0000 0.21932  0.07564  0.07564  Biso   1.000  H
  H5       1.0000 0.62940  0.07564  0.21932  Biso   1.000  H
  H6       1.0000 0.07564  0.21932  0.07564  Biso   1.000  H
  H7       1.0000 0.07564  0.62940  0.07564  Biso   1.000  H
  H8       1.0000 0.21932  0.07564  0.62940  Biso   1.000  H
  H9       1.0000 0.62940  0.21932  0.07564  Biso   1.000  H
  H10      1.0000 0.07564  0.07564  0.62940  Biso   1.000  H
  H11      1.0000 0.07564  0.07564  0.21932  Biso   1.000  H
  H12      1.0000 0.21932  0.62940  0.07564  Biso   1.000  H
  H13      1.0000 0.92436  0.37060  0.92436  Biso   1.000  H
  H14      1.0000 0.37060  0.92436  0.78068  Biso   1.000  H
  H15      1.0000 0.78068  0.92436  0.37060  Biso   1.000  H
  H16      1.0000 0.92436  0.78068  0.92436  Biso   1.000  H
  H17      1.0000 0.92436  0.37060  0.78068  Biso   1.000  H
  H18      1.0000 0.78068  0.92436  0.92436  Biso   1.000  H
  H19      1.0000 0.37060  0.92436  0.92436  Biso   1.000  H
  H20      1.0000 0.92436  0.78068  0.37060  Biso   1.000  H
  H21      1.0000 0.78068  0.37060  0.92436  Biso   1.000  H
  H22      1.0000 0.92436  0.92436  0.37060  Biso   1.000  H
  H23      1.0000 0.92436  0.92436  0.78068  Biso   1.000  H
  H24      1.0000 0.37060  0.78068  0.92436  Biso   1.000  H
  C1       1.0000 0.53710  0.00000  0.00000  Biso   1.000  C
  C2       1.0000 0.60384  0.00000  0.00000  Biso   1.000  C
  C3       1.0000 0.67804  0.00000  0.00000  Biso   1.000  C
  C4       1.0000 0.00000  0.53710  0.46290  Biso   1.000  C
  C5       1.0000 1.00000  0.60384  0.39616  Biso   1.000  C
  C6       1.0000 1.00000  0.67804  0.32196  Biso   1.000  C
  C7       1.0000 0.00000  0.46290  0.53710  Biso   1.000  C
  C8       1.0000 0.00000  0.39616  0.60384  Biso   1.000  C
  C9       1.0000 0.00000  0.32196  0.67804  Biso   1.000  C
  C10      1.0000 0.46290  0.00000  0.00000  Biso   1.000  C
  C11      1.0000 0.39616  0.00000  0.00000  Biso   1.000  C
  C12      1.0000 0.32196  0.00000  0.00000  Biso   1.000  C
  C13      1.0000 0.53710  0.00000  0.46290  Biso   1.000  C
  C14      1.0000 0.60384  0.00000  0.39616  Biso   1.000  C
  C15      1.0000 0.67804  0.00000  0.32196  Biso   1.000  C
  C16      1.0000 0.00000  0.46290  0.00000  Biso   1.000  C
  C17      1.0000 0.00000  0.39616  0.00000  Biso   1.000  C
  C18      1.0000 0.00000  0.32196  0.00000  Biso   1.000  C
  C19      1.0000 1.00000  0.53710  0.00000  Biso   1.000  C
  C20      1.0000 1.00000  0.60384  0.00000  Biso   1.000  C
  C21      1.0000 0.00000  0.67804  0.00000  Biso   1.000  C
  C22      1.0000 0.46290  0.00000  0.53710  Biso   1.000  C
  C23      1.0000 0.39616  0.00000  0.60384  Biso   1.000  C
  C24      1.0000 0.32196  0.00000  0.67804  Biso   1.000  C
  C25      1.0000 0.53710  0.46290  0.00000  Biso   1.000  C
  C26      1.0000 0.60384  0.39616  0.00000  Biso   1.000  C
  C27      1.0000 0.67804  0.32196  0.00000  Biso   1.000  C
  C28      1.0000 0.00000  1.00000  0.53710  Biso   1.000  C
  C29      1.0000 0.00000  0.00000  0.60384  Biso   1.000  C
  C30      1.0000 0.00000  1.00000  0.67804  Biso   1.000  C
  C31      1.0000 1.00000  1.00000  0.46290  Biso   1.000  C
  C32      1.0000 1.00000  0.00000  0.39616  Biso   1.000  C
  C33      1.0000 0.00000  1.00000  0.32196  Biso   1.000  C
  C34      1.0000 0.46290  0.53710  0.00000  Biso   1.000  C
  C35      1.0000 0.39616  0.60384  0.00000  Biso   1.000  C
  C36      1.0000 0.32196  0.67804  0.00000  Biso   1.000  C
  C37      1.0000 0.67919  0.04153  0.04153  Biso   1.000  C
  C38      1.0000 0.04153  0.67919  0.23775  Biso   1.000  C
  C39      1.0000 0.04153  0.23775  0.67919  Biso   1.000  C
  C40      1.0000 0.23775  0.04153  0.04153  Biso   1.000  C
  C41      1.0000 0.67919  0.04153  0.23775  Biso   1.000  C
  C42      1.0000 0.04153  0.23775  0.04153  Biso   1.000  C
  C43      1.0000 0.04153  0.67919  0.04153  Biso   1.000  C
  C44      1.0000 0.23775  0.04153  0.67919  Biso   1.000  C
  C45      1.0000 0.67919  0.23775  0.04153  Biso   1.000  C
  C46      1.0000 0.04153  0.04153  0.67919  Biso   1.000  C
  C47      1.0000 0.04153  0.04153  0.23775  Biso   1.000  C
  C48      1.0000 0.23775  0.67919  0.04153  Biso   1.000  C
  C49      1.0000 0.95847  0.32081  0.95847  Biso   1.000  C
  C50      1.0000 0.32081  0.95847  0.76225  Biso   1.000  C
  C51      1.0000 0.76225  0.95847  0.32081  Biso   1.000  C
  C52      1.0000 0.95847  0.76225  0.95847  Biso   1.000  C
  C53      1.0000 0.95847  0.32081  0.76225  Biso   1.000  C
  C54      1.0000 0.76225  0.95847  0.95847  Biso   1.000  C
  C55      1.0000 0.32081  0.95847  0.95847  Biso   1.000  C
  C56      1.0000 0.95847  0.76225  0.32081  Biso   1.000  C
  C57      1.0000 0.76225  0.32081  0.95847  Biso   1.000  C
  C58      1.0000 0.95847  0.95847  0.32081  Biso   1.000  C
  C59      1.0000 0.95847  0.95847  0.76225  Biso   1.000  C
  C60      1.0000 0.32081  0.76225  0.95847  Biso   1.000  C
  N1       1.0000 0.76409  0.02567  0.02567  Biso   1.000  N
  N2       1.0000 0.02567  0.76409  0.18457  Biso   1.000  N
  N3       1.0000 0.02567  0.18457  0.76409  Biso   1.000  N
  N4       1.0000 0.18457  0.02567  0.02567  Biso   1.000  N
  N5       1.0000 0.76409  0.02567  0.18457  Biso   1.000  N
  N6       1.0000 0.02567  0.18457  0.02567  Biso   1.000  N
  N7       1.0000 0.02567  0.76409  0.02567  Biso   1.000  N
  N8       1.0000 0.18457  0.02567  0.76409  Biso   1.000  N
  N9       1.0000 0.76409  0.18457  0.02567  Biso   1.000  N
  N10      1.0000 0.02567  0.02567  0.76409  Biso   1.000  N
  N11      1.0000 0.02567  0.02567  0.18457  Biso   1.000  N
  N12      1.0000 0.18457  0.76409  0.02567  Biso   1.000  N
  N13      1.0000 0.97433  0.23591  0.97433  Biso   1.000  N
  N14      1.0000 0.23591  0.97433  0.81543  Biso   1.000  N
  N15      1.0000 0.81543  0.97433  0.23591  Biso   1.000  N
  N16      1.0000 0.97433  0.81543  0.97433  Biso   1.000  N
  N17      1.0000 0.97433  0.23591  0.81543  Biso   1.000  N
  N18      1.0000 0.81543  0.97433  0.97433  Biso   1.000  N
  N19      1.0000 0.23591  0.97433  0.97433  Biso   1.000  N
  N20      1.0000 0.97433  0.81543  0.23591  Biso   1.000  N
  N21      1.0000 0.81543  0.23591  0.97433  Biso   1.000  N
  N22      1.0000 0.97433  0.97433  0.23591  Biso   1.000  N
  N23      1.0000 0.97433  0.97433  0.81543  Biso   1.000  N
  N24      1.0000 0.23591  0.81543  0.97433  Biso   1.000  N
