data_HAFVUH_clean
_audit_creation_date              2015-05-14
_audit_creation_method            'Materials Studio'
_symmetry_space_group_name_H-M    'P1'
_symmetry_Int_Tables_number       1
_symmetry_cell_setting            triclinic
loop_
_symmetry_equiv_pos_as_xyz
  x,y,z
_cell_length_a                    15.2927
_cell_length_b                    15.2927
_cell_length_c                    12.3010
_cell_angle_alpha                 90.0000
_cell_angle_beta                  90.0000
_cell_angle_gamma                 90.0000
loop_
_atom_site_label
_atom_site_type_symbol
_atom_site_fract_x
_atom_site_fract_y
_atom_site_fract_z
_atom_site_U_iso_or_equiv
_atom_site_adp_type
_atom_site_occupancy
H1     H     0.61700   0.55920   0.58160   0.01267  Uiso   1.00
C2     C     0.56920   0.53670   0.61920   0.01267  Uiso   1.00
C3     C     0.56840   0.54040   0.73220   0.01267  Uiso   1.00
C4     C     0.63980   0.58770   0.79180   0.01267  Uiso   1.00
O5     O     0.62030   0.61550   0.88540   0.01267  Uiso   1.00
O6     O     0.71117   0.59694   0.74560   0.01267  Uiso   1.00
H7     H     0.29732   0.28839   0.40903   0.01267  Uiso   1.00
H8     H     0.11700   0.05920   0.08160   0.01267  Uiso   1.00
C9     C     0.06920   0.03670   0.11920   0.01267  Uiso   1.00
C10    C     0.06840   0.04040   0.23220   0.01267  Uiso   1.00
C11    C     0.13980   0.08770   0.29180   0.01267  Uiso   1.00
O12    O     0.12030   0.11550   0.38540   0.01267  Uiso   1.00
O13    O     0.21117   0.09694   0.24560   0.01267  Uiso   1.00
H14    H     0.79732   0.78839   0.90903   0.01267  Uiso   1.00
H15    H     0.88300   0.94080   0.08160   0.01267  Uiso   1.00
C16    C     0.93080   0.96330   0.11920   0.01267  Uiso   1.00
C17    C     0.93160   0.95960   0.23220   0.01267  Uiso   1.00
C18    C     0.86020   0.91230   0.29180   0.01267  Uiso   1.00
O19    O     0.87970   0.88450   0.38540   0.01267  Uiso   1.00
O20    O     0.78883   0.90306   0.24560   0.01267  Uiso   1.00
H21    H     0.20268   0.21161   0.90903   0.01267  Uiso   1.00
H22    H     0.38300   0.44080   0.58160   0.01267  Uiso   1.00
C23    C     0.43080   0.46330   0.61920   0.01267  Uiso   1.00
C24    C     0.43160   0.45960   0.73220   0.01267  Uiso   1.00
C25    C     0.36020   0.41230   0.79180   0.01267  Uiso   1.00
O26    O     0.37970   0.38450   0.88540   0.01267  Uiso   1.00
O27    O     0.28883   0.40306   0.74560   0.01267  Uiso   1.00
H28    H     0.70268   0.71161   0.40903   0.01267  Uiso   1.00
H29    H     0.44080   0.11700   0.83160   0.01267  Uiso   1.00
C30    C     0.46330   0.06920   0.86920   0.01267  Uiso   1.00
C31    C     0.45960   0.06840   0.98220   0.01267  Uiso   1.00
C32    C     0.41230   0.13980   0.04180   0.01267  Uiso   1.00
O33    O     0.38450   0.12030   0.13540   0.01267  Uiso   1.00
O34    O     0.40306   0.21117   0.99560   0.01267  Uiso   1.00
H35    H     0.71161   0.79732   0.65903   0.01267  Uiso   1.00
H36    H     0.94080   0.61700   0.33160   0.01267  Uiso   1.00
C37    C     0.96330   0.56920   0.36920   0.01267  Uiso   1.00
C38    C     0.95960   0.56840   0.48220   0.01267  Uiso   1.00
C39    C     0.91230   0.63980   0.54180   0.01267  Uiso   1.00
O40    O     0.88450   0.62030   0.63540   0.01267  Uiso   1.00
O41    O     0.90306   0.71117   0.49560   0.01267  Uiso   1.00
H42    H     0.21161   0.29732   0.15903   0.01267  Uiso   1.00
H43    H     0.05920   0.38300   0.33160   0.01267  Uiso   1.00
C44    C     0.03670   0.43080   0.36920   0.01267  Uiso   1.00
C45    C     0.04040   0.43160   0.48220   0.01267  Uiso   1.00
C46    C     0.08770   0.36020   0.54180   0.01267  Uiso   1.00
O47    O     0.11550   0.37970   0.63540   0.01267  Uiso   1.00
O48    O     0.09694   0.28883   0.49560   0.01267  Uiso   1.00
H49    H     0.78839   0.70268   0.15903   0.01267  Uiso   1.00
H50    H     0.55920   0.88300   0.83160   0.01267  Uiso   1.00
C51    C     0.53670   0.93080   0.86920   0.01267  Uiso   1.00
C52    C     0.54040   0.93160   0.98220   0.01267  Uiso   1.00
C53    C     0.58770   0.86020   0.04180   0.01267  Uiso   1.00
O54    O     0.61550   0.87970   0.13540   0.01267  Uiso   1.00
O55    O     0.59694   0.78883   0.99560   0.01267  Uiso   1.00
H56    H     0.28839   0.20268   0.65903   0.01267  Uiso   1.00
H57    H     0.88300   0.55920   0.16840   0.01267  Uiso   1.00
C58    C     0.93080   0.53670   0.13080   0.01267  Uiso   1.00
C59    C     0.93160   0.54040   0.01780   0.01267  Uiso   1.00
C60    C     0.86020   0.58770   0.95820   0.01267  Uiso   1.00
O61    O     0.87970   0.61550   0.86460   0.01267  Uiso   1.00
O62    O     0.78883   0.59694   0.00440   0.01267  Uiso   1.00
H63    H     0.20268   0.28839   0.34097   0.01267  Uiso   1.00
H64    H     0.38300   0.05920   0.66840   0.01267  Uiso   1.00
C65    C     0.43080   0.03670   0.63080   0.01267  Uiso   1.00
C66    C     0.43160   0.04040   0.51780   0.01267  Uiso   1.00
C67    C     0.36020   0.08770   0.45820   0.01267  Uiso   1.00
O68    O     0.37970   0.11550   0.36460   0.01267  Uiso   1.00
O69    O     0.28883   0.09694   0.50440   0.01267  Uiso   1.00
H70    H     0.70268   0.78839   0.84097   0.01267  Uiso   1.00
H71    H     0.61700   0.94080   0.66840   0.01267  Uiso   1.00
C72    C     0.56920   0.96330   0.63080   0.01267  Uiso   1.00
C73    C     0.56840   0.95960   0.51780   0.01267  Uiso   1.00
C74    C     0.63980   0.91230   0.45820   0.01267  Uiso   1.00
O75    O     0.62030   0.88450   0.36460   0.01267  Uiso   1.00
O76    O     0.71117   0.90306   0.50440   0.01267  Uiso   1.00
H77    H     0.29732   0.21161   0.84097   0.01267  Uiso   1.00
H78    H     0.11700   0.44080   0.16840   0.01267  Uiso   1.00
C79    C     0.06920   0.46330   0.13080   0.01267  Uiso   1.00
C80    C     0.06840   0.45960   0.01780   0.01267  Uiso   1.00
C81    C     0.13980   0.41230   0.95820   0.01267  Uiso   1.00
O82    O     0.12030   0.38450   0.86460   0.01267  Uiso   1.00
O83    O     0.21117   0.40306   0.00440   0.01267  Uiso   1.00
H84    H     0.79732   0.71161   0.34097   0.01267  Uiso   1.00
H85    H     0.05920   0.11700   0.91840   0.01267  Uiso   1.00
C86    C     0.03670   0.06920   0.88080   0.01267  Uiso   1.00
C87    C     0.04040   0.06840   0.76780   0.01267  Uiso   1.00
C88    C     0.08770   0.13980   0.70820   0.01267  Uiso   1.00
O89    O     0.11550   0.12030   0.61460   0.01267  Uiso   1.00
O90    O     0.09694   0.21117   0.75440   0.01267  Uiso   1.00
H91    H     0.78839   0.79732   0.09097   0.01267  Uiso   1.00
H92    H     0.55920   0.61700   0.41840   0.01267  Uiso   1.00
C93    C     0.53670   0.56920   0.38080   0.01267  Uiso   1.00
C94    C     0.54040   0.56840   0.26780   0.01267  Uiso   1.00
C95    C     0.58770   0.63980   0.20820   0.01267  Uiso   1.00
O96    O     0.61550   0.62030   0.11460   0.01267  Uiso   1.00
O97    O     0.59694   0.71117   0.25440   0.01267  Uiso   1.00
H98    H     0.28839   0.29732   0.59097   0.01267  Uiso   1.00
H99    H     0.44080   0.38300   0.41840   0.01267  Uiso   1.00
C100   C     0.46330   0.43080   0.38080   0.01267  Uiso   1.00
C101   C     0.45960   0.43160   0.26780   0.01267  Uiso   1.00
C102   C     0.41230   0.36020   0.20820   0.01267  Uiso   1.00
O103   O     0.38450   0.37970   0.11460   0.01267  Uiso   1.00
O104   O     0.40306   0.28883   0.25440   0.01267  Uiso   1.00
H105   H     0.71161   0.70268   0.59097   0.01267  Uiso   1.00
H106   H     0.94080   0.88300   0.91840   0.01267  Uiso   1.00
C107   C     0.96330   0.93080   0.88080   0.01267  Uiso   1.00
C108   C     0.95960   0.93160   0.76780   0.01267  Uiso   1.00
C109   C     0.91230   0.86020   0.70820   0.01267  Uiso   1.00
O110   O     0.88450   0.87970   0.61460   0.01267  Uiso   1.00
O111   O     0.90306   0.78883   0.75440   0.01267  Uiso   1.00
H112   H     0.21161   0.20268   0.09097   0.01267  Uiso   1.00
Mg113  Mg    0.18480   0.18480   0.50000   0.01267  Uiso   1.00
Mg114  Mg    0.31520   0.31520   0.00000   0.01267  Uiso   1.00
Mg115  Mg    0.81520   0.68480   0.75000   0.01267  Uiso   1.00
Mg116  Mg    0.68480   0.81520   0.25000   0.01267  Uiso   1.00
Mg117  Mg    0.31520   0.18480   0.25000   0.01267  Uiso   1.00
Mg118  Mg    0.18480   0.31520   0.75000   0.01267  Uiso   1.00
Mg119  Mg    0.68480   0.68480   0.00000   0.01267  Uiso   1.00
Mg120  Mg    0.81520   0.81520   0.50000   0.01267  Uiso   1.00
H121   H     0.00000   0.00000   0.36390   0.01267  Uiso   1.00
C122   C     0.00000   0.00000   0.06100   0.01267  Uiso   1.00
C123   C     0.00000   0.00000   0.28830   0.01267  Uiso   1.00
H124   H     0.50000   0.50000   0.86390   0.01267  Uiso   1.00
C125   C     0.50000   0.50000   0.56100   0.01267  Uiso   1.00
C126   C     0.50000   0.50000   0.78830   0.01267  Uiso   1.00
H127   H     0.00000   0.50000   0.61390   0.01267  Uiso   1.00
C128   C     0.00000   0.50000   0.31100   0.01267  Uiso   1.00
C129   C     0.00000   0.50000   0.53830   0.01267  Uiso   1.00
H130   H     0.50000   0.00000   0.11390   0.01267  Uiso   1.00
C131   C     0.50000   0.00000   0.81100   0.01267  Uiso   1.00
C132   C     0.50000   0.00000   0.03830   0.01267  Uiso   1.00
H133   H     0.50000   0.00000   0.38610   0.01267  Uiso   1.00
C134   C     0.50000   0.00000   0.68900   0.01267  Uiso   1.00
C135   C     0.50000   0.00000   0.46170   0.01267  Uiso   1.00
H136   H    -0.00000   0.50000   0.88610   0.01267  Uiso   1.00
C137   C     0.00000   0.50000   0.18900   0.01267  Uiso   1.00
C138   C    -0.00000   0.50000   0.96170   0.01267  Uiso   1.00
H139   H     0.50000   0.50000   0.13610   0.01267  Uiso   1.00
C140   C     0.50000   0.50000   0.43900   0.01267  Uiso   1.00
C141   C     0.50000   0.50000   0.21170   0.01267  Uiso   1.00
H142   H     0.00000   0.00000   0.63610   0.01267  Uiso   1.00
C143   C     0.00000   0.00000   0.93900   0.01267  Uiso   1.00
C144   C     0.00000   0.00000   0.71170   0.01267  Uiso   1.00
O145   O     0.75540   0.75000   0.12500   0.01267  Uiso   1.00
O146   O     0.25540   0.25000   0.62500   0.01267  Uiso   1.00
O147   O     0.74460   0.75000   0.62500   0.01267  Uiso   1.00
O148   O     0.24460   0.25000   0.12500   0.01267  Uiso   1.00
O149   O     0.25000   0.25540   0.37500   0.01267  Uiso   1.00
O150   O     0.75000   0.75540   0.87500   0.01267  Uiso   1.00
O151   O     0.25000   0.24460   0.87500   0.01267  Uiso   1.00
O152   O     0.75000   0.74460   0.37500   0.01267  Uiso   1.00
