data_HAFWAO_charged
_audit_creation_date              2014-07-02
_audit_creation_method            'Materials Studio'
_symmetry_space_group_name_H-M    'P1'
_symmetry_Int_Tables_number       1
_symmetry_cell_setting            triclinic
loop_
_symmetry_equiv_pos_as_xyz
  x,y,z
_cell_length_a                    21.8004
_cell_length_b                    21.8004
_cell_length_c                    21.8004
_cell_angle_alpha                 93.5597
_cell_angle_beta                  117.9670
_cell_angle_gamma                 117.9670
loop_
_atom_site_label
_atom_site_type_symbol
_atom_site_fract_x
_atom_site_fract_y
_atom_site_fract_z
_atom_site_U_iso_or_equiv
_atom_site_adp_type
_atom_site_occupancy
Zn1    Zn    0.07964   0.76626   0.30552   0.01267  Uiso   1.00
Zn2    Zn    0.92036   0.22588   0.68662   0.01267  Uiso   1.00
Zn3    Zn    0.46074   0.69448   0.77412   0.01267  Uiso   1.00
Zn4    Zn    0.53926   0.31338   0.23374   0.01267  Uiso   1.00
Zn5    Zn    0.96074   0.52412   0.94448   0.01267  Uiso   1.00
Zn6    Zn    0.03926   0.98374   0.56338   0.01267  Uiso   1.00
Zn7    Zn    0.42036   0.43662   0.47588   0.01267  Uiso   1.00
Zn8    Zn    0.57964   0.05552   0.01626   0.01267  Uiso   1.00
H1     H     0.28000   0.93410   0.22070   0.01267  Uiso   1.00
H2     H     0.31650   0.02780   0.17010   0.01267  Uiso   1.00
H3     H     0.27470   0.71160   0.51530   0.01267  Uiso   1.00
H4     H     0.34620   0.81620   0.71700   0.01267  Uiso   1.00
H5     H     0.22570   0.86170   0.54580   0.01267  Uiso   1.00
H6     H     0.72000   0.94070   0.65410   0.01267  Uiso   1.00
H7     H     0.68350   0.85360   0.71130   0.01267  Uiso   1.00
H8     H     0.72530   0.24060   0.43690   0.01267  Uiso   1.00
H9     H     0.65380   0.37080   0.47000   0.01267  Uiso   1.00
H10    H     0.77430   0.32010   0.63600   0.01267  Uiso   1.00
H11    H     0.71340   0.77930   0.05930   0.01267  Uiso   1.00
H12    H     0.85770   0.82990   0.14640   0.01267  Uiso   1.00
H13    H     0.19630   0.48470   0.75940   0.01267  Uiso   1.00
H14    H     0.09920   0.28300   0.62920   0.01267  Uiso   1.00
H15    H     0.31590   0.45420   0.67990   0.01267  Uiso   1.00
H16    H     0.28660   0.34590   0.06590   0.01267  Uiso   1.00
H17    H     0.14230   0.28870   0.97220   0.01267  Uiso   1.00
H18    H     0.80370   0.56310   0.28840   0.01267  Uiso   1.00
H19    H     0.90080   0.53000   0.18380   0.01267  Uiso   1.00
H20    H     0.68410   0.36400   0.13830   0.01267  Uiso   1.00
H21    H     0.21340   0.80930   0.02930   0.01267  Uiso   1.00
H22    H     0.35770   0.89640   0.07990   0.01267  Uiso   1.00
H23    H     0.69630   0.50940   0.73470   0.01267  Uiso   1.00
H24    H     0.59920   0.37920   0.53300   0.01267  Uiso   1.00
H25    H     0.81590   0.42990   0.70420   0.01267  Uiso   1.00
H26    H     0.78660   0.81590   0.59590   0.01267  Uiso   1.00
H27    H     0.64230   0.72220   0.53870   0.01267  Uiso   1.00
H28    H     0.30370   0.03840   0.81310   0.01267  Uiso   1.00
H29    H     0.40080   0.93380   0.78000   0.01267  Uiso   1.00
H30    H     0.18410   0.88830   0.61400   0.01267  Uiso   1.00
H31    H     0.22000   0.40410   0.19070   0.01267  Uiso   1.00
H32    H     0.18350   0.46130   0.10360   0.01267  Uiso   1.00
H33    H     0.22530   0.18690   0.49060   0.01267  Uiso   1.00
H34    H     0.15380   0.22000   0.62080   0.01267  Uiso   1.00
H35    H     0.27430   0.38600   0.57010   0.01267  Uiso   1.00
H36    H     0.78000   0.97070   0.18410   0.01267  Uiso   1.00
H37    H     0.81650   0.92010   0.27780   0.01267  Uiso   1.00
H38    H     0.77470   0.26530   0.96160   0.01267  Uiso   1.00
H39    H     0.84620   0.46700   0.06620   0.01267  Uiso   1.00
H40    H     0.72570   0.29580   0.11170   0.01267  Uiso   1.00
H41    H     0.09260   0.71760   0.12500   0.01267  Uiso   1.00
H42    H     0.49040   0.11540   0.12500   0.01267  Uiso   1.00
H43    H     0.90740   0.03240   0.62500   0.01267  Uiso   1.00
H44    H     0.50960   0.63460   0.62500   0.01267  Uiso   1.00
H45    H     0.59260   0.87500   0.96760   0.01267  Uiso   1.00
H46    H     0.99040   0.87500   0.36540   0.01267  Uiso   1.00
H47    H     0.40740   0.37500   0.28240   0.01267  Uiso   1.00
H48    H     0.00960   0.37500   0.88460   0.01267  Uiso   1.00
C1     C     0.17020   0.83420   0.24260   0.01267  Uiso   1.00
C2     C     0.18360   0.82870   0.18050   0.01267  Uiso   1.00
C3     C     0.24550   0.88870   0.18160   0.01267  Uiso   1.00
C4     C     0.34570   0.02150   0.15280   0.01267  Uiso   1.00
C5     C     0.40780   0.08210   0.15490   0.01267  Uiso   1.00
C6     C     0.43100   0.15920   0.18620   0.01267  Uiso   1.00
C7     C     0.24620   0.78650   0.51710   0.01267  Uiso   1.00
C8     C     0.27950   0.74710   0.54640   0.01267  Uiso   1.00
C9     C     0.31970   0.75960   0.62130   0.01267  Uiso   1.00
C10    C     0.32100   0.80920   0.66660   0.01267  Uiso   1.00
C11    C     0.28690   0.84680   0.63950   0.01267  Uiso   1.00
C12    C     0.24950   0.83580   0.56510   0.01267  Uiso   1.00
C13    C     0.19770   0.77160   0.43430   0.01267  Uiso   1.00
C14    C     0.35670   0.71770   0.65240   0.01267  Uiso   1.00
C15    C     0.82980   0.07240   0.66400   0.01267  Uiso   1.00
C16    C     0.81640   0.99690   0.64510   0.01267  Uiso   1.00
C17    C     0.75450   0.93610   0.64320   0.01267  Uiso   1.00
C18    C     0.65430   0.80710   0.67580   0.01267  Uiso   1.00
C19    C     0.59220   0.74710   0.67430   0.01267  Uiso   1.00
C20    C     0.56900   0.75520   0.72820   0.01267  Uiso   1.00
C21    C     0.75380   0.27090   0.54030   0.01267  Uiso   1.00
C22    C     0.72050   0.26690   0.46760   0.01267  Uiso   1.00
C23    C     0.68030   0.30160   0.43990   0.01267  Uiso   1.00
C24    C     0.67900   0.34560   0.48820   0.01267  Uiso   1.00
C25    C     0.71310   0.35260   0.55990   0.01267  Uiso   1.00
C26    C     0.75050   0.31560   0.58630   0.01267  Uiso   1.00
C27    C     0.80230   0.23660   0.57390   0.01267  Uiso   1.00
C28    C     0.64330   0.29570   0.36100   0.01267  Uiso   1.00
C29    C     0.59160   0.75740   0.92760   0.01267  Uiso   1.00
C30    C     0.64820   0.81950   0.00310   0.01267  Uiso   1.00
C31    C     0.70710   0.81840   0.06390   0.01267  Uiso   1.00
C32    C     0.86870   0.84720   0.19290   0.01267  Uiso   1.00
C33    C     0.92720   0.84510   0.25290   0.01267  Uiso   1.00
C34    C     0.97300   0.81380   0.24480   0.01267  Uiso   1.00
C35    C     0.26940   0.48290   0.72910   0.01267  Uiso   1.00
C36    C     0.20070   0.45360   0.73310   0.01267  Uiso   1.00
C37    C     0.13830   0.37870   0.69840   0.01267  Uiso   1.00
C38    C     0.14260   0.33340   0.65440   0.01267  Uiso   1.00
C39    C     0.20730   0.36050   0.64740   0.01267  Uiso   1.00
C40    C     0.27070   0.43490   0.68440   0.01267  Uiso   1.00
C41    C     0.33730   0.56570   0.76340   0.01267  Uiso   1.00
C42    C     0.06530   0.34760   0.70430   0.01267  Uiso   1.00
C43    C     0.40840   0.33600   0.16580   0.01267  Uiso   1.00
C44    C     0.35180   0.35490   0.17130   0.01267  Uiso   1.00
C45    C     0.29290   0.35680   0.11130   0.01267  Uiso   1.00
C46    C     0.13130   0.32420   0.97850   0.01267  Uiso   1.00
C47    C     0.07280   0.32570   0.91790   0.01267  Uiso   1.00
C48    C     0.02700   0.27180   0.84080   0.01267  Uiso   1.00
C49    C     0.73060   0.45970   0.21350   0.01267  Uiso   1.00
C50    C     0.79930   0.53240   0.25290   0.01267  Uiso   1.00
C51    C     0.86170   0.56010   0.24040   0.01267  Uiso   1.00
C52    C     0.85740   0.51180   0.19080   0.01267  Uiso   1.00
C53    C     0.79270   0.44010   0.15320   0.01267  Uiso   1.00
C54    C     0.72930   0.41370   0.16420   0.01267  Uiso   1.00
C55    C     0.66270   0.42610   0.22840   0.01267  Uiso   1.00
C56    C     0.93470   0.63900   0.28230   0.01267  Uiso   1.00
C57    C     0.09160   0.67760   0.00740   0.01267  Uiso   1.00
C58    C     0.14820   0.75310   0.06950   0.01267  Uiso   1.00
C59    C     0.20710   0.81390   0.06840   0.01267  Uiso   1.00
C60    C     0.36870   0.94290   0.09720   0.01267  Uiso   1.00
C61    C     0.42720   0.00290   0.09510   0.01267  Uiso   1.00
C62    C     0.47300   0.99480   0.06380   0.01267  Uiso   1.00
C63    C     0.76940   0.47910   0.73290   0.01267  Uiso   1.00
C64    C     0.70070   0.48310   0.70360   0.01267  Uiso   1.00
C65    C     0.63830   0.44840   0.62870   0.01267  Uiso   1.00
C66    C     0.64260   0.40440   0.58340   0.01267  Uiso   1.00
C67    C     0.70730   0.39740   0.61050   0.01267  Uiso   1.00
C68    C     0.77070   0.43440   0.68490   0.01267  Uiso   1.00
C69    C     0.83730   0.51340   0.81570   0.01267  Uiso   1.00
C70    C     0.56530   0.45430   0.59760   0.01267  Uiso   1.00
C71    C     0.90840   0.91580   0.58600   0.01267  Uiso   1.00
C72    C     0.85180   0.92130   0.60490   0.01267  Uiso   1.00
C73    C     0.79290   0.86130   0.60680   0.01267  Uiso   1.00
C74    C     0.63130   0.72850   0.57420   0.01267  Uiso   1.00
C75    C     0.57280   0.66790   0.57570   0.01267  Uiso   1.00
C76    C     0.52700   0.59080   0.52180   0.01267  Uiso   1.00
C77    C     0.23060   0.96350   0.70970   0.01267  Uiso   1.00
C78    C     0.29930   0.00290   0.78240   0.01267  Uiso   1.00
C79    C     0.36170   0.99040   0.81010   0.01267  Uiso   1.00
C80    C     0.35740   0.94080   0.76180   0.01267  Uiso   1.00
C81    C     0.29270   0.90320   0.69010   0.01267  Uiso   1.00
C82    C     0.22930   0.91420   0.66370   0.01267  Uiso   1.00
C83    C     0.16270   0.97840   0.67610   0.01267  Uiso   1.00
C84    C     0.43470   0.03230   0.88900   0.01267  Uiso   1.00
C85    C     0.32980   0.41400   0.32240   0.01267  Uiso   1.00
C86    C     0.31640   0.39510   0.24690   0.01267  Uiso   1.00
C87    C     0.25450   0.39320   0.18610   0.01267  Uiso   1.00
C88    C     0.15430   0.42580   0.05710   0.01267  Uiso   1.00
C89    C     0.09220   0.42430   0.99710   0.01267  Uiso   1.00
C90    C     0.06900   0.47820   0.00520   0.01267  Uiso   1.00
C91    C     0.25380   0.29030   0.52090   0.01267  Uiso   1.00
C92    C     0.22050   0.21760   0.51690   0.01267  Uiso   1.00
C93    C     0.18030   0.18990   0.55160   0.01267  Uiso   1.00
C94    C     0.17900   0.23820   0.59560   0.01267  Uiso   1.00
C95    C     0.21310   0.30990   0.60260   0.01267  Uiso   1.00
C96    C     0.25050   0.33630   0.56560   0.01267  Uiso   1.00
C97    C     0.30230   0.32390   0.48660   0.01267  Uiso   1.00
C98    C     0.14330   0.11100   0.54570   0.01267  Uiso   1.00
C99    C     0.67020   0.99260   0.08420   0.01267  Uiso   1.00
C100   C     0.68360   0.93050   0.07870   0.01267  Uiso   1.00
C101   C     0.74550   0.93160   0.13870   0.01267  Uiso   1.00
C102   C     0.84570   0.90280   0.27150   0.01267  Uiso   1.00
C103   C     0.90780   0.90490   0.33210   0.01267  Uiso   1.00
C104   C     0.93100   0.93620   0.40920   0.01267  Uiso   1.00
C105   C     0.74620   0.26710   0.03650   0.01267  Uiso   1.00
C106   C     0.77950   0.29640   0.99710   0.01267  Uiso   1.00
C107   C     0.81970   0.37130   0.00960   0.01267  Uiso   1.00
C108   C     0.82100   0.41660   0.05920   0.01267  Uiso   1.00
C109   C     0.78690   0.38950   0.09680   0.01267  Uiso   1.00
C110   C     0.74950   0.31510   0.08580   0.01267  Uiso   1.00
C111   C     0.69770   0.18430   0.02160   0.01267  Uiso   1.00
C112   C     0.85670   0.40240   0.96770   0.01267  Uiso   1.00
C113   C     0.25820   0.88320   0.12500   0.01267  Uiso   1.00
C114   C     0.32380   0.94880   0.12500   0.01267  Uiso   1.00
C115   C     0.13400   0.75900   0.12500   0.01267  Uiso   1.00
C116   C     0.44900   0.07400   0.12500   0.01267  Uiso   1.00
C117   C     0.74180   0.86680   0.62500   0.01267  Uiso   1.00
C118   C     0.67620   0.80120   0.62500   0.01267  Uiso   1.00
C119   C     0.86600   0.99100   0.62500   0.01267  Uiso   1.00
C120   C     0.55100   0.67600   0.62500   0.01267  Uiso   1.00
C121   C     0.75820   0.87500   0.13320   0.01267  Uiso   1.00
C122   C     0.82380   0.87500   0.19880   0.01267  Uiso   1.00
C123   C     0.63400   0.87500   0.00900   0.01267  Uiso   1.00
C124   C     0.94900   0.87500   0.32400   0.01267  Uiso   1.00
C125   C     0.24180   0.37500   0.11680   0.01267  Uiso   1.00
C126   C     0.17620   0.37500   0.05120   0.01267  Uiso   1.00
C127   C     0.36600   0.37500   0.24100   0.01267  Uiso   1.00
C128   C     0.05100   0.37500   0.92600   0.01267  Uiso   1.00
O1     O     0.11960   0.77160   0.24200   0.01267  Uiso   1.00
O2     O     0.20560   0.89670   0.28710   0.01267  Uiso   1.00
O3     O     0.41040   0.17000   0.22800   0.01267  Uiso   1.00
O4     O     0.47320   0.20900   0.17040   0.01267  Uiso   1.00
O5     O     0.16730   0.80920   0.41230   0.01267  Uiso   1.00
O6     O     0.18690   0.72140   0.39150   0.01267  Uiso   1.00
O7     O     0.39400   0.73330   0.72150   0.01267  Uiso   1.00
O8     O     0.35480   0.67340   0.61020   0.01267  Uiso   1.00
O9     O     0.88040   0.12240   0.65200   0.01267  Uiso   1.00
O10    O     0.79440   0.08150   0.69110   0.01267  Uiso   1.00
O11    O     0.58960   0.81760   0.75960   0.01267  Uiso   1.00
O12    O     0.52680   0.69720   0.73580   0.01267  Uiso   1.00
O13    O     0.83270   0.24500   0.64190   0.01267  Uiso   1.00
O14    O     0.81310   0.20460   0.53450   0.01267  Uiso   1.00
O15    O     0.60600   0.32750   0.33930   0.01267  Uiso   1.00
O16    O     0.64520   0.25540   0.31860   0.01267  Uiso   1.00
O17    O     0.52960   0.75800   0.87760   0.01267  Uiso   1.00
O18    O     0.60960   0.71290   0.91850   0.01267  Uiso   1.00
O19    O     0.94200   0.77200   0.18240   0.01267  Uiso   1.00
O20    O     0.03860   0.82960   0.30280   0.01267  Uiso   1.00
O21    O     0.39690   0.58770   0.75500   0.01267  Uiso   1.00
O22    O     0.32990   0.60850   0.79540   0.01267  Uiso   1.00
O23    O     0.01180   0.27850   0.67250   0.01267  Uiso   1.00
O24    O     0.06320   0.38980   0.74460   0.01267  Uiso   1.00
O25    O     0.47040   0.34800   0.22840   0.01267  Uiso   1.00
O26    O     0.39040   0.30890   0.10330   0.01267  Uiso   1.00
O27    O     0.05800   0.24040   0.83000   0.01267  Uiso   1.00
O28    O     0.96140   0.26420   0.79100   0.01267  Uiso   1.00
O29    O     0.60310   0.35810   0.19080   0.01267  Uiso   1.00
O30    O     0.67010   0.46550   0.27860   0.01267  Uiso   1.00
O31    O     0.98820   0.66070   0.26670   0.01267  Uiso   1.00
O32    O     0.93680   0.68140   0.32660   0.01267  Uiso   1.00
O33    O     0.02960   0.62760   0.00800   0.01267  Uiso   1.00
O34    O     0.10960   0.66850   0.96290   0.01267  Uiso   1.00
O35    O     0.44200   0.93240   0.02200   0.01267  Uiso   1.00
O36    O     0.53860   0.05280   0.07960   0.01267  Uiso   1.00
O37    O     0.89690   0.50500   0.83770   0.01267  Uiso   1.00
O38    O     0.82990   0.54540   0.85850   0.01267  Uiso   1.00
O39    O     0.51180   0.42250   0.52850   0.01267  Uiso   1.00
O40    O     0.56320   0.49460   0.63980   0.01267  Uiso   1.00
O41    O     0.97040   0.97840   0.59800   0.01267  Uiso   1.00
O42    O     0.89040   0.85330   0.55890   0.01267  Uiso   1.00
O43    O     0.55800   0.58000   0.49040   0.01267  Uiso   1.00
O44    O     0.46140   0.54100   0.51420   0.01267  Uiso   1.00
O45    O     0.10310   0.94080   0.60810   0.01267  Uiso   1.00
O46    O     0.17010   0.02860   0.71550   0.01267  Uiso   1.00
O47    O     0.48820   0.01670   0.91070   0.01267  Uiso   1.00
O48    O     0.43680   0.07660   0.93140   0.01267  Uiso   1.00
O49    O     0.38040   0.40200   0.37240   0.01267  Uiso   1.00
O50    O     0.29440   0.44110   0.33150   0.01267  Uiso   1.00
O51    O     0.08960   0.50960   0.06760   0.01267  Uiso   1.00
O52    O     0.02680   0.48580   0.94720   0.01267  Uiso   1.00
O53    O     0.33270   0.39190   0.49500   0.01267  Uiso   1.00
O54    O     0.31310   0.28450   0.45460   0.01267  Uiso   1.00
O55    O     0.10600   0.08930   0.57750   0.01267  Uiso   1.00
O56    O     0.14520   0.06860   0.50540   0.01267  Uiso   1.00
O57    O     0.61960   0.99200   0.02160   0.01267  Uiso   1.00
O58    O     0.70560   0.03710   0.14670   0.01267  Uiso   1.00
O59    O     0.91040   0.97800   0.42000   0.01267  Uiso   1.00
O60    O     0.97320   0.92040   0.45900   0.01267  Uiso   1.00
O61    O     0.66730   0.16230   0.05920   0.01267  Uiso   1.00
O62    O     0.68690   0.14150   0.97140   0.01267  Uiso   1.00
O63    O     0.89400   0.47150   0.98330   0.01267  Uiso   1.00
O64    O     0.85480   0.36020   0.92340   0.01267  Uiso   1.00
H49    H     0.18410   0.94150   0.42480   0.01267  Uiso   1.00
H50    H     0.19430   0.93160   0.36430   0.01267  Uiso   1.00
H51    H     0.11830   0.98350   0.33840   0.01267  Uiso   1.00
H52    H     0.20490   0.04060   0.35090   0.01267  Uiso   1.00
H53    H     0.19190   0.04960   0.41490   0.01267  Uiso   1.00
H54    H     0.31890   0.97660   0.47450   0.01267  Uiso   1.00
H55    H     0.31920   0.04560   0.50000   0.01267  Uiso   1.00
H56    H     0.33010   0.03480   0.43490   0.01267  Uiso   1.00
C129   C     0.17830   0.01440   0.37410   0.01267  Uiso   1.00
C130   C     0.30280   0.00970   0.45810   0.01267  Uiso   1.00
N1     N     0.20940   0.96590   0.40310   0.01267  Uiso   1.00
H57    H     0.38960   0.82340   0.48400   0.01267  Uiso   1.00
H58    H     0.46540   0.86860   0.48520   0.01267  Uiso   1.00
H59    H     0.48750   0.93040   0.59210   0.01267  Uiso   1.00
H60    H     0.40690   0.92970   0.54160   0.01267  Uiso   1.00
H61    H     0.48750   0.97870   0.54180   0.01267  Uiso   1.00
H62    H     0.34960   0.83170   0.36590   0.01267  Uiso   1.00
H63    H     0.40310   0.91850   0.40380   0.01267  Uiso   1.00
H64    H     0.32140   0.86840   0.40160   0.01267  Uiso   1.00
C131   C     0.45390   0.93260   0.54530   0.01267  Uiso   1.00
C132   C     0.36890   0.87180   0.40590   0.01267  Uiso   1.00
N2     N     0.42150   0.86680   0.48130   0.01267  Uiso   1.00
H65    H     0.81590   0.24070   0.75740   0.01267  Uiso   1.00
H66    H     0.80570   0.17000   0.73730   0.01267  Uiso   1.00
H67    H     0.88170   0.22010   0.86520   0.01267  Uiso   1.00
H68    H     0.79510   0.14600   0.83570   0.01267  Uiso   1.00
H69    H     0.80810   0.22300   0.85770   0.01267  Uiso   1.00
H70    H     0.68110   0.15560   0.65770   0.01267  Uiso   1.00
H71    H     0.68080   0.18080   0.72640   0.01267  Uiso   1.00
H72    H     0.66990   0.10480   0.70470   0.01267  Uiso   1.00
C133   C     0.82170   0.19580   0.83610   0.01267  Uiso   1.00
C134   C     0.69720   0.15530   0.70690   0.01267  Uiso   1.00
N3     N     0.79060   0.19370   0.75650   0.01267  Uiso   1.00
H73    H     0.61040   0.09440   0.43380   0.01267  Uiso   1.00
H74    H     0.53460   0.01980   0.40320   0.01267  Uiso   1.00
H75    H     0.51250   0.10460   0.44290   0.01267  Uiso   1.00
H76    H     0.59310   0.13470   0.52280   0.01267  Uiso   1.00
H77    H     0.51250   0.05430   0.49120   0.01267  Uiso   1.00
H78    H     0.65040   0.01630   0.48210   0.01267  Uiso   1.00
H79    H     0.59690   0.00070   0.51540   0.01267  Uiso   1.00
H80    H     0.67860   0.08020   0.54700   0.01267  Uiso   1.00
C135   C     0.54610   0.09140   0.47870   0.01267  Uiso   1.00
C136   C     0.63110   0.03700   0.50290   0.01267  Uiso   1.00
N4     N     0.57850   0.05980   0.44530   0.01267  Uiso   1.00
H81    H     0.51670   0.57520   0.75930   0.01267  Uiso   1.00
H82    H     0.56730   0.63570   0.83000   0.01267  Uiso   1.00
H83    H     0.64510   0.66160   0.77990   0.01267  Uiso   1.00
H84    H     0.68970   0.64910   0.85400   0.01267  Uiso   1.00
H85    H     0.63470   0.58510   0.77700   0.01267  Uiso   1.00
H86    H     0.50210   0.52550   0.84440   0.01267  Uiso   1.00
H87    H     0.54560   0.50000   0.81920   0.01267  Uiso   1.00
H88    H     0.59990   0.56510   0.89520   0.01267  Uiso   1.00
C137   C     0.64030   0.62590   0.80420   0.01267  Uiso   1.00
C138   C     0.55160   0.54190   0.84470   0.01267  Uiso   1.00
N5     N     0.56280   0.59690   0.80630   0.01267  Uiso   1.00
H89    H     0.33940   0.51600   0.90560   0.01267  Uiso   1.00
H90    H     0.38340   0.51480   0.98020   0.01267  Uiso   1.00
H91    H     0.33830   0.40790   0.89540   0.01267  Uiso   1.00
H92    H     0.38810   0.45840   0.86530   0.01267  Uiso   1.00
H93    H     0.43690   0.45820   0.94570   0.01267  Uiso   1.00
H94    H     0.46580   0.63410   0.98370   0.01267  Uiso   1.00
H95    H     0.51470   0.59620   0.99930   0.01267  Uiso   1.00
H96    H     0.46680   0.59840   0.91980   0.01267  Uiso   1.00
C139   C     0.38730   0.45470   0.90860   0.01267  Uiso   1.00
C140   C     0.46590   0.59410   0.96300   0.01267  Uiso   1.00
N6     N     0.38550   0.51870   0.94020   0.01267  Uiso   1.00
H97    H     0.48330   0.24260   0.05850   0.01267  Uiso   1.00
H98    H     0.43270   0.26270   0.06840   0.01267  Uiso   1.00
H99    H     0.35490   0.13480   0.01650   0.01267  Uiso   1.00
H100   H     0.31030   0.16430   0.95940   0.01267  Uiso   1.00
H101   H     0.36530   0.14230   0.95040   0.01267  Uiso   1.00
H102   H     0.49790   0.34230   0.02340   0.01267  Uiso   1.00
H103   H     0.45440   0.27360   0.95440   0.01267  Uiso   1.00
H104   H     0.40010   0.29530   0.96520   0.01267  Uiso   1.00
C141   C     0.35970   0.16390   0.98560   0.01267  Uiso   1.00
C142   C     0.44840   0.29310   0.99030   0.01267  Uiso   1.00
N7     N     0.43720   0.24350   0.03410   0.01267  Uiso   1.00
H105   H     0.66060   0.56620   0.17660   0.01267  Uiso   1.00
H106   H     0.61660   0.59680   0.13140   0.01267  Uiso   1.00
H107   H     0.66170   0.55710   0.06960   0.01267  Uiso   1.00
H108   H     0.61190   0.47720   0.07030   0.01267  Uiso   1.00
H109   H     0.56310   0.50880   0.02130   0.01267  Uiso   1.00
H110   H     0.53420   0.51790   0.16830   0.01267  Uiso   1.00
H111   H     0.48530   0.48460   0.08150   0.01267  Uiso   1.00
H112   H     0.53320   0.45300   0.13160   0.01267  Uiso   1.00
C143   C     0.61270   0.52130   0.06740   0.01267  Uiso   1.00
C144   C     0.53410   0.49710   0.12820   0.01267  Uiso   1.00
N8     N     0.61450   0.55470   0.13320   0.01267  Uiso   1.00
H113   H     0.01670   0.50930   0.82520   0.01267  Uiso   1.00
H114   H     0.06730   0.58000   0.88570   0.01267  Uiso   1.00
H115   H     0.14510   0.52990   0.91160   0.01267  Uiso   1.00
H116   H     0.18970   0.60400   0.89910   0.01267  Uiso   1.00
H117   H     0.13470   0.52700   0.83510   0.01267  Uiso   1.00
H118   H     0.00210   0.59440   0.77550   0.01267  Uiso   1.00
H119   H     0.04560   0.56920   0.75000   0.01267  Uiso   1.00
H120   H     0.09990   0.64520   0.81510   0.01267  Uiso   1.00
C145   C     0.14030   0.55420   0.87590   0.01267  Uiso   1.00
C146   C     0.05160   0.59470   0.79190   0.01267  Uiso   1.00
N9     N     0.06280   0.55630   0.84690   0.01267  Uiso   1.00
H121   H     0.83940   0.65560   0.76600   0.01267  Uiso   1.00
H122   H     0.88340   0.73020   0.76480   0.01267  Uiso   1.00
H123   H     0.83830   0.64540   0.65790   0.01267  Uiso   1.00
H124   H     0.88810   0.61530   0.70840   0.01267  Uiso   1.00
H125   H     0.93690   0.69570   0.70820   0.01267  Uiso   1.00
H126   H     0.96580   0.73370   0.88410   0.01267  Uiso   1.00
H127   H     0.01470   0.74930   0.84620   0.01267  Uiso   1.00
H128   H     0.96680   0.66980   0.84840   0.01267  Uiso   1.00
C147   C     0.88730   0.65860   0.70470   0.01267  Uiso   1.00
C148   C     0.96590   0.71300   0.84410   0.01267  Uiso   1.00
N10    N     0.88550   0.69020   0.76870   0.01267  Uiso   1.00
H129   H     0.98330   0.80850   0.49260   0.01267  Uiso   1.00
H130   H     0.93270   0.81840   0.51270   0.01267  Uiso   1.00
H131   H     0.85490   0.76650   0.38480   0.01267  Uiso   1.00
H132   H     0.81030   0.70940   0.41430   0.01267  Uiso   1.00
H133   H     0.86530   0.70040   0.39230   0.01267  Uiso   1.00
H134   H     0.99790   0.77340   0.59230   0.01267  Uiso   1.00
H135   H     0.95440   0.70440   0.52360   0.01267  Uiso   1.00
H136   H     0.90010   0.71520   0.54530   0.01267  Uiso   1.00
C149   C     0.85970   0.73560   0.41390   0.01267  Uiso   1.00
C150   C     0.94840   0.74030   0.54310   0.01267  Uiso   1.00
N11    N     0.93720   0.78410   0.49350   0.01267  Uiso   1.00
H137   H     0.16060   0.92660   0.81620   0.01267  Uiso   1.00
H138   H     0.11660   0.88140   0.84680   0.01267  Uiso   1.00
H139   H     0.16170   0.81960   0.80710   0.01267  Uiso   1.00
H140   H     0.11190   0.82030   0.72720   0.01267  Uiso   1.00
H141   H     0.06310   0.77130   0.75880   0.01267  Uiso   1.00
H142   H     0.03420   0.91830   0.76790   0.01267  Uiso   1.00
H143   H     0.98530   0.83150   0.73460   0.01267  Uiso   1.00
H144   H     0.03320   0.88160   0.70300   0.01267  Uiso   1.00
C151   C     0.11270   0.81740   0.77130   0.01267  Uiso   1.00
C152   C     0.03410   0.87820   0.74710   0.01267  Uiso   1.00
N12    N     0.11450   0.88320   0.80470   0.01267  Uiso   1.00
H145   H     0.31590   0.50740   0.49070   0.01267  Uiso   1.00
H146   H     0.30570   0.48730   0.42000   0.01267  Uiso   1.00
H147   H     0.38170   0.61520   0.47010   0.01267  Uiso   1.00
H148   H     0.29510   0.58570   0.39600   0.01267  Uiso   1.00
H149   H     0.30810   0.60770   0.47300   0.01267  Uiso   1.00
H150   H     0.18110   0.40770   0.40560   0.01267  Uiso   1.00
H151   H     0.18080   0.47640   0.43080   0.01267  Uiso   1.00
H152   H     0.16990   0.45470   0.35480   0.01267  Uiso   1.00
C153   C     0.32170   0.58610   0.44580   0.01267  Uiso   1.00
C154   C     0.19720   0.45690   0.40530   0.01267  Uiso   1.00
N13    N     0.29060   0.50650   0.44370   0.01267  Uiso   1.00
H153   H     0.11040   0.18380   0.34440   0.01267  Uiso   1.00
H154   H     0.03460   0.15320   0.26980   0.01267  Uiso   1.00
H155   H     0.01250   0.19290   0.35460   0.01267  Uiso   1.00
H156   H     0.09310   0.27280   0.38470   0.01267  Uiso   1.00
H157   H     0.01250   0.24120   0.30430   0.01267  Uiso   1.00
H158   H     0.15040   0.23210   0.26630   0.01267  Uiso   1.00
H159   H     0.09690   0.26540   0.25070   0.01267  Uiso   1.00
H160   H     0.17860   0.29700   0.33020   0.01267  Uiso   1.00
C155   C     0.04610   0.22870   0.34140   0.01267  Uiso   1.00
C156   C     0.13110   0.25290   0.28700   0.01267  Uiso   1.00
N14    N     0.07850   0.19530   0.30980   0.01267  Uiso   1.00
H161   H     0.68410   0.17480   0.19150   0.01267  Uiso   1.00
H162   H     0.69430   0.11430   0.18160   0.01267  Uiso   1.00
H163   H     0.61830   0.08840   0.23350   0.01267  Uiso   1.00
H164   H     0.70490   0.10090   0.29060   0.01267  Uiso   1.00
H165   H     0.69190   0.16490   0.29960   0.01267  Uiso   1.00
H166   H     0.81890   0.22450   0.22660   0.01267  Uiso   1.00
H167   H     0.81920   0.25000   0.29560   0.01267  Uiso   1.00
H168   H     0.83010   0.18490   0.28480   0.01267  Uiso   1.00
C157   C     0.67830   0.12410   0.26440   0.01267  Uiso   1.00
C158   C     0.80280   0.20810   0.25970   0.01267  Uiso   1.00
N15    N     0.70940   0.15310   0.21590   0.01267  Uiso   1.00
H169   H     0.88960   0.23400   0.07340   0.01267  Uiso   1.00
H170   H     0.96540   0.23520   0.11860   0.01267  Uiso   1.00
H171   H     0.98750   0.34210   0.18040   0.01267  Uiso   1.00
H172   H     0.90690   0.29160   0.17970   0.01267  Uiso   1.00
H173   H     0.98750   0.29180   0.22870   0.01267  Uiso   1.00
H174   H     0.84960   0.11590   0.08170   0.01267  Uiso   1.00
H175   H     0.90310   0.15380   0.16850   0.01267  Uiso   1.00
H176   H     0.82140   0.15160   0.11840   0.01267  Uiso   1.00
C159   C     0.95390   0.29530   0.18260   0.01267  Uiso   1.00
C160   C     0.86890   0.15590   0.12180   0.01267  Uiso   1.00
N16    N     0.92150   0.23130   0.11680   0.01267  Uiso   1.00
