data_HAFWUI01_charged
_audit_creation_date              2014-07-02
_audit_creation_method            'Materials Studio'
_symmetry_space_group_name_H-M    'P1'
_symmetry_Int_Tables_number       1
_symmetry_cell_setting            triclinic
loop_
_symmetry_equiv_pos_as_xyz
  x,y,z
_cell_length_a                    11.8062
_cell_length_b                    12.2694
_cell_length_c                    19.4114
_cell_angle_alpha                 94.0237
_cell_angle_beta                  90.0000
_cell_angle_gamma                 118.7590
loop_
_atom_site_label
_atom_site_type_symbol
_atom_site_fract_x
_atom_site_fract_y
_atom_site_fract_z
_atom_site_U_iso_or_equiv
_atom_site_adp_type
_atom_site_occupancy
Na1    Na    0.40269  -0.00000   0.75000   0.01267  Uiso   1.00
Na2    Na    0.59731  -0.00000   0.25000   0.01267  Uiso   1.00
Co1    Co    0.37492   0.75248   0.83831   0.01267  Uiso   1.00
Co2    Co    0.62244   0.24752   0.66169   0.01267  Uiso   1.00
Co3    Co    0.62508   0.24752   0.16169   0.01267  Uiso   1.00
Co4    Co    0.37756   0.75248   0.33831   0.01267  Uiso   1.00
H1     H     0.37120   0.03600   0.97980   0.01267  Uiso   1.00
H2     H     0.26060   0.77500   0.11490   0.01267  Uiso   1.00
H3     H     0.11690   0.62860   0.03250   0.01267  Uiso   1.00
H4     H     0.98270   0.38480   0.81190   0.01267  Uiso   1.00
H5     H     0.79170   0.57920   0.82880   0.01267  Uiso   1.00
H6     H     0.95350   0.72720   0.90240   0.01267  Uiso   1.00
H7     H     0.33520   0.96400   0.52020   0.01267  Uiso   1.00
H8     H     0.48560   0.22500   0.38510   0.01267  Uiso   1.00
H9     H     0.48830   0.37140   0.46750   0.01267  Uiso   1.00
H10    H     0.59790   0.61520   0.68810   0.01267  Uiso   1.00
H11    H     0.21250   0.42080   0.67120   0.01267  Uiso   1.00
H12    H     0.22630   0.27280   0.59760   0.01267  Uiso   1.00
H13    H     0.62880   0.96400   0.02020   0.01267  Uiso   1.00
H14    H     0.73940   0.22500   0.88510   0.01267  Uiso   1.00
H15    H     0.88310   0.37140   0.96750   0.01267  Uiso   1.00
H16    H     0.01730   0.61520   0.18810   0.01267  Uiso   1.00
H17    H     0.20830   0.42080   0.17120   0.01267  Uiso   1.00
H18    H     0.04650   0.27280   0.09760   0.01267  Uiso   1.00
H19    H     0.66480   0.03600   0.47980   0.01267  Uiso   1.00
H20    H     0.51440   0.77500   0.61490   0.01267  Uiso   1.00
H21    H     0.51170   0.62860   0.53250   0.01267  Uiso   1.00
H22    H     0.40210   0.38480   0.31190   0.01267  Uiso   1.00
H23    H     0.78750   0.57920   0.32880   0.01267  Uiso   1.00
H24    H     0.77370   0.72720   0.40240   0.01267  Uiso   1.00
C1     C     0.16281   0.74122   0.95488   0.01267  Uiso   1.00
C2     C     0.23995   0.86450   0.93883   0.01267  Uiso   1.00
C3     C     0.32233   0.95326   0.98990   0.01267  Uiso   1.00
C4     C     0.33227   0.91994   0.05542   0.01267  Uiso   1.00
C5     C     0.25523   0.79806   0.07091   0.01267  Uiso   1.00
C6     C     0.16989   0.70978   0.02113   0.01267  Uiso   1.00
C7     C     0.06599   0.64558   0.90351   0.01267  Uiso   1.00
C8     C     0.07454   0.54108   0.87649   0.01267  Uiso   1.00
C9     C     0.97681   0.45362   0.83076   0.01267  Uiso   1.00
C10    C     0.87114   0.46728   0.81297   0.01267  Uiso   1.00
C11    C     0.86270   0.56960   0.84030   0.01267  Uiso   1.00
C12    C     0.95962   0.65784   0.88470   0.01267  Uiso   1.00
C13    C     0.24744   0.90188   0.86591   0.01267  Uiso   1.00
C14    C     0.42919   0.01298   0.10963   0.01267  Uiso   1.00
C15    C     0.18485   0.51850   0.89529   0.01267  Uiso   1.00
C16    C     0.76748   0.37656   0.76188   0.01267  Uiso   1.00
C17    C     0.42159   0.25878   0.54512   0.01267  Uiso   1.00
C18    C     0.37545   0.13550   0.56117   0.01267  Uiso   1.00
C19    C     0.36907   0.04674   0.51010   0.01267  Uiso   1.00
C20    C     0.41233   0.08006   0.44458   0.01267  Uiso   1.00
C21    C     0.45717   0.20194   0.42909   0.01267  Uiso   1.00
C22    C     0.46011   0.29022   0.47887   0.01267  Uiso   1.00
C23    C     0.42041   0.35442   0.59649   0.01267  Uiso   1.00
C24    C     0.53346   0.45892   0.62351   0.01267  Uiso   1.00
C25    C     0.52319   0.54638   0.66924   0.01267  Uiso   1.00
C26    C     0.40386   0.53272   0.68703   0.01267  Uiso   1.00
C27    C     0.29310   0.43040   0.65970   0.01267  Uiso   1.00
C28    C     0.30178   0.34216   0.61530   0.01267  Uiso   1.00
C29    C     0.34556   0.09812   0.63409   0.01267  Uiso   1.00
C30    C     0.41621   0.98702   0.39037   0.01267  Uiso   1.00
C31    C     0.66635   0.48150   0.60471   0.01267  Uiso   1.00
C32    C     0.39092   0.62344   0.73812   0.01267  Uiso   1.00
C33    C     0.83719   0.25878   0.04512   0.01267  Uiso   1.00
C34    C     0.76005   0.13550   0.06117   0.01267  Uiso   1.00
C35    C     0.67767   0.04674   0.01010   0.01267  Uiso   1.00
C36    C     0.66773   0.08006   0.94458   0.01267  Uiso   1.00
C37    C     0.74477   0.20194   0.92909   0.01267  Uiso   1.00
C38    C     0.83011   0.29022   0.97887   0.01267  Uiso   1.00
C39    C     0.93401   0.35442   0.09649   0.01267  Uiso   1.00
C40    C     0.92546   0.45892   0.12351   0.01267  Uiso   1.00
C41    C     0.02319   0.54638   0.16924   0.01267  Uiso   1.00
C42    C     0.12886   0.53272   0.18703   0.01267  Uiso   1.00
C43    C     0.13730   0.43040   0.15970   0.01267  Uiso   1.00
C44    C     0.04038   0.34216   0.11530   0.01267  Uiso   1.00
C45    C     0.75256   0.09812   0.13409   0.01267  Uiso   1.00
C46    C     0.57081   0.98702   0.89037   0.01267  Uiso   1.00
C47    C     0.81515   0.48150   0.10471   0.01267  Uiso   1.00
C48    C     0.23252   0.62344   0.23812   0.01267  Uiso   1.00
C49    C     0.57841   0.74122   0.45488   0.01267  Uiso   1.00
C50    C     0.62455   0.86450   0.43883   0.01267  Uiso   1.00
C51    C     0.63093   0.95326   0.48990   0.01267  Uiso   1.00
C52    C     0.58767   0.91994   0.55542   0.01267  Uiso   1.00
C53    C     0.54283   0.79806   0.57091   0.01267  Uiso   1.00
C54    C     0.53989   0.70978   0.52113   0.01267  Uiso   1.00
C55    C     0.57959   0.64558   0.40351   0.01267  Uiso   1.00
C56    C     0.46654   0.54108   0.37649   0.01267  Uiso   1.00
C57    C     0.47681   0.45362   0.33076   0.01267  Uiso   1.00
C58    C     0.59614   0.46728   0.31297   0.01267  Uiso   1.00
C59    C     0.70690   0.56960   0.34030   0.01267  Uiso   1.00
C60    C     0.69822   0.65784   0.38470   0.01267  Uiso   1.00
C61    C     0.65444   0.90188   0.36591   0.01267  Uiso   1.00
C62    C     0.58379   0.01298   0.60963   0.01267  Uiso   1.00
C63    C     0.33365   0.51850   0.39529   0.01267  Uiso   1.00
C64    C     0.60908   0.37656   0.26188   0.01267  Uiso   1.00
O1     O     0.23738   0.99336   0.85316   0.01267  Uiso   1.00
O2     O     0.26938   0.83526   0.81933   0.01267  Uiso   1.00
O3     O     0.48898   0.12556   0.09442   0.01267  Uiso   1.00
O4     O     0.44590   0.97600   0.16391   0.01267  Uiso   1.00
O5     O     0.29966   0.60884   0.89626   0.01267  Uiso   1.00
O6     O     0.15789   0.41318   0.90923   0.01267  Uiso   1.00
O7     O     0.66519   0.38058   0.75517   0.01267  Uiso   1.00
O8     O     0.78837   0.30074   0.72583   0.01267  Uiso   1.00
O9     O     0.24402   0.00664   0.64684   0.01267  Uiso   1.00
O10    O     0.43412   0.16474   0.68067   0.01267  Uiso   1.00
O11    O     0.36342   0.87444   0.40558   0.01267  Uiso   1.00
O12    O     0.46990   0.02400   0.33609   0.01267  Uiso   1.00
O13    O     0.69082   0.39116   0.60374   0.01267  Uiso   1.00
O14    O     0.74471   0.58682   0.59077   0.01267  Uiso   1.00
O15    O     0.28461   0.61942   0.74483   0.01267  Uiso   1.00
O16    O     0.48763   0.69926   0.77417   0.01267  Uiso   1.00
O17    O     0.76262   0.00664   0.14684   0.01267  Uiso   1.00
O18    O     0.73062   0.16474   0.18067   0.01267  Uiso   1.00
O19    O     0.51102   0.87444   0.90558   0.01267  Uiso   1.00
O20    O     0.55410   0.02400   0.83609   0.01267  Uiso   1.00
O21    O     0.70034   0.39116   0.10374   0.01267  Uiso   1.00
O22    O     0.84211   0.58682   0.09077   0.01267  Uiso   1.00
O23    O     0.33481   0.61942   0.24483   0.01267  Uiso   1.00
O24    O     0.21163   0.69926   0.27417   0.01267  Uiso   1.00
O25    O     0.75598   0.99336   0.35316   0.01267  Uiso   1.00
O26    O     0.56588   0.83526   0.31933   0.01267  Uiso   1.00
O27    O     0.63658   0.12556   0.59442   0.01267  Uiso   1.00
O28    O     0.53010   0.97600   0.66391   0.01267  Uiso   1.00
O29    O     0.30918   0.60884   0.39626   0.01267  Uiso   1.00
O30    O     0.25529   0.41318   0.40923   0.01267  Uiso   1.00
O31    O     0.71539   0.38058   0.25517   0.01267  Uiso   1.00
O32    O     0.51237   0.30074   0.22583   0.01267  Uiso   1.00
H25    H     0.30340   0.37400   0.93810   0.01267  Uiso   1.00
H26    H     0.55850   0.27560   0.87010   0.01267  Uiso   1.00
H27    H     0.56390   0.27980   0.99570   0.01267  Uiso   1.00
H28    H     0.31910   0.36580   0.81030   0.01267  Uiso   1.00
H29    H     0.46090   0.40460   0.78930   0.01267  Uiso   1.00
H30    H     0.35500   0.26360   0.78240   0.01267  Uiso   1.00
H31    H     0.46540   0.36520   0.09370   0.01267  Uiso   1.00
H32    H     0.37110   0.41340   0.07040   0.01267  Uiso   1.00
H33    H     0.26120   0.23980   0.13120   0.01267  Uiso   1.00
H34    H     0.20500   0.21000   0.05490   0.01267  Uiso   1.00
H35    H     0.29920   0.16180   0.07800   0.01267  Uiso   1.00
C65    C     0.36760   0.35060   0.93687   0.01267  Uiso   1.00
C66    C     0.50831   0.29602   0.89971   0.01267  Uiso   1.00
C67    C     0.51170   0.29840   0.96845   0.01267  Uiso   1.00
C68    C     0.38550   0.34180   0.80940   0.01267  Uiso   1.00
C69    C     0.39098   0.34536   0.06387   0.01267  Uiso   1.00
C70    C     0.27930   0.22900   0.08370   0.01267  Uiso   1.00
N1     N     0.41838   0.32876   0.88039   0.01267  Uiso   1.00
N2     N     0.42320   0.33380   0.99129   0.01267  Uiso   1.00
H36    H     0.92940   0.62600   0.56190   0.01267  Uiso   1.00
H37    H     0.28290   0.72440   0.62990   0.01267  Uiso   1.00
H38    H     0.28410   0.72020   0.50430   0.01267  Uiso   1.00
H39    H     0.95330   0.63420   0.68970   0.01267  Uiso   1.00
H40    H     0.05630   0.59540   0.71070   0.01267  Uiso   1.00
H41    H     0.09140   0.73640   0.71760   0.01267  Uiso   1.00
H42    H     0.10020   0.63480   0.40630   0.01267  Uiso   1.00
H43    H     0.95770   0.58660   0.42960   0.01267  Uiso   1.00
H44    H     0.02140   0.76020   0.36880   0.01267  Uiso   1.00
H45    H     0.99500   0.79000   0.44510   0.01267  Uiso   1.00
H46    H     0.13740   0.83820   0.42200   0.01267  Uiso   1.00
C71    C     0.01700   0.64940   0.56313   0.01267  Uiso   1.00
C72    C     0.21229   0.70398   0.60029   0.01267  Uiso   1.00
C73    C     0.21330   0.70160   0.53155   0.01267  Uiso   1.00
C74    C     0.04370   0.65820   0.69060   0.01267  Uiso   1.00
C75    C     0.04562   0.65464   0.43613   0.01267  Uiso   1.00
C76    C     0.05030   0.77100   0.41630   0.01267  Uiso   1.00
N3     N     0.08962   0.67124   0.61961   0.01267  Uiso   1.00
N4     N     0.08940   0.66620   0.50871   0.01267  Uiso   1.00
H47    H     0.69660   0.62600   0.06190   0.01267  Uiso   1.00
H48    H     0.44150   0.72440   0.12990   0.01267  Uiso   1.00
H49    H     0.43610   0.72020   0.00430   0.01267  Uiso   1.00
H50    H     0.68090   0.63420   0.18970   0.01267  Uiso   1.00
H51    H     0.53910   0.59540   0.21070   0.01267  Uiso   1.00
H52    H     0.64500   0.73640   0.21760   0.01267  Uiso   1.00
H53    H     0.53460   0.63480   0.90630   0.01267  Uiso   1.00
H54    H     0.62890   0.58660   0.92960   0.01267  Uiso   1.00
H55    H     0.73880   0.76020   0.86880   0.01267  Uiso   1.00
H56    H     0.79500   0.79000   0.94510   0.01267  Uiso   1.00
H57    H     0.70080   0.83820   0.92200   0.01267  Uiso   1.00
C77    C     0.63240   0.64940   0.06313   0.01267  Uiso   1.00
C78    C     0.49169   0.70398   0.10029   0.01267  Uiso   1.00
C79    C     0.48830   0.70160   0.03155   0.01267  Uiso   1.00
C80    C     0.61450   0.65820   0.19060   0.01267  Uiso   1.00
C81    C     0.60902   0.65464   0.93613   0.01267  Uiso   1.00
C82    C     0.72070   0.77100   0.91630   0.01267  Uiso   1.00
N5     N     0.58162   0.67124   0.11961   0.01267  Uiso   1.00
N6     N     0.57680   0.66620   0.00871   0.01267  Uiso   1.00
H58    H     0.07060   0.37400   0.43810   0.01267  Uiso   1.00
H59    H     0.71710   0.27560   0.37010   0.01267  Uiso   1.00
H60    H     0.71590   0.27980   0.49570   0.01267  Uiso   1.00
H61    H     0.04670   0.36580   0.31030   0.01267  Uiso   1.00
H62    H     0.94370   0.40460   0.28930   0.01267  Uiso   1.00
H63    H     0.90860   0.26360   0.28240   0.01267  Uiso   1.00
H64    H     0.89980   0.36520   0.59370   0.01267  Uiso   1.00
H65    H     0.04230   0.41340   0.57040   0.01267  Uiso   1.00
H66    H     0.97860   0.23980   0.63120   0.01267  Uiso   1.00
H67    H     0.00500   0.21000   0.55490   0.01267  Uiso   1.00
H68    H     0.86260   0.16180   0.57800   0.01267  Uiso   1.00
C83    C     0.98300   0.35060   0.43687   0.01267  Uiso   1.00
C84    C     0.78771   0.29602   0.39971   0.01267  Uiso   1.00
C85    C     0.78670   0.29840   0.46845   0.01267  Uiso   1.00
C86    C     0.95630   0.34180   0.30940   0.01267  Uiso   1.00
C87    C     0.95438   0.34536   0.56387   0.01267  Uiso   1.00
C88    C     0.94970   0.22900   0.58370   0.01267  Uiso   1.00
N7     N     0.91038   0.32876   0.38039   0.01267  Uiso   1.00
N8     N     0.91060   0.33380   0.49129   0.01267  Uiso   1.00
