data_image0
_cell_length_a       19.75
_cell_length_b       22.1947
_cell_length_c       11.6334
_cell_angle_alpha    90
_cell_angle_beta     116.797
_cell_angle_gamma    90

_symmetry_space_group_name_H-M    "P 1"
_symmetry_int_tables_number       1

loop_
  _symmetry_equiv_pos_as_xyz
  'x, y, z'

loop_
  _atom_site_label
  _atom_site_occupancy
  _atom_site_fract_x
  _atom_site_fract_y
  _atom_site_fract_z
  _atom_site_thermal_displace_type
  _atom_site_B_iso_or_equiv
  _atom_site_type_symbol
  Ni1      1.0000 0.18730  0.12067  0.88351  Biso   1.000  Ni
  O1       1.0000 0.18829  0.12079  0.69900  Biso   1.000  O
  O2       1.0000 0.26629  0.17700  0.86020  Biso   1.000  O
  O3       1.0000 0.26418  0.05031  0.93500  Biso   1.000  O
  O4       1.0000 0.11417  0.05005  0.85970  Biso   1.000  O
  N1       1.0000 0.21753  0.13819  0.07280  Biso   1.000  N
  N2       1.0000 0.35910  0.20858  0.52770  Biso   1.000  N
  N3       1.0000 0.59612  0.32094  0.81190  Biso   1.000  N
  C1       1.0000 0.17220  0.12900  0.12820  Biso   1.000  C
  H1       1.0000 0.12390  0.11370  0.07830  Biso   1.000  H
  C2       1.0000 0.19400  0.14120  0.25670  Biso   1.000  C
  H2       1.0000 0.16060  0.13430  0.29140  Biso   1.000  H
  C3       1.0000 0.26660  0.16410  0.33430  Biso   1.000  C
  C4       1.0000 0.31240  0.17430  0.27490  Biso   1.000  C
  H3       1.0000 0.36070  0.19040  0.32140  Biso   1.000  H
  C5       1.0000 0.28610  0.16040  0.14610  Biso   1.000  C
  H4       1.0000 0.31820  0.16700  0.10850  Biso   1.000  H
  C6       1.0000 0.29380  0.17800  0.47250  Biso   1.000  C
  C7       1.0000 0.25450  0.15960  0.54080  Biso   1.000  C
  H5       1.0000 0.20930  0.13820  0.50020  Biso   1.000  H
  C8       1.0000 0.28430  0.17410  0.67020  Biso   1.000  C
  C9       1.0000 0.35250  0.20470  0.72840  Biso   1.000  C
  H6       1.0000 0.37390  0.21420  0.81550  Biso   1.000  H
  C10      1.0000 0.38890  0.22110  0.65410  Biso   1.000  C
  C11      1.0000 0.46120  0.25430  0.70950  Biso   1.000  C
  C12      1.0000 0.51970  0.24170  0.83040  Biso   1.000  C
  H7       1.0000 0.51440  0.21080  0.88000  Biso   1.000  H
  C13      1.0000 0.58540  0.27500  0.87650  Biso   1.000  C
  H8       1.0000 0.62440  0.26510  0.95670  Biso   1.000  H
  C14      1.0000 0.53960  0.33330  0.69410  Biso   1.000  C
  H9       1.0000 0.54600  0.36490  0.64750  Biso   1.000  H
  C15      1.0000 0.47260  0.30100  0.63950  Biso   1.000  C
  H10      1.0000 0.43550  0.31030  0.55710  Biso   1.000  H
  C16      1.0000 0.24360  0.15593  0.74770  Biso   1.000  C
  Ni2      1.0000 0.68730  0.62067  0.88351  Biso   1.000  Ni
  O5       1.0000 0.68829  0.62079  0.69900  Biso   1.000  O
  O6       1.0000 0.76629  0.67700  0.86020  Biso   1.000  O
  O7       1.0000 0.76418  0.55031  0.93500  Biso   1.000  O
  O8       1.0000 0.61417  0.55005  0.85970  Biso   1.000  O
  N4       1.0000 0.71753  0.63819  0.07280  Biso   1.000  N
  N5       1.0000 0.85910  0.70858  0.52770  Biso   1.000  N
  N6       1.0000 0.09612  0.82094  0.81190  Biso   1.000  N
  C17      1.0000 0.67220  0.62900  0.12820  Biso   1.000  C
  H11      1.0000 0.62390  0.61370  0.07830  Biso   1.000  H
  C18      1.0000 0.69400  0.64120  0.25670  Biso   1.000  C
  H12      1.0000 0.66060  0.63430  0.29140  Biso   1.000  H
  C19      1.0000 0.76660  0.66410  0.33430  Biso   1.000  C
  C20      1.0000 0.81240  0.67430  0.27490  Biso   1.000  C
  H13      1.0000 0.86070  0.69040  0.32140  Biso   1.000  H
  C21      1.0000 0.78610  0.66040  0.14610  Biso   1.000  C
  H14      1.0000 0.81820  0.66700  0.10850  Biso   1.000  H
  C22      1.0000 0.79380  0.67800  0.47250  Biso   1.000  C
  C23      1.0000 0.75450  0.65960  0.54080  Biso   1.000  C
  H15      1.0000 0.70930  0.63820  0.50020  Biso   1.000  H
  C24      1.0000 0.78430  0.67410  0.67020  Biso   1.000  C
  C25      1.0000 0.85250  0.70470  0.72840  Biso   1.000  C
  H16      1.0000 0.87390  0.71420  0.81550  Biso   1.000  H
  C26      1.0000 0.88890  0.72110  0.65410  Biso   1.000  C
  C27      1.0000 0.96120  0.75430  0.70950  Biso   1.000  C
  C28      1.0000 0.01970  0.74170  0.83040  Biso   1.000  C
  H17      1.0000 0.01440  0.71080  0.88000  Biso   1.000  H
  C29      1.0000 0.08540  0.77500  0.87650  Biso   1.000  C
  H18      1.0000 0.12440  0.76510  0.95670  Biso   1.000  H
  C30      1.0000 0.03960  0.83330  0.69410  Biso   1.000  C
  H19      1.0000 0.04600  0.86490  0.64750  Biso   1.000  H
  C31      1.0000 0.97260  0.80100  0.63950  Biso   1.000  C
  H20      1.0000 0.93550  0.81030  0.55710  Biso   1.000  H
  C32      1.0000 0.74360  0.65593  0.74770  Biso   1.000  C
  Ni3      1.0000 0.18730  0.87933  0.88351  Biso   1.000  Ni
  O9       1.0000 0.18829  0.87921  0.69900  Biso   1.000  O
  O10      1.0000 0.26629  0.82300  0.86020  Biso   1.000  O
  O11      1.0000 0.26418  0.94969  0.93500  Biso   1.000  O
  O12      1.0000 0.11417  0.94995  0.85970  Biso   1.000  O
  N7       1.0000 0.21753  0.86181  0.07280  Biso   1.000  N
  N8       1.0000 0.35910  0.79142  0.52770  Biso   1.000  N
  N9       1.0000 0.59612  0.67906  0.81190  Biso   1.000  N
  C33      1.0000 0.17220  0.87100  0.12820  Biso   1.000  C
  H21      1.0000 0.12390  0.88630  0.07830  Biso   1.000  H
  C34      1.0000 0.19400  0.85880  0.25670  Biso   1.000  C
  H22      1.0000 0.16060  0.86570  0.29140  Biso   1.000  H
  C35      1.0000 0.26660  0.83590  0.33430  Biso   1.000  C
  C36      1.0000 0.31240  0.82570  0.27490  Biso   1.000  C
  H23      1.0000 0.36070  0.80960  0.32140  Biso   1.000  H
  C37      1.0000 0.28610  0.83960  0.14610  Biso   1.000  C
  H24      1.0000 0.31820  0.83300  0.10850  Biso   1.000  H
  C38      1.0000 0.29380  0.82200  0.47250  Biso   1.000  C
  C39      1.0000 0.25450  0.84040  0.54080  Biso   1.000  C
  H25      1.0000 0.20930  0.86180  0.50020  Biso   1.000  H
  C40      1.0000 0.28430  0.82590  0.67020  Biso   1.000  C
  C41      1.0000 0.35250  0.79530  0.72840  Biso   1.000  C
  H26      1.0000 0.37390  0.78580  0.81550  Biso   1.000  H
  C42      1.0000 0.38890  0.77890  0.65410  Biso   1.000  C
  C43      1.0000 0.46120  0.74570  0.70950  Biso   1.000  C
  C44      1.0000 0.51970  0.75830  0.83040  Biso   1.000  C
  H27      1.0000 0.51440  0.78920  0.88000  Biso   1.000  H
  C45      1.0000 0.58540  0.72500  0.87650  Biso   1.000  C
  H28      1.0000 0.62440  0.73490  0.95670  Biso   1.000  H
  C46      1.0000 0.53960  0.66670  0.69410  Biso   1.000  C
  H29      1.0000 0.54600  0.63510  0.64750  Biso   1.000  H
  C47      1.0000 0.47260  0.69900  0.63950  Biso   1.000  C
  H30      1.0000 0.43550  0.68970  0.55710  Biso   1.000  H
  C48      1.0000 0.24360  0.84407  0.74770  Biso   1.000  C
  Ni4      1.0000 0.68730  0.37933  0.88351  Biso   1.000  Ni
  O13      1.0000 0.68829  0.37921  0.69900  Biso   1.000  O
  O14      1.0000 0.76629  0.32300  0.86020  Biso   1.000  O
  O15      1.0000 0.76418  0.44969  0.93500  Biso   1.000  O
  O16      1.0000 0.61417  0.44995  0.85970  Biso   1.000  O
  N10      1.0000 0.71753  0.36181  0.07280  Biso   1.000  N
  N11      1.0000 0.85910  0.29142  0.52770  Biso   1.000  N
  N12      1.0000 0.09612  0.17906  0.81190  Biso   1.000  N
  C49      1.0000 0.67220  0.37100  0.12820  Biso   1.000  C
  H31      1.0000 0.62390  0.38630  0.07830  Biso   1.000  H
  C50      1.0000 0.69400  0.35880  0.25670  Biso   1.000  C
  H32      1.0000 0.66060  0.36570  0.29140  Biso   1.000  H
  C51      1.0000 0.76660  0.33590  0.33430  Biso   1.000  C
  C52      1.0000 0.81240  0.32570  0.27490  Biso   1.000  C
  H33      1.0000 0.86070  0.30960  0.32140  Biso   1.000  H
  C53      1.0000 0.78610  0.33960  0.14610  Biso   1.000  C
  H34      1.0000 0.81820  0.33300  0.10850  Biso   1.000  H
  C54      1.0000 0.79380  0.32200  0.47250  Biso   1.000  C
  C55      1.0000 0.75450  0.34040  0.54080  Biso   1.000  C
  H35      1.0000 0.70930  0.36180  0.50020  Biso   1.000  H
  C56      1.0000 0.78430  0.32590  0.67020  Biso   1.000  C
  C57      1.0000 0.85250  0.29530  0.72840  Biso   1.000  C
  H36      1.0000 0.87390  0.28580  0.81550  Biso   1.000  H
  C58      1.0000 0.88890  0.27890  0.65410  Biso   1.000  C
  C59      1.0000 0.96120  0.24570  0.70950  Biso   1.000  C
  C60      1.0000 0.01970  0.25830  0.83040  Biso   1.000  C
  H37      1.0000 0.01440  0.28920  0.88000  Biso   1.000  H
  C61      1.0000 0.08540  0.22500  0.87650  Biso   1.000  C
  H38      1.0000 0.12440  0.23490  0.95670  Biso   1.000  H
  C62      1.0000 0.03960  0.16670  0.69410  Biso   1.000  C
  H39      1.0000 0.04600  0.13510  0.64750  Biso   1.000  H
  C63      1.0000 0.97260  0.19900  0.63950  Biso   1.000  C
  H40      1.0000 0.93550  0.18970  0.55710  Biso   1.000  H
  C64      1.0000 0.74360  0.34407  0.74770  Biso   1.000  C
  C65      1.0000 0.14610  0.00000  0.87580  Biso   1.000  C
  C66      1.0000 0.23320  0.00000  0.91950  Biso   1.000  C
  C67      1.0000 0.64610  0.50000  0.87580  Biso   1.000  C
  C68      1.0000 0.73320  0.50000  0.91950  Biso   1.000  C
  Ni5      1.0000 0.81270  0.12067  0.11649  Biso   1.000  Ni
  O17      1.0000 0.81171  0.12079  0.30100  Biso   1.000  O
  O18      1.0000 0.73371  0.17700  0.13980  Biso   1.000  O
  O19      1.0000 0.73582  0.05031  0.06500  Biso   1.000  O
  O20      1.0000 0.88583  0.05005  0.14030  Biso   1.000  O
  N13      1.0000 0.78247  0.13819  0.92720  Biso   1.000  N
  N14      1.0000 0.64090  0.20858  0.47230  Biso   1.000  N
  N15      1.0000 0.40388  0.32094  0.18810  Biso   1.000  N
  C69      1.0000 0.82780  0.12900  0.87180  Biso   1.000  C
  H41      1.0000 0.87610  0.11370  0.92170  Biso   1.000  H
  C70      1.0000 0.80600  0.14120  0.74330  Biso   1.000  C
  H42      1.0000 0.83940  0.13430  0.70860  Biso   1.000  H
  C71      1.0000 0.73340  0.16410  0.66570  Biso   1.000  C
  C72      1.0000 0.68760  0.17430  0.72510  Biso   1.000  C
  H43      1.0000 0.63930  0.19040  0.67860  Biso   1.000  H
  C73      1.0000 0.71390  0.16040  0.85390  Biso   1.000  C
  H44      1.0000 0.68180  0.16700  0.89150  Biso   1.000  H
  C74      1.0000 0.70620  0.17800  0.52750  Biso   1.000  C
  C75      1.0000 0.74550  0.15960  0.45920  Biso   1.000  C
  H45      1.0000 0.79070  0.13820  0.49980  Biso   1.000  H
  C76      1.0000 0.71570  0.17410  0.32980  Biso   1.000  C
  C77      1.0000 0.64750  0.20470  0.27160  Biso   1.000  C
  H46      1.0000 0.62610  0.21420  0.18450  Biso   1.000  H
  C78      1.0000 0.61110  0.22110  0.34590  Biso   1.000  C
  C79      1.0000 0.53880  0.25430  0.29050  Biso   1.000  C
  C80      1.0000 0.48030  0.24170  0.16960  Biso   1.000  C
  H47      1.0000 0.48560  0.21080  0.12000  Biso   1.000  H
  C81      1.0000 0.41460  0.27500  0.12350  Biso   1.000  C
  H48      1.0000 0.37560  0.26510  0.04330  Biso   1.000  H
  C82      1.0000 0.46040  0.33330  0.30590  Biso   1.000  C
  H49      1.0000 0.45400  0.36490  0.35250  Biso   1.000  H
  C83      1.0000 0.52740  0.30100  0.36050  Biso   1.000  C
  H50      1.0000 0.56450  0.31030  0.44290  Biso   1.000  H
  C84      1.0000 0.75640  0.15593  0.25230  Biso   1.000  C
  Ni6      1.0000 0.31270  0.62067  0.11649  Biso   1.000  Ni
  O21      1.0000 0.31171  0.62079  0.30100  Biso   1.000  O
  O22      1.0000 0.23371  0.67700  0.13980  Biso   1.000  O
  O23      1.0000 0.23582  0.55031  0.06500  Biso   1.000  O
  O24      1.0000 0.38583  0.55005  0.14030  Biso   1.000  O
  N16      1.0000 0.28247  0.63819  0.92720  Biso   1.000  N
  N17      1.0000 0.14090  0.70858  0.47230  Biso   1.000  N
  N18      1.0000 0.90388  0.82094  0.18810  Biso   1.000  N
  C85      1.0000 0.32780  0.62900  0.87180  Biso   1.000  C
  H51      1.0000 0.37610  0.61370  0.92170  Biso   1.000  H
  C86      1.0000 0.30600  0.64120  0.74330  Biso   1.000  C
  H52      1.0000 0.33940  0.63430  0.70860  Biso   1.000  H
  C87      1.0000 0.23340  0.66410  0.66570  Biso   1.000  C
  C88      1.0000 0.18760  0.67430  0.72510  Biso   1.000  C
  H53      1.0000 0.13930  0.69040  0.67860  Biso   1.000  H
  C89      1.0000 0.21390  0.66040  0.85390  Biso   1.000  C
  H54      1.0000 0.18180  0.66700  0.89150  Biso   1.000  H
  C90      1.0000 0.20620  0.67800  0.52750  Biso   1.000  C
  C91      1.0000 0.24550  0.65960  0.45920  Biso   1.000  C
  H55      1.0000 0.29070  0.63820  0.49980  Biso   1.000  H
  C92      1.0000 0.21570  0.67410  0.32980  Biso   1.000  C
  C93      1.0000 0.14750  0.70470  0.27160  Biso   1.000  C
  H56      1.0000 0.12610  0.71420  0.18450  Biso   1.000  H
  C94      1.0000 0.11110  0.72110  0.34590  Biso   1.000  C
  C95      1.0000 0.03880  0.75430  0.29050  Biso   1.000  C
  C96      1.0000 0.98030  0.74170  0.16960  Biso   1.000  C
  H57      1.0000 0.98560  0.71080  0.12000  Biso   1.000  H
  C97      1.0000 0.91460  0.77500  0.12350  Biso   1.000  C
  H58      1.0000 0.87560  0.76510  0.04330  Biso   1.000  H
  C98      1.0000 0.96040  0.83330  0.30590  Biso   1.000  C
  H59      1.0000 0.95400  0.86490  0.35250  Biso   1.000  H
  C99      1.0000 0.02740  0.80100  0.36050  Biso   1.000  C
  H60      1.0000 0.06450  0.81030  0.44290  Biso   1.000  H
  C100     1.0000 0.25640  0.65593  0.25230  Biso   1.000  C
  Ni7      1.0000 0.81270  0.87933  0.11649  Biso   1.000  Ni
  O25      1.0000 0.81171  0.87921  0.30100  Biso   1.000  O
  O26      1.0000 0.73371  0.82300  0.13980  Biso   1.000  O
  O27      1.0000 0.73582  0.94969  0.06500  Biso   1.000  O
  O28      1.0000 0.88583  0.94995  0.14030  Biso   1.000  O
  N19      1.0000 0.78247  0.86181  0.92720  Biso   1.000  N
  N20      1.0000 0.64090  0.79142  0.47230  Biso   1.000  N
  N21      1.0000 0.40388  0.67906  0.18810  Biso   1.000  N
  C101     1.0000 0.82780  0.87100  0.87180  Biso   1.000  C
  H61      1.0000 0.87610  0.88630  0.92170  Biso   1.000  H
  C102     1.0000 0.80600  0.85880  0.74330  Biso   1.000  C
  H62      1.0000 0.83940  0.86570  0.70860  Biso   1.000  H
  C103     1.0000 0.73340  0.83590  0.66570  Biso   1.000  C
  C104     1.0000 0.68760  0.82570  0.72510  Biso   1.000  C
  H63      1.0000 0.63930  0.80960  0.67860  Biso   1.000  H
  C105     1.0000 0.71390  0.83960  0.85390  Biso   1.000  C
  H64      1.0000 0.68180  0.83300  0.89150  Biso   1.000  H
  C106     1.0000 0.70620  0.82200  0.52750  Biso   1.000  C
  C107     1.0000 0.74550  0.84040  0.45920  Biso   1.000  C
  H65      1.0000 0.79070  0.86180  0.49980  Biso   1.000  H
  C108     1.0000 0.71570  0.82590  0.32980  Biso   1.000  C
  C109     1.0000 0.64750  0.79530  0.27160  Biso   1.000  C
  H66      1.0000 0.62610  0.78580  0.18450  Biso   1.000  H
  C110     1.0000 0.61110  0.77890  0.34590  Biso   1.000  C
  C111     1.0000 0.53880  0.74570  0.29050  Biso   1.000  C
  C112     1.0000 0.48030  0.75830  0.16960  Biso   1.000  C
  H67      1.0000 0.48560  0.78920  0.12000  Biso   1.000  H
  C113     1.0000 0.41460  0.72500  0.12350  Biso   1.000  C
  H68      1.0000 0.37560  0.73490  0.04330  Biso   1.000  H
  C114     1.0000 0.46040  0.66670  0.30590  Biso   1.000  C
  H69      1.0000 0.45400  0.63510  0.35250  Biso   1.000  H
  C115     1.0000 0.52740  0.69900  0.36050  Biso   1.000  C
  H70      1.0000 0.56450  0.68970  0.44290  Biso   1.000  H
  C116     1.0000 0.75640  0.84407  0.25230  Biso   1.000  C
  Ni8      1.0000 0.31270  0.37933  0.11649  Biso   1.000  Ni
  O29      1.0000 0.31171  0.37921  0.30100  Biso   1.000  O
  O30      1.0000 0.23371  0.32300  0.13980  Biso   1.000  O
  O31      1.0000 0.23582  0.44969  0.06500  Biso   1.000  O
  O32      1.0000 0.38583  0.44995  0.14030  Biso   1.000  O
  N22      1.0000 0.28247  0.36181  0.92720  Biso   1.000  N
  N23      1.0000 0.14090  0.29142  0.47230  Biso   1.000  N
  N24      1.0000 0.90388  0.17906  0.18810  Biso   1.000  N
  C117     1.0000 0.32780  0.37100  0.87180  Biso   1.000  C
  H71      1.0000 0.37610  0.38630  0.92170  Biso   1.000  H
  C118     1.0000 0.30600  0.35880  0.74330  Biso   1.000  C
  H72      1.0000 0.33940  0.36570  0.70860  Biso   1.000  H
  C119     1.0000 0.23340  0.33590  0.66570  Biso   1.000  C
  C120     1.0000 0.18760  0.32570  0.72510  Biso   1.000  C
  H73      1.0000 0.13930  0.30960  0.67860  Biso   1.000  H
  C121     1.0000 0.21390  0.33960  0.85390  Biso   1.000  C
  H74      1.0000 0.18180  0.33300  0.89150  Biso   1.000  H
  C122     1.0000 0.20620  0.32200  0.52750  Biso   1.000  C
  C123     1.0000 0.24550  0.34040  0.45920  Biso   1.000  C
  H75      1.0000 0.29070  0.36180  0.49980  Biso   1.000  H
  C124     1.0000 0.21570  0.32590  0.32980  Biso   1.000  C
  C125     1.0000 0.14750  0.29530  0.27160  Biso   1.000  C
  H76      1.0000 0.12610  0.28580  0.18450  Biso   1.000  H
  C126     1.0000 0.11110  0.27890  0.34590  Biso   1.000  C
  C127     1.0000 0.03880  0.24570  0.29050  Biso   1.000  C
  C128     1.0000 0.98030  0.25830  0.16960  Biso   1.000  C
  H77      1.0000 0.98560  0.28920  0.12000  Biso   1.000  H
  C129     1.0000 0.91460  0.22500  0.12350  Biso   1.000  C
  H78      1.0000 0.87560  0.23490  0.04330  Biso   1.000  H
  C130     1.0000 0.96040  0.16670  0.30590  Biso   1.000  C
  H79      1.0000 0.95400  0.13510  0.35250  Biso   1.000  H
  C131     1.0000 0.02740  0.19900  0.36050  Biso   1.000  C
  H80      1.0000 0.06450  0.18970  0.44290  Biso   1.000  H
  C132     1.0000 0.25640  0.34407  0.25230  Biso   1.000  C
  C133     1.0000 0.85390  0.00000  0.12420  Biso   1.000  C
  C134     1.0000 0.76680  0.00000  0.08050  Biso   1.000  C
  C135     1.0000 0.35390  0.50000  0.12420  Biso   1.000  C
  C136     1.0000 0.26680  0.50000  0.08050  Biso   1.000  C
