data_image0
_cell_length_a       21.599
_cell_length_b       21.599
_cell_length_c       12.196
_cell_angle_alpha    90
_cell_angle_beta     90
_cell_angle_gamma    120

_symmetry_space_group_name_H-M    "P 1"
_symmetry_int_tables_number       1

loop_
  _symmetry_equiv_pos_as_xyz
  'x, y, z'

loop_
  _atom_site_label
  _atom_site_occupancy
  _atom_site_fract_x
  _atom_site_fract_y
  _atom_site_fract_z
  _atom_site_thermal_displace_type
  _atom_site_B_iso_or_equiv
  _atom_site_type_symbol
  C1       1.0000 0.11760  0.49920  0.63440  Biso   1.000  C
  C2       1.0000 0.15800  0.60270  0.56790  Biso   1.000  C
  C3       1.0000 0.07030  0.42550  0.66670  Biso   1.000  C
  C4       1.0000 0.00130  0.40270  0.70920  Biso   1.000  C
  H1       1.0000 0.98450  0.43480  0.71270  Biso   1.000  H
  C5       1.0000 0.95900  0.33430  0.74520  Biso   1.000  C
  H2       1.0000 0.91470  0.32070  0.77620  Biso   1.000  H
  C6       1.0000 0.98110  0.28750  0.73590  Biso   1.000  C
  H3       1.0000 0.94890  0.24000  0.75220  Biso   1.000  H
  C7       1.0000 0.04740  0.30460  0.70420  Biso   1.000  C
  H4       1.0000 0.06360  0.27210  0.70830  Biso   1.000  H
  C8       1.0000 0.09190  0.37610  0.66360  Biso   1.000  C
  H5       1.0000 0.13650  0.38900  0.63450  Biso   1.000  H
  C9       1.0000 0.16270  0.66740  0.51650  Biso   1.000  C
  C10      1.0000 0.10870  0.68480  0.54040  Biso   1.000  C
  H6       1.0000 0.06920  0.65360  0.58190  Biso   1.000  H
  C11      1.0000 0.11470  0.74760  0.50220  Biso   1.000  C
  H7       1.0000 0.08060  0.76030  0.51960  Biso   1.000  H
  C12      1.0000 0.17740  0.79450  0.43210  Biso   1.000  C
  H8       1.0000 0.18250  0.83680  0.40390  Biso   1.000  H
  C13      1.0000 0.22560  0.77580  0.41030  Biso   1.000  C
  H9       1.0000 0.26430  0.80530  0.36580  Biso   1.000  H
  C14      1.0000 0.22040  0.71330  0.45170  Biso   1.000  C
  H10      1.0000 0.25590  0.70220  0.43580  Biso   1.000  H
  N1       1.0000 0.21400  0.60270  0.60730  Biso   1.000  N
  N2       1.0000 0.18780  0.53410  0.65010  Biso   1.000  N
  N3       1.0000 0.09720  0.54340  0.58290  Biso   1.000  N
  C15      1.0000 0.50080  0.61840  0.63440  Biso   1.000  C
  C16      1.0000 0.39730  0.55530  0.56790  Biso   1.000  C
  C17      1.0000 0.57450  0.64480  0.66670  Biso   1.000  C
  C18      1.0000 0.59730  0.59860  0.70920  Biso   1.000  C
  H11      1.0000 0.56520  0.54970  0.71270  Biso   1.000  H
  C19      1.0000 0.66570  0.62470  0.74520  Biso   1.000  C
  H12      1.0000 0.67930  0.59400  0.77620  Biso   1.000  H
  C20      1.0000 0.71250  0.69360  0.73590  Biso   1.000  C
  H13      1.0000 0.76000  0.70890  0.75220  Biso   1.000  H
  C21      1.0000 0.69540  0.74280  0.70420  Biso   1.000  C
  H14      1.0000 0.72790  0.79150  0.70830  Biso   1.000  H
  C22      1.0000 0.62390  0.71580  0.66360  Biso   1.000  C
  H15      1.0000 0.61100  0.74750  0.63450  Biso   1.000  H
  C23      1.0000 0.33260  0.49530  0.51650  Biso   1.000  C
  C24      1.0000 0.31520  0.42390  0.54040  Biso   1.000  C
  H16      1.0000 0.34640  0.41560  0.58190  Biso   1.000  H
  C25      1.0000 0.25240  0.36710  0.50220  Biso   1.000  C
  H17      1.0000 0.23970  0.32030  0.51960  Biso   1.000  H
  C26      1.0000 0.20550  0.38290  0.43210  Biso   1.000  C
  H18      1.0000 0.16320  0.34570  0.40390  Biso   1.000  H
  C27      1.0000 0.22420  0.44980  0.41030  Biso   1.000  C
  H19      1.0000 0.19470  0.45900  0.36580  Biso   1.000  H
  C28      1.0000 0.28670  0.50710  0.45170  Biso   1.000  C
  H20      1.0000 0.29780  0.55370  0.43580  Biso   1.000  H
  N4       1.0000 0.39730  0.61130  0.60730  Biso   1.000  N
  N5       1.0000 0.46590  0.65370  0.65010  Biso   1.000  N
  N6       1.0000 0.45660  0.55380  0.58290  Biso   1.000  N
  C29      1.0000 0.38160  0.88240  0.63440  Biso   1.000  C
  C30      1.0000 0.44470  0.84200  0.56790  Biso   1.000  C
  C31      1.0000 0.35520  0.92970  0.66670  Biso   1.000  C
  C32      1.0000 0.40140  0.99870  0.70920  Biso   1.000  C
  H21      1.0000 0.45030  0.01550  0.71270  Biso   1.000  H
  C33      1.0000 0.37530  0.04100  0.74520  Biso   1.000  C
  H22      1.0000 0.40600  0.08530  0.77620  Biso   1.000  H
  C34      1.0000 0.30640  0.01890  0.73590  Biso   1.000  C
  H23      1.0000 0.29110  0.05110  0.75220  Biso   1.000  H
  C35      1.0000 0.25720  0.95260  0.70420  Biso   1.000  C
  H24      1.0000 0.20850  0.93640  0.70830  Biso   1.000  H
  C36      1.0000 0.28420  0.90810  0.66360  Biso   1.000  C
  H25      1.0000 0.25250  0.86350  0.63450  Biso   1.000  H
  C37      1.0000 0.50470  0.83730  0.51650  Biso   1.000  C
  C38      1.0000 0.57610  0.89130  0.54040  Biso   1.000  C
  H26      1.0000 0.58440  0.93080  0.58190  Biso   1.000  H
  C39      1.0000 0.63290  0.88530  0.50220  Biso   1.000  C
  H27      1.0000 0.67970  0.91940  0.51960  Biso   1.000  H
  C40      1.0000 0.61710  0.82260  0.43210  Biso   1.000  C
  H28      1.0000 0.65430  0.81750  0.40390  Biso   1.000  H
  C41      1.0000 0.55020  0.77440  0.41030  Biso   1.000  C
  H29      1.0000 0.54100  0.73570  0.36580  Biso   1.000  H
  C42      1.0000 0.49290  0.77960  0.45170  Biso   1.000  C
  H30      1.0000 0.44630  0.74410  0.43580  Biso   1.000  H
  N7       1.0000 0.38870  0.78600  0.60730  Biso   1.000  N
  N8       1.0000 0.34630  0.81220  0.65010  Biso   1.000  N
  N9       1.0000 0.44620  0.90280  0.58290  Biso   1.000  N
  C43      1.0000 0.88240  0.50080  0.13440  Biso   1.000  C
  C44      1.0000 0.84200  0.39730  0.06790  Biso   1.000  C
  C45      1.0000 0.92970  0.57450  0.16670  Biso   1.000  C
  C46      1.0000 0.99870  0.59730  0.20920  Biso   1.000  C
  H31      1.0000 0.01550  0.56520  0.21270  Biso   1.000  H
  C47      1.0000 0.04100  0.66570  0.24520  Biso   1.000  C
  H32      1.0000 0.08530  0.67930  0.27620  Biso   1.000  H
  C48      1.0000 0.01890  0.71250  0.23590  Biso   1.000  C
  H33      1.0000 0.05110  0.76000  0.25220  Biso   1.000  H
  C49      1.0000 0.95260  0.69540  0.20420  Biso   1.000  C
  H34      1.0000 0.93640  0.72790  0.20830  Biso   1.000  H
  C50      1.0000 0.90810  0.62390  0.16360  Biso   1.000  C
  H35      1.0000 0.86350  0.61100  0.13450  Biso   1.000  H
  C51      1.0000 0.83730  0.33260  0.01650  Biso   1.000  C
  C52      1.0000 0.89130  0.31520  0.04040  Biso   1.000  C
  H36      1.0000 0.93080  0.34640  0.08190  Biso   1.000  H
  C53      1.0000 0.88530  0.25240  0.00220  Biso   1.000  C
  H37      1.0000 0.91940  0.23970  0.01960  Biso   1.000  H
  C54      1.0000 0.82260  0.20550  0.93210  Biso   1.000  C
  H38      1.0000 0.81750  0.16320  0.90390  Biso   1.000  H
  C55      1.0000 0.77440  0.22420  0.91030  Biso   1.000  C
  H39      1.0000 0.73570  0.19470  0.86580  Biso   1.000  H
  C56      1.0000 0.77960  0.28670  0.95170  Biso   1.000  C
  H40      1.0000 0.74410  0.29780  0.93580  Biso   1.000  H
  N10      1.0000 0.78600  0.39730  0.10730  Biso   1.000  N
  N11      1.0000 0.81220  0.46590  0.15010  Biso   1.000  N
  N12      1.0000 0.90280  0.45660  0.08290  Biso   1.000  N
  C57      1.0000 0.49920  0.38160  0.13440  Biso   1.000  C
  C58      1.0000 0.60270  0.44470  0.06790  Biso   1.000  C
  C59      1.0000 0.42550  0.35520  0.16670  Biso   1.000  C
  C60      1.0000 0.40270  0.40140  0.20920  Biso   1.000  C
  H41      1.0000 0.43480  0.45030  0.21270  Biso   1.000  H
  C61      1.0000 0.33430  0.37530  0.24520  Biso   1.000  C
  H42      1.0000 0.32070  0.40600  0.27620  Biso   1.000  H
  C62      1.0000 0.28750  0.30640  0.23590  Biso   1.000  C
  H43      1.0000 0.24000  0.29110  0.25220  Biso   1.000  H
  C63      1.0000 0.30460  0.25720  0.20420  Biso   1.000  C
  H44      1.0000 0.27210  0.20850  0.20830  Biso   1.000  H
  C64      1.0000 0.37610  0.28420  0.16360  Biso   1.000  C
  H45      1.0000 0.38900  0.25250  0.13450  Biso   1.000  H
  C65      1.0000 0.66740  0.50470  0.01650  Biso   1.000  C
  C66      1.0000 0.68480  0.57610  0.04040  Biso   1.000  C
  H46      1.0000 0.65360  0.58440  0.08190  Biso   1.000  H
  C67      1.0000 0.74760  0.63290  0.00220  Biso   1.000  C
  H47      1.0000 0.76030  0.67970  0.01960  Biso   1.000  H
  C68      1.0000 0.79450  0.61710  0.93210  Biso   1.000  C
  H48      1.0000 0.83680  0.65430  0.90390  Biso   1.000  H
  C69      1.0000 0.77580  0.55020  0.91030  Biso   1.000  C
  H49      1.0000 0.80530  0.54100  0.86580  Biso   1.000  H
  C70      1.0000 0.71330  0.49290  0.95170  Biso   1.000  C
  H50      1.0000 0.70220  0.44630  0.93580  Biso   1.000  H
  N13      1.0000 0.60270  0.38870  0.10730  Biso   1.000  N
  N14      1.0000 0.53410  0.34630  0.15010  Biso   1.000  N
  N15      1.0000 0.54340  0.44620  0.08290  Biso   1.000  N
  C71      1.0000 0.61840  0.11760  0.13440  Biso   1.000  C
  C72      1.0000 0.55530  0.15800  0.06790  Biso   1.000  C
  C73      1.0000 0.64480  0.07030  0.16670  Biso   1.000  C
  C74      1.0000 0.59860  0.00130  0.20920  Biso   1.000  C
  H51      1.0000 0.54970  0.98450  0.21270  Biso   1.000  H
  C75      1.0000 0.62470  0.95900  0.24520  Biso   1.000  C
  H52      1.0000 0.59400  0.91470  0.27620  Biso   1.000  H
  C76      1.0000 0.69360  0.98110  0.23590  Biso   1.000  C
  H53      1.0000 0.70890  0.94890  0.25220  Biso   1.000  H
  C77      1.0000 0.74280  0.04740  0.20420  Biso   1.000  C
  H54      1.0000 0.79150  0.06360  0.20830  Biso   1.000  H
  C78      1.0000 0.71580  0.09190  0.16360  Biso   1.000  C
  H55      1.0000 0.74750  0.13650  0.13450  Biso   1.000  H
  C79      1.0000 0.49530  0.16270  0.01650  Biso   1.000  C
  C80      1.0000 0.42390  0.10870  0.04040  Biso   1.000  C
  H56      1.0000 0.41560  0.06920  0.08190  Biso   1.000  H
  C81      1.0000 0.36710  0.11470  0.00220  Biso   1.000  C
  H57      1.0000 0.32030  0.08060  0.01960  Biso   1.000  H
  C82      1.0000 0.38290  0.17740  0.93210  Biso   1.000  C
  H58      1.0000 0.34570  0.18250  0.90390  Biso   1.000  H
  C83      1.0000 0.44980  0.22560  0.91030  Biso   1.000  C
  H59      1.0000 0.45900  0.26430  0.86580  Biso   1.000  H
  C84      1.0000 0.50710  0.22040  0.95170  Biso   1.000  C
  H60      1.0000 0.55370  0.25590  0.93580  Biso   1.000  H
  N16      1.0000 0.61130  0.21400  0.10730  Biso   1.000  N
  N17      1.0000 0.65370  0.18780  0.15010  Biso   1.000  N
  N18      1.0000 0.55380  0.09720  0.08290  Biso   1.000  N
  C85      1.0000 0.49920  0.11760  0.36560  Biso   1.000  C
  C86      1.0000 0.60270  0.15800  0.43210  Biso   1.000  C
  C87      1.0000 0.42550  0.07030  0.33330  Biso   1.000  C
  C88      1.0000 0.40270  0.00130  0.29080  Biso   1.000  C
  H61      1.0000 0.43480  0.98450  0.28730  Biso   1.000  H
  C89      1.0000 0.33430  0.95900  0.25480  Biso   1.000  C
  H62      1.0000 0.32070  0.91470  0.22380  Biso   1.000  H
  C90      1.0000 0.28750  0.98110  0.26410  Biso   1.000  C
  H63      1.0000 0.24000  0.94890  0.24780  Biso   1.000  H
  C91      1.0000 0.30460  0.04740  0.29580  Biso   1.000  C
  H64      1.0000 0.27210  0.06360  0.29170  Biso   1.000  H
  C92      1.0000 0.37610  0.09190  0.33640  Biso   1.000  C
  H65      1.0000 0.38900  0.13650  0.36550  Biso   1.000  H
  C93      1.0000 0.66740  0.16270  0.48350  Biso   1.000  C
  C94      1.0000 0.68480  0.10870  0.45960  Biso   1.000  C
  H66      1.0000 0.65360  0.06920  0.41810  Biso   1.000  H
  C95      1.0000 0.74760  0.11470  0.49780  Biso   1.000  C
  H67      1.0000 0.76030  0.08060  0.48040  Biso   1.000  H
  C96      1.0000 0.79450  0.17740  0.56790  Biso   1.000  C
  H68      1.0000 0.83680  0.18250  0.59610  Biso   1.000  H
  C97      1.0000 0.77580  0.22560  0.58970  Biso   1.000  C
  H69      1.0000 0.80530  0.26430  0.63420  Biso   1.000  H
  C98      1.0000 0.71330  0.22040  0.54830  Biso   1.000  C
  H70      1.0000 0.70220  0.25590  0.56420  Biso   1.000  H
  N19      1.0000 0.60270  0.21400  0.39270  Biso   1.000  N
  N20      1.0000 0.53410  0.18780  0.34990  Biso   1.000  N
  N21      1.0000 0.54340  0.09720  0.41710  Biso   1.000  N
  C99      1.0000 0.61840  0.50080  0.36560  Biso   1.000  C
  C100     1.0000 0.55530  0.39730  0.43210  Biso   1.000  C
  C101     1.0000 0.64480  0.57450  0.33330  Biso   1.000  C
  C102     1.0000 0.59860  0.59730  0.29080  Biso   1.000  C
  H71      1.0000 0.54970  0.56520  0.28730  Biso   1.000  H
  C103     1.0000 0.62470  0.66570  0.25480  Biso   1.000  C
  H72      1.0000 0.59400  0.67930  0.22380  Biso   1.000  H
  C104     1.0000 0.69360  0.71250  0.26410  Biso   1.000  C
  H73      1.0000 0.70890  0.76000  0.24780  Biso   1.000  H
  C105     1.0000 0.74280  0.69540  0.29580  Biso   1.000  C
  H74      1.0000 0.79150  0.72790  0.29170  Biso   1.000  H
  C106     1.0000 0.71580  0.62390  0.33640  Biso   1.000  C
  H75      1.0000 0.74750  0.61100  0.36550  Biso   1.000  H
  C107     1.0000 0.49530  0.33260  0.48350  Biso   1.000  C
  C108     1.0000 0.42390  0.31520  0.45960  Biso   1.000  C
  H76      1.0000 0.41560  0.34640  0.41810  Biso   1.000  H
  C109     1.0000 0.36710  0.25240  0.49780  Biso   1.000  C
  H77      1.0000 0.32030  0.23970  0.48040  Biso   1.000  H
  C110     1.0000 0.38290  0.20550  0.56790  Biso   1.000  C
  H78      1.0000 0.34570  0.16320  0.59610  Biso   1.000  H
  C111     1.0000 0.44980  0.22420  0.58970  Biso   1.000  C
  H79      1.0000 0.45900  0.19470  0.63420  Biso   1.000  H
  C112     1.0000 0.50710  0.28670  0.54830  Biso   1.000  C
  H80      1.0000 0.55370  0.29780  0.56420  Biso   1.000  H
  N22      1.0000 0.61130  0.39730  0.39270  Biso   1.000  N
  N23      1.0000 0.65370  0.46590  0.34990  Biso   1.000  N
  N24      1.0000 0.55380  0.45660  0.41710  Biso   1.000  N
  C113     1.0000 0.88240  0.38160  0.36560  Biso   1.000  C
  C114     1.0000 0.84200  0.44470  0.43210  Biso   1.000  C
  C115     1.0000 0.92970  0.35520  0.33330  Biso   1.000  C
  C116     1.0000 0.99870  0.40140  0.29080  Biso   1.000  C
  H81      1.0000 0.01550  0.45030  0.28730  Biso   1.000  H
  C117     1.0000 0.04100  0.37530  0.25480  Biso   1.000  C
  H82      1.0000 0.08530  0.40600  0.22380  Biso   1.000  H
  C118     1.0000 0.01890  0.30640  0.26410  Biso   1.000  C
  H83      1.0000 0.05110  0.29110  0.24780  Biso   1.000  H
  C119     1.0000 0.95260  0.25720  0.29580  Biso   1.000  C
  H84      1.0000 0.93640  0.20850  0.29170  Biso   1.000  H
  C120     1.0000 0.90810  0.28420  0.33640  Biso   1.000  C
  H85      1.0000 0.86350  0.25250  0.36550  Biso   1.000  H
  C121     1.0000 0.83730  0.50470  0.48350  Biso   1.000  C
  C122     1.0000 0.89130  0.57610  0.45960  Biso   1.000  C
  H86      1.0000 0.93080  0.58440  0.41810  Biso   1.000  H
  C123     1.0000 0.88530  0.63290  0.49780  Biso   1.000  C
  H87      1.0000 0.91940  0.67970  0.48040  Biso   1.000  H
  C124     1.0000 0.82260  0.61710  0.56790  Biso   1.000  C
  H88      1.0000 0.81750  0.65430  0.59610  Biso   1.000  H
  C125     1.0000 0.77440  0.55020  0.58970  Biso   1.000  C
  H89      1.0000 0.73570  0.54100  0.63420  Biso   1.000  H
  C126     1.0000 0.77960  0.49290  0.54830  Biso   1.000  C
  H90      1.0000 0.74410  0.44630  0.56420  Biso   1.000  H
  N25      1.0000 0.78600  0.38870  0.39270  Biso   1.000  N
  N26      1.0000 0.81220  0.34630  0.34990  Biso   1.000  N
  N27      1.0000 0.90280  0.44620  0.41710  Biso   1.000  N
  C127     1.0000 0.50080  0.88240  0.86560  Biso   1.000  C
  C128     1.0000 0.39730  0.84200  0.93210  Biso   1.000  C
  C129     1.0000 0.57450  0.92970  0.83330  Biso   1.000  C
  C130     1.0000 0.59730  0.99870  0.79080  Biso   1.000  C
  H91      1.0000 0.56520  0.01550  0.78730  Biso   1.000  H
  C131     1.0000 0.66570  0.04100  0.75480  Biso   1.000  C
  H92      1.0000 0.67930  0.08530  0.72380  Biso   1.000  H
  C132     1.0000 0.71250  0.01890  0.76410  Biso   1.000  C
  H93      1.0000 0.76000  0.05110  0.74780  Biso   1.000  H
  C133     1.0000 0.69540  0.95260  0.79580  Biso   1.000  C
  H94      1.0000 0.72790  0.93640  0.79170  Biso   1.000  H
  C134     1.0000 0.62390  0.90810  0.83640  Biso   1.000  C
  H95      1.0000 0.61100  0.86350  0.86550  Biso   1.000  H
  C135     1.0000 0.33260  0.83730  0.98350  Biso   1.000  C
  C136     1.0000 0.31520  0.89130  0.95960  Biso   1.000  C
  H96      1.0000 0.34640  0.93080  0.91810  Biso   1.000  H
  C137     1.0000 0.25240  0.88530  0.99780  Biso   1.000  C
  H97      1.0000 0.23970  0.91940  0.98040  Biso   1.000  H
  C138     1.0000 0.20550  0.82260  0.06790  Biso   1.000  C
  H98      1.0000 0.16320  0.81750  0.09610  Biso   1.000  H
  C139     1.0000 0.22420  0.77440  0.08970  Biso   1.000  C
  H99      1.0000 0.19470  0.73570  0.13420  Biso   1.000  H
  C140     1.0000 0.28670  0.77960  0.04830  Biso   1.000  C
  H100     1.0000 0.29780  0.74410  0.06420  Biso   1.000  H
  N28      1.0000 0.39730  0.78600  0.89270  Biso   1.000  N
  N29      1.0000 0.46590  0.81220  0.84990  Biso   1.000  N
  N30      1.0000 0.45660  0.90280  0.91710  Biso   1.000  N
  C141     1.0000 0.38160  0.49920  0.86560  Biso   1.000  C
  C142     1.0000 0.44470  0.60270  0.93210  Biso   1.000  C
  C143     1.0000 0.35520  0.42550  0.83330  Biso   1.000  C
  C144     1.0000 0.40140  0.40270  0.79080  Biso   1.000  C
  H101     1.0000 0.45030  0.43480  0.78730  Biso   1.000  H
  C145     1.0000 0.37530  0.33430  0.75480  Biso   1.000  C
  H102     1.0000 0.40600  0.32070  0.72380  Biso   1.000  H
  C146     1.0000 0.30640  0.28750  0.76410  Biso   1.000  C
  H103     1.0000 0.29110  0.24000  0.74780  Biso   1.000  H
  C147     1.0000 0.25720  0.30460  0.79580  Biso   1.000  C
  H104     1.0000 0.20850  0.27210  0.79170  Biso   1.000  H
  C148     1.0000 0.28420  0.37610  0.83640  Biso   1.000  C
  H105     1.0000 0.25250  0.38900  0.86550  Biso   1.000  H
  C149     1.0000 0.50470  0.66740  0.98350  Biso   1.000  C
  C150     1.0000 0.57610  0.68480  0.95960  Biso   1.000  C
  H106     1.0000 0.58440  0.65360  0.91810  Biso   1.000  H
  C151     1.0000 0.63290  0.74760  0.99780  Biso   1.000  C
  H107     1.0000 0.67970  0.76030  0.98040  Biso   1.000  H
  C152     1.0000 0.61710  0.79450  0.06790  Biso   1.000  C
  H108     1.0000 0.65430  0.83680  0.09610  Biso   1.000  H
  C153     1.0000 0.55020  0.77580  0.08970  Biso   1.000  C
  H109     1.0000 0.54100  0.80530  0.13420  Biso   1.000  H
  C154     1.0000 0.49290  0.71330  0.04830  Biso   1.000  C
  H110     1.0000 0.44630  0.70220  0.06420  Biso   1.000  H
  N31      1.0000 0.38870  0.60270  0.89270  Biso   1.000  N
  N32      1.0000 0.34630  0.53410  0.84990  Biso   1.000  N
  N33      1.0000 0.44620  0.54340  0.91710  Biso   1.000  N
  C155     1.0000 0.11760  0.61840  0.86560  Biso   1.000  C
  C156     1.0000 0.15800  0.55530  0.93210  Biso   1.000  C
  C157     1.0000 0.07030  0.64480  0.83330  Biso   1.000  C
  C158     1.0000 0.00130  0.59860  0.79080  Biso   1.000  C
  H111     1.0000 0.98450  0.54970  0.78730  Biso   1.000  H
  C159     1.0000 0.95900  0.62470  0.75480  Biso   1.000  C
  H112     1.0000 0.91470  0.59400  0.72380  Biso   1.000  H
  C160     1.0000 0.98110  0.69360  0.76410  Biso   1.000  C
  H113     1.0000 0.94890  0.70890  0.74780  Biso   1.000  H
  C161     1.0000 0.04740  0.74280  0.79580  Biso   1.000  C
  H114     1.0000 0.06360  0.79150  0.79170  Biso   1.000  H
  C162     1.0000 0.09190  0.71580  0.83640  Biso   1.000  C
  H115     1.0000 0.13650  0.74750  0.86550  Biso   1.000  H
  C163     1.0000 0.16270  0.49530  0.98350  Biso   1.000  C
  C164     1.0000 0.10870  0.42390  0.95960  Biso   1.000  C
  H116     1.0000 0.06920  0.41560  0.91810  Biso   1.000  H
  C165     1.0000 0.11470  0.36710  0.99780  Biso   1.000  C
  H117     1.0000 0.08060  0.32030  0.98040  Biso   1.000  H
  C166     1.0000 0.17740  0.38290  0.06790  Biso   1.000  C
  H118     1.0000 0.18250  0.34570  0.09610  Biso   1.000  H
  C167     1.0000 0.22560  0.44980  0.08970  Biso   1.000  C
  H119     1.0000 0.26430  0.45900  0.13420  Biso   1.000  H
  C168     1.0000 0.22040  0.50710  0.04830  Biso   1.000  C
  H120     1.0000 0.25590  0.55370  0.06420  Biso   1.000  H
  N34      1.0000 0.21400  0.61130  0.89270  Biso   1.000  N
  N35      1.0000 0.18780  0.65370  0.84990  Biso   1.000  N
  N36      1.0000 0.09720  0.55380  0.91710  Biso   1.000  N
  Ag1      1.0000 0.33333  0.66667  0.60130  Biso   1.000  Ag
  Ag2      1.0000 0.66667  0.33333  0.10130  Biso   1.000  Ag
  Ag3      1.0000 0.66667  0.33333  0.39870  Biso   1.000  Ag
  Ag4      1.0000 0.33333  0.66667  0.89870  Biso   1.000  Ag
  Ag5      1.0000 0.25981  0.51962  0.75000  Biso   1.000  Ag
  Ag6      1.0000 0.48038  0.74019  0.75000  Biso   1.000  Ag
  Ag7      1.0000 0.25981  0.74019  0.75000  Biso   1.000  Ag
  Ag8      1.0000 0.74019  0.48038  0.25000  Biso   1.000  Ag
  Ag9      1.0000 0.51962  0.25981  0.25000  Biso   1.000  Ag
  Ag10     1.0000 0.74019  0.25981  0.25000  Biso   1.000  Ag
  Ag11     1.0000 0.50121  0.50121  0.00000  Biso   1.000  Ag
  Ag12     1.0000 0.49879  0.00000  0.00000  Biso   1.000  Ag
  Ag13     1.0000 0.00000  0.49879  0.00000  Biso   1.000  Ag
  Ag14     1.0000 0.49879  0.49879  0.50000  Biso   1.000  Ag
  Ag15     1.0000 0.50121  0.00000  0.50000  Biso   1.000  Ag
  Ag16     1.0000 0.00000  0.50121  0.50000  Biso   1.000  Ag
