data_image0
_cell_length_a       15.1834
_cell_length_b       15.1834
_cell_length_c       26.5282
_cell_angle_alpha    90
_cell_angle_beta     90
_cell_angle_gamma    120

_symmetry_space_group_name_H-M    "P 1"
_symmetry_int_tables_number       1

loop_
  _symmetry_equiv_pos_as_xyz
  'x, y, z'

loop_
  _atom_site_label
  _atom_site_occupancy
  _atom_site_fract_x
  _atom_site_fract_y
  _atom_site_fract_z
  _atom_site_thermal_displace_type
  _atom_site_B_iso_or_equiv
  _atom_site_type_symbol
  O1       1.0000 0.57150  0.43890  0.02310  Biso   1.000  O
  C1       1.0000 0.48300  0.36410  0.00900  Biso   1.000  C
  C2       1.0000 0.22870  0.80000  0.83520  Biso   1.000  C
  O2       1.0000 0.45870  0.09800  0.85600  Biso   1.000  O
  O3       1.0000 0.41480  0.35740  0.03110  Biso   1.000  O
  O4       1.0000 0.11490  0.66730  0.78060  Biso   1.000  O
  C3       1.0000 0.38120  0.00030  0.85160  Biso   1.000  C
  C4       1.0000 0.25880  0.83580  0.88280  Biso   1.000  C
  H1       1.0000 0.22790  0.79250  0.91000  Biso   1.000  H
  C5       1.0000 0.37430  0.14670  0.91840  Biso   1.000  C
  H2       1.0000 0.31050  0.09390  0.90910  Biso   1.000  H
  C6       1.0000 0.45950  0.15880  0.89480  Biso   1.000  C
  C7       1.0000 0.47590  0.29450  0.96910  Biso   1.000  C
  C8       1.0000 0.38320  0.21310  0.95600  Biso   1.000  C
  H3       1.0000 0.32520  0.20270  0.97300  Biso   1.000  H
  C9       1.0000 0.56020  0.30770  0.94440  Biso   1.000  C
  H4       1.0000 0.62360  0.36200  0.95300  Biso   1.000  H
  O5       1.0000 0.10620  0.63500  0.86280  Biso   1.000  O
  C10      1.0000 0.14320  0.69320  0.82500  Biso   1.000  C
  C11      1.0000 0.33500  0.93620  0.89170  Biso   1.000  C
  H5       1.0000 0.35430  0.95940  0.92450  Biso   1.000  H
  C12      1.0000 0.27990  0.86390  0.79550  Biso   1.000  C
  H6       1.0000 0.26330  0.83930  0.76270  Biso   1.000  H
  C13      1.0000 0.55280  0.24010  0.90590  Biso   1.000  C
  H7       1.0000 0.61040  0.25080  0.88840  Biso   1.000  H
  C14      1.0000 0.35440  0.96260  0.80310  Biso   1.000  C
  H8       1.0000 0.38710  0.00450  0.77560  Biso   1.000  H
  O6       1.0000 0.56110  0.13260  0.35643  Biso   1.000  O
  C15      1.0000 0.63590  0.11890  0.34233  Biso   1.000  C
  C16      1.0000 0.20000  0.42870  0.16853  Biso   1.000  C
  O7       1.0000 0.90200  0.36070  0.18933  Biso   1.000  O
  O8       1.0000 0.64260  0.05740  0.36443  Biso   1.000  O
  O9       1.0000 0.33270  0.44760  0.11393  Biso   1.000  O
  C17      1.0000 0.99970  0.38090  0.18493  Biso   1.000  C
  C18      1.0000 0.16420  0.42300  0.21613  Biso   1.000  C
  H9       1.0000 0.20750  0.43540  0.24333  Biso   1.000  H
  C19      1.0000 0.85330  0.22760  0.25173  Biso   1.000  C
  H10      1.0000 0.90610  0.21660  0.24243  Biso   1.000  H
  C20      1.0000 0.84120  0.30070  0.22813  Biso   1.000  C
  C21      1.0000 0.70550  0.18140  0.30243  Biso   1.000  C
  C22      1.0000 0.78690  0.17010  0.28933  Biso   1.000  C
  H11      1.0000 0.79730  0.12250  0.30633  Biso   1.000  H
  C23      1.0000 0.69230  0.25250  0.27773  Biso   1.000  C
  H12      1.0000 0.63800  0.26160  0.28633  Biso   1.000  H
  O10      1.0000 0.36500  0.47120  0.19613  Biso   1.000  O
  C24      1.0000 0.30680  0.45000  0.15833  Biso   1.000  C
  C25      1.0000 0.06380  0.39880  0.22503  Biso   1.000  C
  H13      1.0000 0.04060  0.39490  0.25783  Biso   1.000  H
  C26      1.0000 0.13610  0.41600  0.12883  Biso   1.000  C
  H14      1.0000 0.16070  0.42400  0.09603  Biso   1.000  H
  C27      1.0000 0.75990  0.31270  0.23923  Biso   1.000  C
  H15      1.0000 0.74920  0.35960  0.22173  Biso   1.000  H
  C28      1.0000 0.03740  0.39180  0.13643  Biso   1.000  C
  H16      1.0000 0.99550  0.38260  0.10893  Biso   1.000  H
  O11      1.0000 0.86740  0.42850  0.68977  Biso   1.000  O
  C29      1.0000 0.88110  0.51700  0.67567  Biso   1.000  C
  C30      1.0000 0.57130  0.77130  0.50187  Biso   1.000  C
  O12      1.0000 0.63930  0.54130  0.52267  Biso   1.000  O
  O13      1.0000 0.94260  0.58520  0.69777  Biso   1.000  O
  O14      1.0000 0.55240  0.88510  0.44727  Biso   1.000  O
  C31      1.0000 0.61910  0.61880  0.51827  Biso   1.000  C
  C32      1.0000 0.57700  0.74120  0.54947  Biso   1.000  C
  H17      1.0000 0.56460  0.77210  0.57667  Biso   1.000  H
  C33      1.0000 0.77240  0.62570  0.58507  Biso   1.000  C
  H18      1.0000 0.78340  0.68950  0.57577  Biso   1.000  H
  C34      1.0000 0.69930  0.54050  0.56147  Biso   1.000  C
  C35      1.0000 0.81860  0.52410  0.63577  Biso   1.000  C
  C36      1.0000 0.82990  0.61680  0.62267  Biso   1.000  C
  H19      1.0000 0.87750  0.67480  0.63967  Biso   1.000  H
  C37      1.0000 0.74750  0.43980  0.61107  Biso   1.000  C
  H20      1.0000 0.73840  0.37640  0.61967  Biso   1.000  H
  O15      1.0000 0.52880  0.89380  0.52947  Biso   1.000  O
  C38      1.0000 0.55000  0.85680  0.49167  Biso   1.000  C
  C39      1.0000 0.60120  0.66500  0.55837  Biso   1.000  C
  H21      1.0000 0.60510  0.64570  0.59117  Biso   1.000  H
  C40      1.0000 0.58400  0.72010  0.46217  Biso   1.000  C
  H22      1.0000 0.57600  0.73670  0.42937  Biso   1.000  H
  C41      1.0000 0.68730  0.44720  0.57257  Biso   1.000  C
  H23      1.0000 0.64040  0.38960  0.55507  Biso   1.000  H
  C42      1.0000 0.60820  0.64560  0.46977  Biso   1.000  C
  H24      1.0000 0.61740  0.61290  0.44227  Biso   1.000  H
  O16      1.0000 0.42850  0.56110  0.02310  Biso   1.000  O
  C43      1.0000 0.51700  0.63590  0.00900  Biso   1.000  C
  C44      1.0000 0.77130  0.20000  0.83520  Biso   1.000  C
  O17      1.0000 0.54130  0.90200  0.85600  Biso   1.000  O
  O18      1.0000 0.58520  0.64260  0.03110  Biso   1.000  O
  O19      1.0000 0.88510  0.33270  0.78060  Biso   1.000  O
  C45      1.0000 0.61880  0.99970  0.85160  Biso   1.000  C
  C46      1.0000 0.74120  0.16420  0.88280  Biso   1.000  C
  H25      1.0000 0.77210  0.20750  0.91000  Biso   1.000  H
  C47      1.0000 0.62570  0.85330  0.91840  Biso   1.000  C
  H26      1.0000 0.68950  0.90610  0.90910  Biso   1.000  H
  C48      1.0000 0.54050  0.84120  0.89480  Biso   1.000  C
  C49      1.0000 0.52410  0.70550  0.96910  Biso   1.000  C
  C50      1.0000 0.61680  0.78690  0.95600  Biso   1.000  C
  H27      1.0000 0.67480  0.79730  0.97300  Biso   1.000  H
  C51      1.0000 0.43980  0.69230  0.94440  Biso   1.000  C
  H28      1.0000 0.37640  0.63800  0.95300  Biso   1.000  H
  O20      1.0000 0.89380  0.36500  0.86280  Biso   1.000  O
  C52      1.0000 0.85680  0.30680  0.82500  Biso   1.000  C
  C53      1.0000 0.66500  0.06380  0.89170  Biso   1.000  C
  H29      1.0000 0.64570  0.04060  0.92450  Biso   1.000  H
  C54      1.0000 0.72010  0.13610  0.79550  Biso   1.000  C
  H30      1.0000 0.73670  0.16070  0.76270  Biso   1.000  H
  C55      1.0000 0.44720  0.75990  0.90590  Biso   1.000  C
  H31      1.0000 0.38960  0.74920  0.88840  Biso   1.000  H
  C56      1.0000 0.64560  0.03740  0.80310  Biso   1.000  C
  H32      1.0000 0.61290  0.99550  0.77560  Biso   1.000  H
  O21      1.0000 0.43890  0.86740  0.35643  Biso   1.000  O
  C57      1.0000 0.36410  0.88110  0.34233  Biso   1.000  C
  C58      1.0000 0.80000  0.57130  0.16853  Biso   1.000  C
  O22      1.0000 0.09800  0.63930  0.18933  Biso   1.000  O
  O23      1.0000 0.35740  0.94260  0.36443  Biso   1.000  O
  O24      1.0000 0.66730  0.55240  0.11393  Biso   1.000  O
  C59      1.0000 0.00030  0.61910  0.18493  Biso   1.000  C
  C60      1.0000 0.83580  0.57700  0.21613  Biso   1.000  C
  H33      1.0000 0.79250  0.56460  0.24333  Biso   1.000  H
  C61      1.0000 0.14670  0.77240  0.25173  Biso   1.000  C
  H34      1.0000 0.09390  0.78340  0.24243  Biso   1.000  H
  C62      1.0000 0.15880  0.69930  0.22813  Biso   1.000  C
  C63      1.0000 0.29450  0.81860  0.30243  Biso   1.000  C
  C64      1.0000 0.21310  0.82990  0.28933  Biso   1.000  C
  H35      1.0000 0.20270  0.87750  0.30633  Biso   1.000  H
  C65      1.0000 0.30770  0.74750  0.27773  Biso   1.000  C
  H36      1.0000 0.36200  0.73840  0.28633  Biso   1.000  H
  O25      1.0000 0.63500  0.52880  0.19613  Biso   1.000  O
  C66      1.0000 0.69320  0.55000  0.15833  Biso   1.000  C
  C67      1.0000 0.93620  0.60120  0.22503  Biso   1.000  C
  H37      1.0000 0.95940  0.60510  0.25783  Biso   1.000  H
  C68      1.0000 0.86390  0.58400  0.12883  Biso   1.000  C
  H38      1.0000 0.83930  0.57600  0.09603  Biso   1.000  H
  C69      1.0000 0.24010  0.68730  0.23923  Biso   1.000  C
  H39      1.0000 0.25080  0.64040  0.22173  Biso   1.000  H
  C70      1.0000 0.96260  0.60820  0.13643  Biso   1.000  C
  H40      1.0000 0.00450  0.61740  0.10893  Biso   1.000  H
  O26      1.0000 0.13260  0.57150  0.68977  Biso   1.000  O
  C71      1.0000 0.11890  0.48300  0.67567  Biso   1.000  C
  C72      1.0000 0.42870  0.22870  0.50187  Biso   1.000  C
  O27      1.0000 0.36070  0.45870  0.52267  Biso   1.000  O
  O28      1.0000 0.05740  0.41480  0.69777  Biso   1.000  O
  O29      1.0000 0.44760  0.11490  0.44727  Biso   1.000  O
  C73      1.0000 0.38090  0.38120  0.51827  Biso   1.000  C
  C74      1.0000 0.42300  0.25880  0.54947  Biso   1.000  C
  H41      1.0000 0.43540  0.22790  0.57667  Biso   1.000  H
  C75      1.0000 0.22760  0.37430  0.58507  Biso   1.000  C
  H42      1.0000 0.21660  0.31050  0.57577  Biso   1.000  H
  C76      1.0000 0.30070  0.45950  0.56147  Biso   1.000  C
  C77      1.0000 0.18140  0.47590  0.63577  Biso   1.000  C
  C78      1.0000 0.17010  0.38320  0.62267  Biso   1.000  C
  H43      1.0000 0.12250  0.32520  0.63967  Biso   1.000  H
  C79      1.0000 0.25250  0.56020  0.61107  Biso   1.000  C
  H44      1.0000 0.26160  0.62360  0.61967  Biso   1.000  H
  O30      1.0000 0.47120  0.10620  0.52947  Biso   1.000  O
  C80      1.0000 0.45000  0.14320  0.49167  Biso   1.000  C
  C81      1.0000 0.39880  0.33500  0.55837  Biso   1.000  C
  H45      1.0000 0.39490  0.35430  0.59117  Biso   1.000  H
  C82      1.0000 0.41600  0.27990  0.46217  Biso   1.000  C
  H46      1.0000 0.42400  0.26330  0.42937  Biso   1.000  H
  C83      1.0000 0.31270  0.55280  0.57257  Biso   1.000  C
  H47      1.0000 0.35960  0.61040  0.55507  Biso   1.000  H
  C84      1.0000 0.39180  0.35440  0.46977  Biso   1.000  C
  H48      1.0000 0.38260  0.38710  0.44227  Biso   1.000  H
  O31      1.0000 0.43890  0.57150  0.31023  Biso   1.000  O
  C85      1.0000 0.36410  0.48300  0.32433  Biso   1.000  C
  C86      1.0000 0.80000  0.22870  0.49813  Biso   1.000  C
  O32      1.0000 0.09800  0.45870  0.47733  Biso   1.000  O
  O33      1.0000 0.35740  0.41480  0.30223  Biso   1.000  O
  O34      1.0000 0.66730  0.11490  0.55273  Biso   1.000  O
  C87      1.0000 0.00030  0.38120  0.48173  Biso   1.000  C
  C88      1.0000 0.83580  0.25880  0.45053  Biso   1.000  C
  H49      1.0000 0.79250  0.22790  0.42333  Biso   1.000  H
  C89      1.0000 0.14670  0.37430  0.41493  Biso   1.000  C
  H50      1.0000 0.09390  0.31050  0.42423  Biso   1.000  H
  C90      1.0000 0.15880  0.45950  0.43853  Biso   1.000  C
  C91      1.0000 0.29450  0.47590  0.36423  Biso   1.000  C
  C92      1.0000 0.21310  0.38320  0.37733  Biso   1.000  C
  H51      1.0000 0.20270  0.32520  0.36033  Biso   1.000  H
  C93      1.0000 0.30770  0.56020  0.38893  Biso   1.000  C
  H52      1.0000 0.36200  0.62360  0.38033  Biso   1.000  H
  O35      1.0000 0.63500  0.10620  0.47053  Biso   1.000  O
  C94      1.0000 0.69320  0.14320  0.50833  Biso   1.000  C
  C95      1.0000 0.93620  0.33500  0.44163  Biso   1.000  C
  H53      1.0000 0.95940  0.35430  0.40883  Biso   1.000  H
  C96      1.0000 0.86390  0.27990  0.53783  Biso   1.000  C
  H54      1.0000 0.83930  0.26330  0.57063  Biso   1.000  H
  C97      1.0000 0.24010  0.55280  0.42743  Biso   1.000  C
  H55      1.0000 0.25080  0.61040  0.44493  Biso   1.000  H
  C98      1.0000 0.96260  0.35440  0.53023  Biso   1.000  C
  H56      1.0000 0.00450  0.38710  0.55773  Biso   1.000  H
  O36      1.0000 0.13260  0.56110  0.97690  Biso   1.000  O
  C99      1.0000 0.11890  0.63590  0.99100  Biso   1.000  C
  C100     1.0000 0.42870  0.20000  0.16480  Biso   1.000  C
  O37      1.0000 0.36070  0.90200  0.14400  Biso   1.000  O
  O38      1.0000 0.05740  0.64260  0.96890  Biso   1.000  O
  O39      1.0000 0.44760  0.33270  0.21940  Biso   1.000  O
  C101     1.0000 0.38090  0.99970  0.14840  Biso   1.000  C
  C102     1.0000 0.42300  0.16420  0.11720  Biso   1.000  C
  H57      1.0000 0.43540  0.20750  0.09000  Biso   1.000  H
  C103     1.0000 0.22760  0.85330  0.08160  Biso   1.000  C
  H58      1.0000 0.21660  0.90610  0.09090  Biso   1.000  H
  C104     1.0000 0.30070  0.84120  0.10520  Biso   1.000  C
  C105     1.0000 0.18140  0.70550  0.03090  Biso   1.000  C
  C106     1.0000 0.17010  0.78690  0.04400  Biso   1.000  C
  H59      1.0000 0.12250  0.79730  0.02700  Biso   1.000  H
  C107     1.0000 0.25250  0.69230  0.05560  Biso   1.000  C
  H60      1.0000 0.26160  0.63800  0.04700  Biso   1.000  H
  O40      1.0000 0.47120  0.36500  0.13720  Biso   1.000  O
  C108     1.0000 0.45000  0.30680  0.17500  Biso   1.000  C
  C109     1.0000 0.39880  0.06380  0.10830  Biso   1.000  C
  H61      1.0000 0.39490  0.04060  0.07550  Biso   1.000  H
  C110     1.0000 0.41600  0.13610  0.20450  Biso   1.000  C
  H62      1.0000 0.42400  0.16070  0.23730  Biso   1.000  H
  C111     1.0000 0.31270  0.75990  0.09410  Biso   1.000  C
  H63      1.0000 0.35960  0.74920  0.11160  Biso   1.000  H
  C112     1.0000 0.39180  0.03740  0.19690  Biso   1.000  C
  H64      1.0000 0.38260  0.99550  0.22440  Biso   1.000  H
  O41      1.0000 0.42850  0.86740  0.64357  Biso   1.000  O
  C113     1.0000 0.51700  0.88110  0.65767  Biso   1.000  C
  C114     1.0000 0.77130  0.57130  0.83147  Biso   1.000  C
  O42      1.0000 0.54130  0.63930  0.81067  Biso   1.000  O
  O43      1.0000 0.58520  0.94260  0.63557  Biso   1.000  O
  O44      1.0000 0.88510  0.55240  0.88607  Biso   1.000  O
  C115     1.0000 0.61880  0.61910  0.81507  Biso   1.000  C
  C116     1.0000 0.74120  0.57700  0.78387  Biso   1.000  C
  H65      1.0000 0.77210  0.56460  0.75667  Biso   1.000  H
  C117     1.0000 0.62570  0.77240  0.74827  Biso   1.000  C
  H66      1.0000 0.68950  0.78340  0.75757  Biso   1.000  H
  C118     1.0000 0.54050  0.69930  0.77187  Biso   1.000  C
  C119     1.0000 0.52410  0.81860  0.69757  Biso   1.000  C
  C120     1.0000 0.61680  0.82990  0.71067  Biso   1.000  C
  H67      1.0000 0.67480  0.87750  0.69367  Biso   1.000  H
  C121     1.0000 0.43980  0.74750  0.72227  Biso   1.000  C
  H68      1.0000 0.37640  0.73840  0.71367  Biso   1.000  H
  O45      1.0000 0.89380  0.52880  0.80387  Biso   1.000  O
  C122     1.0000 0.85680  0.55000  0.84167  Biso   1.000  C
  C123     1.0000 0.66500  0.60120  0.77497  Biso   1.000  C
  H69      1.0000 0.64570  0.60510  0.74217  Biso   1.000  H
  C124     1.0000 0.72010  0.58400  0.87117  Biso   1.000  C
  H70      1.0000 0.73670  0.57600  0.90397  Biso   1.000  H
  C125     1.0000 0.44720  0.68730  0.76077  Biso   1.000  C
  H71      1.0000 0.38960  0.64040  0.77827  Biso   1.000  H
  C126     1.0000 0.64560  0.60820  0.86357  Biso   1.000  C
  H72      1.0000 0.61290  0.61740  0.89107  Biso   1.000  H
  O46      1.0000 0.56110  0.42850  0.31023  Biso   1.000  O
  C127     1.0000 0.63590  0.51700  0.32433  Biso   1.000  C
  C128     1.0000 0.20000  0.77130  0.49813  Biso   1.000  C
  O47      1.0000 0.90200  0.54130  0.47733  Biso   1.000  O
  O48      1.0000 0.64260  0.58520  0.30223  Biso   1.000  O
  O49      1.0000 0.33270  0.88510  0.55273  Biso   1.000  O
  C129     1.0000 0.99970  0.61880  0.48173  Biso   1.000  C
  C130     1.0000 0.16420  0.74120  0.45053  Biso   1.000  C
  H73      1.0000 0.20750  0.77210  0.42333  Biso   1.000  H
  C131     1.0000 0.85330  0.62570  0.41493  Biso   1.000  C
  H74      1.0000 0.90610  0.68950  0.42423  Biso   1.000  H
  C132     1.0000 0.84120  0.54050  0.43853  Biso   1.000  C
  C133     1.0000 0.70550  0.52410  0.36423  Biso   1.000  C
  C134     1.0000 0.78690  0.61680  0.37733  Biso   1.000  C
  H75      1.0000 0.79730  0.67480  0.36033  Biso   1.000  H
  C135     1.0000 0.69230  0.43980  0.38893  Biso   1.000  C
  H76      1.0000 0.63800  0.37640  0.38033  Biso   1.000  H
  O50      1.0000 0.36500  0.89380  0.47053  Biso   1.000  O
  C136     1.0000 0.30680  0.85680  0.50833  Biso   1.000  C
  C137     1.0000 0.06380  0.66500  0.44163  Biso   1.000  C
  H77      1.0000 0.04060  0.64570  0.40883  Biso   1.000  H
  C138     1.0000 0.13610  0.72010  0.53783  Biso   1.000  C
  H78      1.0000 0.16070  0.73670  0.57063  Biso   1.000  H
  C139     1.0000 0.75990  0.44720  0.42743  Biso   1.000  C
  H79      1.0000 0.74920  0.38960  0.44493  Biso   1.000  H
  C140     1.0000 0.03740  0.64560  0.53023  Biso   1.000  C
  H80      1.0000 0.99550  0.61290  0.55773  Biso   1.000  H
  O51      1.0000 0.86740  0.43890  0.97690  Biso   1.000  O
  C141     1.0000 0.88110  0.36410  0.99100  Biso   1.000  C
  C142     1.0000 0.57130  0.80000  0.16480  Biso   1.000  C
  O52      1.0000 0.63930  0.09800  0.14400  Biso   1.000  O
  O53      1.0000 0.94260  0.35740  0.96890  Biso   1.000  O
  O54      1.0000 0.55240  0.66730  0.21940  Biso   1.000  O
  C143     1.0000 0.61910  0.00030  0.14840  Biso   1.000  C
  C144     1.0000 0.57700  0.83580  0.11720  Biso   1.000  C
  H81      1.0000 0.56460  0.79250  0.09000  Biso   1.000  H
  C145     1.0000 0.77240  0.14670  0.08160  Biso   1.000  C
  H82      1.0000 0.78340  0.09390  0.09090  Biso   1.000  H
  C146     1.0000 0.69930  0.15880  0.10520  Biso   1.000  C
  C147     1.0000 0.81860  0.29450  0.03090  Biso   1.000  C
  C148     1.0000 0.82990  0.21310  0.04400  Biso   1.000  C
  H83      1.0000 0.87750  0.20270  0.02700  Biso   1.000  H
  C149     1.0000 0.74750  0.30770  0.05560  Biso   1.000  C
  H84      1.0000 0.73840  0.36200  0.04700  Biso   1.000  H
  O55      1.0000 0.52880  0.63500  0.13720  Biso   1.000  O
  C150     1.0000 0.55000  0.69320  0.17500  Biso   1.000  C
  C151     1.0000 0.60120  0.93620  0.10830  Biso   1.000  C
  H85      1.0000 0.60510  0.95940  0.07550  Biso   1.000  H
  C152     1.0000 0.58400  0.86390  0.20450  Biso   1.000  C
  H86      1.0000 0.57600  0.83930  0.23730  Biso   1.000  H
  C153     1.0000 0.68730  0.24010  0.09410  Biso   1.000  C
  H87      1.0000 0.64040  0.25080  0.11160  Biso   1.000  H
  C154     1.0000 0.60820  0.96260  0.19690  Biso   1.000  C
  H88      1.0000 0.61740  0.00450  0.22440  Biso   1.000  H
  O56      1.0000 0.57150  0.13260  0.64357  Biso   1.000  O
  C155     1.0000 0.48300  0.11890  0.65767  Biso   1.000  C
  C156     1.0000 0.22870  0.42870  0.83147  Biso   1.000  C
  O57      1.0000 0.45870  0.36070  0.81067  Biso   1.000  O
  O58      1.0000 0.41480  0.05740  0.63557  Biso   1.000  O
  O59      1.0000 0.11490  0.44760  0.88607  Biso   1.000  O
  C157     1.0000 0.38120  0.38090  0.81507  Biso   1.000  C
  C158     1.0000 0.25880  0.42300  0.78387  Biso   1.000  C
  H89      1.0000 0.22790  0.43540  0.75667  Biso   1.000  H
  C159     1.0000 0.37430  0.22760  0.74827  Biso   1.000  C
  H90      1.0000 0.31050  0.21660  0.75757  Biso   1.000  H
  C160     1.0000 0.45950  0.30070  0.77187  Biso   1.000  C
  C161     1.0000 0.47590  0.18140  0.69757  Biso   1.000  C
  C162     1.0000 0.38320  0.17010  0.71067  Biso   1.000  C
  H91      1.0000 0.32520  0.12250  0.69367  Biso   1.000  H
  C163     1.0000 0.56020  0.25250  0.72227  Biso   1.000  C
  H92      1.0000 0.62360  0.26160  0.71367  Biso   1.000  H
  O60      1.0000 0.10620  0.47120  0.80387  Biso   1.000  O
  C164     1.0000 0.14320  0.45000  0.84167  Biso   1.000  C
  C165     1.0000 0.33500  0.39880  0.77497  Biso   1.000  C
  H93      1.0000 0.35430  0.39490  0.74217  Biso   1.000  H
  C166     1.0000 0.27990  0.41600  0.87117  Biso   1.000  C
  H94      1.0000 0.26330  0.42400  0.90397  Biso   1.000  H
  C167     1.0000 0.55280  0.31270  0.76077  Biso   1.000  C
  H95      1.0000 0.61040  0.35960  0.77827  Biso   1.000  H
  C168     1.0000 0.35440  0.39180  0.86357  Biso   1.000  C
  H96      1.0000 0.38710  0.38260  0.89107  Biso   1.000  H
  Tb1      1.0000 0.50000  0.50000  0.08869  Biso   1.000  Tb
  Tb2      1.0000 0.50000  0.00000  0.42202  Biso   1.000  Tb
  Tb3      1.0000 0.00000  0.50000  0.75536  Biso   1.000  Tb
  Tb4      1.0000 0.50000  0.50000  0.24464  Biso   1.000  Tb
  Tb5      1.0000 0.00000  0.50000  0.91131  Biso   1.000  Tb
  Tb6      1.0000 0.50000  0.00000  0.57798  Biso   1.000  Tb
