data_image0
_cell_length_a       4.7096
_cell_length_b       11.0947
_cell_length_c       20.0417
_cell_angle_alpha    90
_cell_angle_beta     90
_cell_angle_gamma    96.8435

_symmetry_space_group_name_H-M    P 1
_symmetry_int_tables_number       1

loop_
  _symmetry_equiv_pos_as_xyz
  'x, y, z'

loop_
  _atom_site_label
  _atom_site_occupancy
  _atom_site_fract_x
  _atom_site_fract_y
  _atom_site_fract_z
  _atom_site_thermal_displace_type
  _atom_site_B_iso_or_equiv
  _atom_site_type_symbol
  Cu1      1.0000 0.30400  0.94210  0.83950  Biso   1.000  Cu
  Cu2      1.0000 0.69600  0.55790  0.33950  Biso   1.000  Cu
  Cu3      1.0000 0.69600  0.05790  0.16050  Biso   1.000  Cu
  Cu4      1.0000 0.30400  0.44210  0.66050  Biso   1.000  Cu
  H1       1.0000 0.26545  0.91284  0.59284  Biso   1.000  H
  H2       1.0000 0.43823  0.00444  0.69291  Biso   1.000  H
  H3       1.0000 0.62230  0.82690  0.95401  Biso   1.000  H
  H4       1.0000 0.22044  0.11468  0.94134  Biso   1.000  H
  H5       1.0000 0.73455  0.58716  0.09284  Biso   1.000  H
  H6       1.0000 0.56177  0.49556  0.19291  Biso   1.000  H
  H7       1.0000 0.37770  0.67310  0.45401  Biso   1.000  H
  H8       1.0000 0.77956  0.38532  0.44134  Biso   1.000  H
  H9       1.0000 0.73455  0.08716  0.40716  Biso   1.000  H
  H10      1.0000 0.56177  0.99556  0.30709  Biso   1.000  H
  H11      1.0000 0.37770  0.17310  0.04599  Biso   1.000  H
  H12      1.0000 0.77956  0.88532  0.05866  Biso   1.000  H
  H13      1.0000 0.26545  0.41284  0.90716  Biso   1.000  H
  H14      1.0000 0.43823  0.50444  0.80709  Biso   1.000  H
  H15      1.0000 0.62230  0.32690  0.54599  Biso   1.000  H
  H16      1.0000 0.22044  0.61468  0.55866  Biso   1.000  H
  C1       1.0000 0.05400  0.77300  0.75000  Biso   1.000  C
  C2       1.0000 0.96000  0.71400  0.69100  Biso   1.000  C
  C3       1.0000 0.21000  0.86800  0.62900  Biso   1.000  C
  C4       1.0000 0.30900  0.92300  0.68900  Biso   1.000  C
  C5       1.0000 0.99900  0.72200  0.82200  Biso   1.000  C
  C6       1.0000 0.75800  0.59800  0.68800  Biso   1.000  C
  C7       1.0000 0.56000  0.90500  0.96900  Biso   1.000  C
  C8       1.0000 0.34700  0.06900  0.96800  Biso   1.000  C
  C9       1.0000 0.94600  0.72700  0.25000  Biso   1.000  C
  C10      1.0000 0.04000  0.78600  0.19100  Biso   1.000  C
  C11      1.0000 0.79000  0.63200  0.12900  Biso   1.000  C
  C12      1.0000 0.69100  0.57700  0.18900  Biso   1.000  C
  C13      1.0000 0.00100  0.77800  0.32200  Biso   1.000  C
  C14      1.0000 0.24200  0.90200  0.18800  Biso   1.000  C
  C15      1.0000 0.44000  0.59500  0.46900  Biso   1.000  C
  C16      1.0000 0.65300  0.43100  0.46800  Biso   1.000  C
  C17      1.0000 0.94600  0.22700  0.25000  Biso   1.000  C
  C18      1.0000 0.04000  0.28600  0.30900  Biso   1.000  C
  C19      1.0000 0.79000  0.13200  0.37100  Biso   1.000  C
  C20      1.0000 0.69100  0.07700  0.31100  Biso   1.000  C
  C21      1.0000 0.00100  0.27800  0.17800  Biso   1.000  C
  C22      1.0000 0.24200  0.40200  0.31200  Biso   1.000  C
  C23      1.0000 0.44000  0.09500  0.03100  Biso   1.000  C
  C24      1.0000 0.65300  0.93100  0.03200  Biso   1.000  C
  C25      1.0000 0.05400  0.27300  0.75000  Biso   1.000  C
  C26      1.0000 0.96000  0.21400  0.80900  Biso   1.000  C
  C27      1.0000 0.21000  0.36800  0.87100  Biso   1.000  C
  C28      1.0000 0.30900  0.42300  0.81100  Biso   1.000  C
  C29      1.0000 0.99900  0.22200  0.67800  Biso   1.000  C
  C30      1.0000 0.75800  0.09800  0.81200  Biso   1.000  C
  C31      1.0000 0.56000  0.40500  0.53100  Biso   1.000  C
  C32      1.0000 0.34700  0.56900  0.53200  Biso   1.000  C
  N1       1.0000 0.23700  0.87900  0.75200  Biso   1.000  N
  N2       1.0000 0.04800  0.76000  0.63100  Biso   1.000  N
  N3       1.0000 0.41100  0.97300  0.94000  Biso   1.000  N
  N4       1.0000 0.76300  0.62100  0.25200  Biso   1.000  N
  N5       1.0000 0.95200  0.74000  0.13100  Biso   1.000  N
  N6       1.0000 0.58900  0.52700  0.44000  Biso   1.000  N
  N7       1.0000 0.76300  0.12100  0.24800  Biso   1.000  N
  N8       1.0000 0.95200  0.24000  0.36900  Biso   1.000  N
  N9       1.0000 0.58900  0.02700  0.06000  Biso   1.000  N
  N10      1.0000 0.23700  0.37900  0.74800  Biso   1.000  N
  N11      1.0000 0.04800  0.26000  0.86900  Biso   1.000  N
  N12      1.0000 0.41100  0.47300  0.56000  Biso   1.000  N
  O1       1.0000 0.11300  0.77100  0.87300  Biso   1.000  O
  O2       1.0000 0.86900  0.61900  0.82700  Biso   1.000  O
  O3       1.0000 0.49300  0.59900  0.68900  Biso   1.000  O
  O4       1.0000 0.87000  0.51000  0.66800  Biso   1.000  O
  O5       1.0000 0.88700  0.72900  0.37300  Biso   1.000  O
  O6       1.0000 0.13100  0.88100  0.32700  Biso   1.000  O
  O7       1.0000 0.50700  0.90100  0.18900  Biso   1.000  O
  O8       1.0000 0.13000  0.99000  0.16800  Biso   1.000  O
  O9       1.0000 0.88700  0.22900  0.12700  Biso   1.000  O
  O10      1.0000 0.13100  0.38100  0.17300  Biso   1.000  O
  O11      1.0000 0.50700  0.40100  0.31100  Biso   1.000  O
  O12      1.0000 0.13000  0.49000  0.33200  Biso   1.000  O
  O13      1.0000 0.11300  0.27100  0.62700  Biso   1.000  O
  O14      1.0000 0.86900  0.11900  0.67300  Biso   1.000  O
  O15      1.0000 0.49300  0.09900  0.81100  Biso   1.000  O
  O16      1.0000 0.87000  0.01000  0.83200  Biso   1.000  O
