data_image0
_cell_length_a       10.962
_cell_length_b       15.0475
_cell_length_c       15.0475
_cell_angle_alpha    65.6978
_cell_angle_beta     75.9463
_cell_angle_gamma    104.054

_symmetry_space_group_name_H-M    P 1
_symmetry_int_tables_number       1

loop_
  _symmetry_equiv_pos_as_xyz
  'x, y, z'

loop_
  _atom_site_label
  _atom_site_occupancy
  _atom_site_fract_x
  _atom_site_fract_y
  _atom_site_fract_z
  _atom_site_thermal_displace_type
  _atom_site_B_iso_or_equiv
  _atom_site_type_symbol
  Fe1      1.0000 0.50000  0.50000  0.50000  Biso   1.000  Fe
  H1       1.0000 0.23110  0.34070  0.53630  Biso   1.000  H
  H2       1.0000 0.47540  0.68930  0.29390  Biso   1.000  H
  H3       1.0000 0.34570  0.70830  0.27180  Biso   1.000  H
  H4       1.0000 0.44200  0.67800  0.20040  Biso   1.000  H
  H5       1.0000 0.03140  0.23680  0.53290  Biso   1.000  H
  H6       1.0000 0.04260  0.27210  0.41430  Biso   1.000  H
  H7       1.0000 0.95050  0.30640  0.48370  Biso   1.000  H
  H8       1.0000 0.02790  0.71460  0.23910  Biso   1.000  H
  H9       1.0000 0.16500  0.71670  0.25950  Biso   1.000  H
  H10      1.0000 0.02040  0.63080  0.35090  Biso   1.000  H
  H11      1.0000 0.12930  0.36890  0.14630  Biso   1.000  H
  H12      1.0000 0.11970  0.32480  0.26540  Biso   1.000  H
  H13      1.0000 0.25970  0.41290  0.16900  Biso   1.000  H
  H14      1.0000 0.99120  0.63180  0.13500  Biso   1.000  H
  H15      1.0000 0.76890  0.65930  0.46370  Biso   1.000  H
  H16      1.0000 0.52460  0.31070  0.70610  Biso   1.000  H
  H17      1.0000 0.65430  0.29170  0.72820  Biso   1.000  H
  H18      1.0000 0.55800  0.32200  0.79960  Biso   1.000  H
  H19      1.0000 0.96860  0.76320  0.46710  Biso   1.000  H
  H20      1.0000 0.95740  0.72790  0.58570  Biso   1.000  H
  H21      1.0000 0.04950  0.69360  0.51630  Biso   1.000  H
  H22      1.0000 0.97210  0.28540  0.76090  Biso   1.000  H
  H23      1.0000 0.83500  0.28330  0.74050  Biso   1.000  H
  H24      1.0000 0.97960  0.36920  0.64910  Biso   1.000  H
  H25      1.0000 0.87070  0.63110  0.85370  Biso   1.000  H
  H26      1.0000 0.88030  0.67520  0.73460  Biso   1.000  H
  H27      1.0000 0.74030  0.58710  0.83100  Biso   1.000  H
  H28      1.0000 0.00880  0.36820  0.86500  Biso   1.000  H
  C1       1.0000 0.27336  0.34646  0.73928  Biso   1.000  C
  C2       1.0000 0.31587  0.55200  0.34689  Biso   1.000  C
  C3       1.0000 0.20004  0.49044  0.34122  Biso   1.000  C
  C4       1.0000 0.15324  0.39121  0.42859  Biso   1.000  C
  C5       1.0000 0.40225  0.66690  0.27165  Biso   1.000  C
  C6       1.0000 0.03450  0.29350  0.46810  Biso   1.000  C
  C7       1.0000 0.08387  0.59627  0.23426  Biso   1.000  C
  C8       1.0000 0.14038  0.52142  0.26048  Biso   1.000  C
  C9       1.0000 0.11588  0.47224  0.19960  Biso   1.000  C
  C10      1.0000 0.07345  0.67110  0.27435  Biso   1.000  C
  C11      1.0000 0.15998  0.38746  0.19462  Biso   1.000  C
  C12      1.0000 0.72664  0.65354  0.26072  Biso   1.000  C
  C13      1.0000 0.68413  0.44800  0.65311  Biso   1.000  C
  C14      1.0000 0.79996  0.50956  0.65878  Biso   1.000  C
  C15      1.0000 0.84676  0.60879  0.57141  Biso   1.000  C
  C16      1.0000 0.59775  0.33310  0.72835  Biso   1.000  C
  C17      1.0000 0.96550  0.70650  0.53190  Biso   1.000  C
  C18      1.0000 0.91613  0.40373  0.76574  Biso   1.000  C
  C19      1.0000 0.85962  0.47858  0.73952  Biso   1.000  C
  C20      1.0000 0.88412  0.52776  0.80040  Biso   1.000  C
  C21      1.0000 0.92655  0.32890  0.72565  Biso   1.000  C
  C22      1.0000 0.84002  0.61254  0.80538  Biso   1.000  C
  S1       1.0000 0.17972  0.27788  0.86573  Biso   1.000  S
  S2       1.0000 0.82028  0.72212  0.13427  Biso   1.000  S
  N1       1.0000 0.34247  0.39546  0.64935  Biso   1.000  N
  N2       1.0000 0.33948  0.49258  0.43144  Biso   1.000  N
  N3       1.0000 0.23920  0.39540  0.47880  Biso   1.000  N
  N4       1.0000 0.04964  0.51439  0.14047  Biso   1.000  N
  N5       1.0000 0.03200  0.59073  0.16353  Biso   1.000  N
  N6       1.0000 0.65753  0.60454  0.35065  Biso   1.000  N
  N7       1.0000 0.66052  0.50742  0.56856  Biso   1.000  N
  N8       1.0000 0.76080  0.60460  0.52120  Biso   1.000  N
  N9       1.0000 0.95036  0.48561  0.85953  Biso   1.000  N
  N10      1.0000 0.96800  0.40927  0.83647  Biso   1.000  N
  Fe2      1.0000 0.00000  0.50000  0.00000  Biso   1.000  Fe
  H29      1.0000 0.76740  0.53630  0.12300  Biso   1.000  H
  H30      1.0000 0.76930  0.29390  0.01680  Biso   1.000  H
  H31      1.0000 0.61750  0.27180  0.01990  Biso   1.000  H
  H32      1.0000 0.64240  0.20040  0.12160  Biso   1.000  H
  H33      1.0000 0.56430  0.53290  0.23030  Biso   1.000  H
  H34      1.0000 0.45690  0.41430  0.31360  Biso   1.000  H
  H35      1.0000 0.43420  0.48370  0.20990  Biso   1.000  H
  H36      1.0000 0.26700  0.23910  0.04630  Biso   1.000  H
  H37      1.0000 0.42450  0.25950  0.02380  Biso   1.000  H
  H38      1.0000 0.37130  0.35090  0.01830  Biso   1.000  H
  H39      1.0000 0.27560  0.14630  0.48480  Biso   1.000  H
  H40      1.0000 0.38510  0.26540  0.40980  Biso   1.000  H
  H41      1.0000 0.42870  0.16900  0.41810  Biso   1.000  H
  H42      1.0000 0.12620  0.13500  0.23320  Biso   1.000  H
  H43      1.0000 0.23260  0.46370  0.87700  Biso   1.000  H
  H44      1.0000 0.23070  0.70610  0.98320  Biso   1.000  H
  H45      1.0000 0.38250  0.72820  0.98010  Biso   1.000  H
  H46      1.0000 0.35760  0.79960  0.87840  Biso   1.000  H
  H47      1.0000 0.43570  0.46710  0.76970  Biso   1.000  H
  H48      1.0000 0.54310  0.58570  0.68640  Biso   1.000  H
  H49      1.0000 0.56580  0.51630  0.79010  Biso   1.000  H
  H50      1.0000 0.73300  0.76090  0.95370  Biso   1.000  H
  H51      1.0000 0.57550  0.74050  0.97620  Biso   1.000  H
  H52      1.0000 0.62870  0.64910  0.98170  Biso   1.000  H
  H53      1.0000 0.72440  0.85370  0.51520  Biso   1.000  H
  H54      1.0000 0.61490  0.73460  0.59020  Biso   1.000  H
  H55      1.0000 0.57130  0.83100  0.58190  Biso   1.000  H
  H56      1.0000 0.87380  0.86500  0.76680  Biso   1.000  H
  C23      1.0000 0.01264  0.73928  0.91426  Biso   1.000  C
  C24      1.0000 0.66276  0.34689  0.10111  Biso   1.000  C
  C25      1.0000 0.54126  0.34122  0.16834  Biso   1.000  C
  C26      1.0000 0.58183  0.42859  0.18020  Biso   1.000  C
  C27      1.0000 0.67390  0.27165  0.06145  Biso   1.000  C
  C28      1.0000 0.50260  0.46810  0.23840  Biso   1.000  C
  C29      1.0000 0.31813  0.23426  0.16947  Biso   1.000  C
  C30      1.0000 0.40086  0.26048  0.21810  Biso   1.000  C
  C31      1.0000 0.31548  0.19960  0.32816  Biso   1.000  C
  C32      1.0000 0.34780  0.27435  0.05455  Biso   1.000  C
  C33      1.0000 0.35460  0.19462  0.41792  Biso   1.000  C
  C34      1.0000 0.98736  0.26072  0.08574  Biso   1.000  C
  C35      1.0000 0.33724  0.65311  0.89889  Biso   1.000  C
  C36      1.0000 0.45874  0.65878  0.83166  Biso   1.000  C
  C37      1.0000 0.41817  0.57141  0.81980  Biso   1.000  C
  C38      1.0000 0.32610  0.72835  0.93855  Biso   1.000  C
  C39      1.0000 0.49740  0.53190  0.76160  Biso   1.000  C
  C40      1.0000 0.68187  0.76574  0.83053  Biso   1.000  C
  C41      1.0000 0.59914  0.73952  0.78190  Biso   1.000  C
  C42      1.0000 0.68452  0.80040  0.67184  Biso   1.000  C
  C43      1.0000 0.65220  0.72565  0.94545  Biso   1.000  C
  C44      1.0000 0.64540  0.80538  0.58208  Biso   1.000  C
  S3       1.0000 0.04545  0.86573  0.85639  Biso   1.000  S
  S4       1.0000 0.95455  0.13427  0.14361  Biso   1.000  S
  N11      1.0000 0.99182  0.64935  0.95519  Biso   1.000  N
  N12      1.0000 0.77092  0.43144  0.07598  Biso   1.000  N
  N13      1.0000 0.71800  0.47880  0.12580  Biso   1.000  N
  N14      1.0000 0.19011  0.14047  0.34514  Biso   1.000  N
  N15      1.0000 0.19553  0.16353  0.24574  Biso   1.000  N
  N16      1.0000 0.00818  0.35065  0.04481  Biso   1.000  N
  N17      1.0000 0.22908  0.56856  0.92402  Biso   1.000  N
  N18      1.0000 0.28200  0.52120  0.87420  Biso   1.000  N
  N19      1.0000 0.80989  0.85953  0.65486  Biso   1.000  N
  N20      1.0000 0.80447  0.83647  0.75426  Biso   1.000  N
  Fe3      1.0000 0.00000  0.00000  0.50000  Biso   1.000  Fe
  H57      1.0000 0.89040  0.12300  0.34070  Biso   1.000  H
  H58      1.0000 0.78610  0.01680  0.68930  Biso   1.000  H
  H59      1.0000 0.63740  0.01990  0.70830  Biso   1.000  H
  H60      1.0000 0.76400  0.12160  0.67800  Biso   1.000  H
  H61      1.0000 0.79460  0.23030  0.23680  Biso   1.000  H
  H62      1.0000 0.77050  0.31360  0.27210  Biso   1.000  H
  H63      1.0000 0.64410  0.20990  0.30640  Biso   1.000  H
  H64      1.0000 0.31330  0.04630  0.71460  Biso   1.000  H
  H65      1.0000 0.44830  0.02380  0.71670  Biso   1.000  H
  H66      1.0000 0.38960  0.01830  0.63080  Biso   1.000  H
  H67      1.0000 0.76040  0.48480  0.36890  Biso   1.000  H
  H68      1.0000 0.79490  0.40980  0.32480  Biso   1.000  H
  H69      1.0000 0.84680  0.41810  0.41290  Biso   1.000  H
  H70      1.0000 0.35940  0.23320  0.63180  Biso   1.000  H
  H71      1.0000 0.10960  0.87700  0.65930  Biso   1.000  H
  H72      1.0000 0.21390  0.98320  0.31070  Biso   1.000  H
  H73      1.0000 0.36260  0.98010  0.29170  Biso   1.000  H
  H74      1.0000 0.23600  0.87840  0.32200  Biso   1.000  H
  H75      1.0000 0.20540  0.76970  0.76320  Biso   1.000  H
  H76      1.0000 0.22950  0.68640  0.72790  Biso   1.000  H
  H77      1.0000 0.35590  0.79010  0.69360  Biso   1.000  H
  H78      1.0000 0.68670  0.95370  0.28540  Biso   1.000  H
  H79      1.0000 0.55170  0.97620  0.28330  Biso   1.000  H
  H80      1.0000 0.61040  0.98170  0.36920  Biso   1.000  H
  H81      1.0000 0.23960  0.51520  0.63110  Biso   1.000  H
  H82      1.0000 0.20510  0.59020  0.67520  Biso   1.000  H
  H83      1.0000 0.15320  0.58190  0.58710  Biso   1.000  H
  H84      1.0000 0.64060  0.76680  0.36820  Biso   1.000  H
  C45      1.0000 0.92690  0.91426  0.34646  Biso   1.000  C
  C46      1.0000 0.76387  0.10111  0.55200  Biso   1.000  C
  C47      1.0000 0.70960  0.16834  0.49044  Biso   1.000  C
  C48      1.0000 0.76203  0.18020  0.39121  Biso   1.000  C
  C49      1.0000 0.73535  0.06145  0.66690  Biso   1.000  C
  C50      1.0000 0.74100  0.23840  0.29350  Biso   1.000  C
  C51      1.0000 0.48760  0.16947  0.59627  Biso   1.000  C
  C52      1.0000 0.61896  0.21810  0.52142  Biso   1.000  C
  C53      1.0000 0.64364  0.32816  0.47224  Biso   1.000  C
  C54      1.0000 0.40235  0.05455  0.67110  Biso   1.000  C
  C55      1.0000 0.77252  0.41792  0.38746  Biso   1.000  C
  C56      1.0000 0.07310  0.08574  0.65354  Biso   1.000  C
  C57      1.0000 0.23613  0.89889  0.44800  Biso   1.000  C
  C58      1.0000 0.29040  0.83166  0.50956  Biso   1.000  C
  C59      1.0000 0.23797  0.81980  0.60879  Biso   1.000  C
  C60      1.0000 0.26465  0.93855  0.33310  Biso   1.000  C
  C61      1.0000 0.25900  0.76160  0.70650  Biso   1.000  C
  C62      1.0000 0.51240  0.83053  0.40373  Biso   1.000  C
  C63      1.0000 0.38104  0.78190  0.47858  Biso   1.000  C
  C64      1.0000 0.35636  0.67184  0.52776  Biso   1.000  C
  C65      1.0000 0.59765  0.94545  0.32890  Biso   1.000  C
  C66      1.0000 0.22748  0.58208  0.61254  Biso   1.000  C
  S5       1.0000 0.90184  0.85639  0.27788  Biso   1.000  S
  S6       1.0000 0.09816  0.14361  0.72212  Biso   1.000  S
  N21      1.0000 0.94701  0.95519  0.39546  Biso   1.000  N
  N22      1.0000 0.84690  0.07598  0.49258  Biso   1.000  N
  N23      1.0000 0.84380  0.12580  0.39540  Biso   1.000  N
  N24      1.0000 0.53525  0.34514  0.51439  Biso   1.000  N
  N25      1.0000 0.44127  0.24574  0.59073  Biso   1.000  N
  N26      1.0000 0.05299  0.04481  0.60454  Biso   1.000  N
  N27      1.0000 0.15310  0.92402  0.50742  Biso   1.000  N
  N28      1.0000 0.15620  0.87420  0.60460  Biso   1.000  N
  N29      1.0000 0.46475  0.65486  0.48561  Biso   1.000  N
  N30      1.0000 0.55873  0.75426  0.40927  Biso   1.000  N
