data_image0
_cell_length_a       10.986
_cell_length_b       15.1094
_cell_length_c       15.1094
_cell_angle_alpha    65.6765
_cell_angle_beta     75.9738
_cell_angle_gamma    104.026

_symmetry_space_group_name_H-M    P 1
_symmetry_int_tables_number       1

loop_
  _symmetry_equiv_pos_as_xyz
  'x, y, z'

loop_
  _atom_site_label
  _atom_site_occupancy
  _atom_site_fract_x
  _atom_site_fract_y
  _atom_site_fract_z
  _atom_site_thermal_displace_type
  _atom_site_B_iso_or_equiv
  _atom_site_type_symbol
  Fe1      1.0000 0.50000  0.50000  0.50000  Biso   1.000  Fe
  H1       1.0000 0.23300  0.34480  0.53200  Biso   1.000  H
  H2       1.0000 0.47740  0.68740  0.29200  Biso   1.000  H
  H3       1.0000 0.35190  0.70710  0.26910  Biso   1.000  H
  H4       1.0000 0.44540  0.67620  0.20070  Biso   1.000  H
  H5       1.0000 0.03430  0.24170  0.52970  Biso   1.000  H
  H6       1.0000 0.04390  0.27570  0.41430  Biso   1.000  H
  H7       1.0000 0.95540  0.31000  0.48190  Biso   1.000  H
  H8       1.0000 0.02630  0.71100  0.24240  Biso   1.000  H
  H9       1.0000 0.15960  0.71340  0.26370  Biso   1.000  H
  H10      1.0000 0.01800  0.62860  0.35170  Biso   1.000  H
  H11      1.0000 0.13500  0.37520  0.14450  Biso   1.000  H
  H12      1.0000 0.12780  0.33080  0.26030  Biso   1.000  H
  H13      1.0000 0.26280  0.41860  0.16600  Biso   1.000  H
  H14      1.0000 0.99100  0.62850  0.13950  Biso   1.000  H
  H15      1.0000 0.76700  0.65520  0.46800  Biso   1.000  H
  H16      1.0000 0.52260  0.31260  0.70800  Biso   1.000  H
  H17      1.0000 0.64810  0.29290  0.73090  Biso   1.000  H
  H18      1.0000 0.55460  0.32380  0.79930  Biso   1.000  H
  H19      1.0000 0.96570  0.75830  0.47030  Biso   1.000  H
  H20      1.0000 0.95610  0.72430  0.58570  Biso   1.000  H
  H21      1.0000 0.04460  0.69000  0.51810  Biso   1.000  H
  H22      1.0000 0.97370  0.28900  0.75760  Biso   1.000  H
  H23      1.0000 0.84040  0.28660  0.73630  Biso   1.000  H
  H24      1.0000 0.98200  0.37140  0.64830  Biso   1.000  H
  H25      1.0000 0.86500  0.62480  0.85550  Biso   1.000  H
  H26      1.0000 0.87220  0.66920  0.73970  Biso   1.000  H
  H27      1.0000 0.73720  0.58140  0.83400  Biso   1.000  H
  H28      1.0000 0.00900  0.37150  0.86050  Biso   1.000  H
  C1       1.0000 0.27546  0.34882  0.73564  Biso   1.000  C
  C2       1.0000 0.31890  0.55260  0.34470  Biso   1.000  C
  C3       1.0000 0.20211  0.49242  0.33969  Biso   1.000  C
  C4       1.0000 0.15580  0.39350  0.42650  Biso   1.000  C
  C5       1.0000 0.40610  0.66580  0.27010  Biso   1.000  C
  C6       1.0000 0.03700  0.29680  0.46660  Biso   1.000  C
  C7       1.0000 0.08380  0.59580  0.23640  Biso   1.000  C
  C8       1.0000 0.14229  0.52241  0.26024  Biso   1.000  C
  C9       1.0000 0.11950  0.47460  0.19980  Biso   1.000  C
  C10      1.0000 0.07080  0.66860  0.27710  Biso   1.000  C
  C11      1.0000 0.16520  0.39250  0.19210  Biso   1.000  C
  C12      1.0000 0.72454  0.65118  0.26436  Biso   1.000  C
  C13      1.0000 0.68110  0.44740  0.65530  Biso   1.000  C
  C14      1.0000 0.79789  0.50758  0.66031  Biso   1.000  C
  C15      1.0000 0.84420  0.60650  0.57350  Biso   1.000  C
  C16      1.0000 0.59390  0.33420  0.72990  Biso   1.000  C
  C17      1.0000 0.96300  0.70320  0.53340  Biso   1.000  C
  C18      1.0000 0.91620  0.40420  0.76360  Biso   1.000  C
  C19      1.0000 0.85771  0.47759  0.73976  Biso   1.000  C
  C20      1.0000 0.88050  0.52540  0.80020  Biso   1.000  C
  C21      1.0000 0.92920  0.33140  0.72290  Biso   1.000  C
  C22      1.0000 0.83480  0.60750  0.80790  Biso   1.000  C
  S1       1.0000 0.18420  0.28247  0.86072  Biso   1.000  S
  S2       1.0000 0.81580  0.71753  0.13928  Biso   1.000  S
  N1       1.0000 0.34377  0.39634  0.64723  Biso   1.000  N
  N2       1.0000 0.34173  0.49387  0.42838  Biso   1.000  N
  N3       1.0000 0.24121  0.39784  0.47581  Biso   1.000  N
  N4       1.0000 0.05103  0.51529  0.14230  Biso   1.000  N
  N5       1.0000 0.03216  0.58934  0.16646  Biso   1.000  N
  N6       1.0000 0.65623  0.60366  0.35277  Biso   1.000  N
  N7       1.0000 0.65827  0.50613  0.57162  Biso   1.000  N
  N8       1.0000 0.75879  0.60216  0.52419  Biso   1.000  N
  N9       1.0000 0.94897  0.48471  0.85770  Biso   1.000  N
  N10      1.0000 0.96784  0.41066  0.83354  Biso   1.000  N
  Fe2      1.0000 0.00000  0.50000  0.00000  Biso   1.000  Fe
  H29      1.0000 0.76500  0.53200  0.12320  Biso   1.000  H
  H30      1.0000 0.76940  0.29200  0.02060  Biso   1.000  H
  H31      1.0000 0.62100  0.26910  0.02380  Biso   1.000  H
  H32      1.0000 0.64610  0.20070  0.12310  Biso   1.000  H
  H33      1.0000 0.56400  0.52970  0.22860  Biso   1.000  H
  H34      1.0000 0.45820  0.41430  0.31000  Biso   1.000  H
  H35      1.0000 0.43730  0.48190  0.20810  Biso   1.000  H
  H36      1.0000 0.26870  0.24240  0.04660  Biso   1.000  H
  H37      1.0000 0.42330  0.26370  0.02290  Biso   1.000  H
  H38      1.0000 0.36970  0.35170  0.01970  Biso   1.000  H
  H39      1.0000 0.27950  0.14450  0.48030  Biso   1.000  H
  H40      1.0000 0.38810  0.26030  0.40890  Biso   1.000  H
  H41      1.0000 0.42880  0.16600  0.41540  Biso   1.000  H
  H42      1.0000 0.13050  0.13950  0.23200  Biso   1.000  H
  H43      1.0000 0.23500  0.46800  0.87680  Biso   1.000  H
  H44      1.0000 0.23060  0.70800  0.97940  Biso   1.000  H
  H45      1.0000 0.37900  0.73090  0.97620  Biso   1.000  H
  H46      1.0000 0.35390  0.79930  0.87690  Biso   1.000  H
  H47      1.0000 0.43600  0.47030  0.77140  Biso   1.000  H
  H48      1.0000 0.54180  0.58570  0.69000  Biso   1.000  H
  H49      1.0000 0.56270  0.51810  0.79190  Biso   1.000  H
  H50      1.0000 0.73130  0.75760  0.95340  Biso   1.000  H
  H51      1.0000 0.57670  0.73630  0.97710  Biso   1.000  H
  H52      1.0000 0.63030  0.64830  0.98030  Biso   1.000  H
  H53      1.0000 0.72050  0.85550  0.51970  Biso   1.000  H
  H54      1.0000 0.61190  0.73970  0.59110  Biso   1.000  H
  H55      1.0000 0.57120  0.83400  0.58460  Biso   1.000  H
  H56      1.0000 0.86950  0.86050  0.76800  Biso   1.000  H
  C23      1.0000 0.01110  0.73564  0.91554  Biso   1.000  C
  C24      1.0000 0.66360  0.34470  0.10270  Biso   1.000  C
  C25      1.0000 0.54180  0.33969  0.16789  Biso   1.000  C
  C26      1.0000 0.58230  0.42650  0.18000  Biso   1.000  C
  C27      1.0000 0.67620  0.27010  0.06410  Biso   1.000  C
  C28      1.0000 0.50360  0.46660  0.23660  Biso   1.000  C
  C29      1.0000 0.32020  0.23640  0.16780  Biso   1.000  C
  C30      1.0000 0.40253  0.26024  0.21735  Biso   1.000  C
  C31      1.0000 0.31930  0.19980  0.32560  Biso   1.000  C
  C32      1.0000 0.34790  0.27710  0.05430  Biso   1.000  C
  C33      1.0000 0.35730  0.19210  0.41540  Biso   1.000  C
  C34      1.0000 0.98890  0.26436  0.08446  Biso   1.000  C
  C35      1.0000 0.33640  0.65530  0.89730  Biso   1.000  C
  C36      1.0000 0.45820  0.66031  0.83211  Biso   1.000  C
  C37      1.0000 0.41770  0.57350  0.82000  Biso   1.000  C
  C38      1.0000 0.32380  0.72990  0.93590  Biso   1.000  C
  C39      1.0000 0.49640  0.53340  0.76340  Biso   1.000  C
  C40      1.0000 0.67980  0.76360  0.83220  Biso   1.000  C
  C41      1.0000 0.59747  0.73976  0.78265  Biso   1.000  C
  C42      1.0000 0.68070  0.80020  0.67440  Biso   1.000  C
  C43      1.0000 0.65210  0.72290  0.94570  Biso   1.000  C
  C44      1.0000 0.64270  0.80790  0.58460  Biso   1.000  C
  S3       1.0000 0.04492  0.86072  0.85681  Biso   1.000  S
  S4       1.0000 0.95508  0.13928  0.14319  Biso   1.000  S
  N11      1.0000 0.99100  0.64723  0.95643  Biso   1.000  N
  N12      1.0000 0.77011  0.42838  0.07775  Biso   1.000  N
  N13      1.0000 0.71702  0.47581  0.12635  Biso   1.000  N
  N14      1.0000 0.19333  0.14230  0.34241  Biso   1.000  N
  N15      1.0000 0.19862  0.16646  0.24420  Biso   1.000  N
  N16      1.0000 0.00900  0.35277  0.04357  Biso   1.000  N
  N17      1.0000 0.22989  0.57162  0.92225  Biso   1.000  N
  N18      1.0000 0.28298  0.52419  0.87365  Biso   1.000  N
  N19      1.0000 0.80667  0.85770  0.65759  Biso   1.000  N
  N20      1.0000 0.80138  0.83354  0.75580  Biso   1.000  N
  Fe3      1.0000 0.00000  0.00000  0.50000  Biso   1.000  Fe
  H57      1.0000 0.88820  0.12320  0.34480  Biso   1.000  H
  H58      1.0000 0.79000  0.02060  0.68740  Biso   1.000  H
  H59      1.0000 0.64480  0.02380  0.70710  Biso   1.000  H
  H60      1.0000 0.76920  0.12310  0.67620  Biso   1.000  H
  H61      1.0000 0.79260  0.22860  0.24170  Biso   1.000  H
  H62      1.0000 0.76820  0.31000  0.27570  Biso   1.000  H
  H63      1.0000 0.64540  0.20810  0.31000  Biso   1.000  H
  H64      1.0000 0.31530  0.04660  0.71100  Biso   1.000  H
  H65      1.0000 0.44620  0.02290  0.71340  Biso   1.000  H
  H66      1.0000 0.38940  0.01970  0.62860  Biso   1.000  H
  H67      1.0000 0.75980  0.48030  0.37520  Biso   1.000  H
  H68      1.0000 0.79700  0.40890  0.33080  Biso   1.000  H
  H69      1.0000 0.84420  0.41540  0.41860  Biso   1.000  H
  H70      1.0000 0.36250  0.23200  0.62850  Biso   1.000  H
  H71      1.0000 0.11180  0.87680  0.65520  Biso   1.000  H
  H72      1.0000 0.21000  0.97940  0.31260  Biso   1.000  H
  H73      1.0000 0.35520  0.97620  0.29290  Biso   1.000  H
  H74      1.0000 0.23080  0.87690  0.32380  Biso   1.000  H
  H75      1.0000 0.20740  0.77140  0.75830  Biso   1.000  H
  H76      1.0000 0.23180  0.69000  0.72430  Biso   1.000  H
  H77      1.0000 0.35460  0.79190  0.69000  Biso   1.000  H
  H78      1.0000 0.68470  0.95340  0.28900  Biso   1.000  H
  H79      1.0000 0.55380  0.97710  0.28660  Biso   1.000  H
  H80      1.0000 0.61060  0.98030  0.37140  Biso   1.000  H
  H81      1.0000 0.24020  0.51970  0.62480  Biso   1.000  H
  H82      1.0000 0.20300  0.59110  0.66920  Biso   1.000  H
  H83      1.0000 0.15580  0.58460  0.58140  Biso   1.000  H
  H84      1.0000 0.63750  0.76800  0.37150  Biso   1.000  H
  C45      1.0000 0.92664  0.91554  0.34882  Biso   1.000  C
  C46      1.0000 0.76630  0.10270  0.55260  Biso   1.000  C
  C47      1.0000 0.70969  0.16789  0.49242  Biso   1.000  C
  C48      1.0000 0.76230  0.18000  0.39350  Biso   1.000  C
  C49      1.0000 0.74030  0.06410  0.66580  Biso   1.000  C
  C50      1.0000 0.74020  0.23660  0.29680  Biso   1.000  C
  C51      1.0000 0.48800  0.16780  0.59580  Biso   1.000  C
  C52      1.0000 0.61988  0.21735  0.52241  Biso   1.000  C
  C53      1.0000 0.64490  0.32560  0.47460  Biso   1.000  C
  C54      1.0000 0.40220  0.05430  0.66860  Biso   1.000  C
  C55      1.0000 0.77270  0.41540  0.39250  Biso   1.000  C
  C56      1.0000 0.07336  0.08446  0.65118  Biso   1.000  C
  C57      1.0000 0.23370  0.89730  0.44740  Biso   1.000  C
  C58      1.0000 0.29031  0.83211  0.50758  Biso   1.000  C
  C59      1.0000 0.23770  0.82000  0.60650  Biso   1.000  C
  C60      1.0000 0.25970  0.93590  0.33420  Biso   1.000  C
  C61      1.0000 0.25980  0.76340  0.70320  Biso   1.000  C
  C62      1.0000 0.51200  0.83220  0.40420  Biso   1.000  C
  C63      1.0000 0.38012  0.78265  0.47759  Biso   1.000  C
  C64      1.0000 0.35510  0.67440  0.52540  Biso   1.000  C
  C65      1.0000 0.59780  0.94570  0.33140  Biso   1.000  C
  C66      1.0000 0.22730  0.58460  0.60750  Biso   1.000  C
  S5       1.0000 0.90173  0.85681  0.28247  Biso   1.000  S
  S6       1.0000 0.09827  0.14319  0.71753  Biso   1.000  S
  N21      1.0000 0.94743  0.95643  0.39634  Biso   1.000  N
  N22      1.0000 0.84786  0.07775  0.49387  Biso   1.000  N
  N23      1.0000 0.84337  0.12635  0.39784  Biso   1.000  N
  N24      1.0000 0.53574  0.34241  0.51529  Biso   1.000  N
  N25      1.0000 0.44282  0.24420  0.58934  Biso   1.000  N
  N26      1.0000 0.05257  0.04357  0.60366  Biso   1.000  N
  N27      1.0000 0.15214  0.92225  0.50613  Biso   1.000  N
  N28      1.0000 0.15663  0.87365  0.60216  Biso   1.000  N
  N29      1.0000 0.46426  0.65759  0.48471  Biso   1.000  N
  N30      1.0000 0.55718  0.75580  0.41066  Biso   1.000  N
