data_image0
_cell_length_a       10.9672
_cell_length_b       15.0587
_cell_length_c       15.0587
_cell_angle_alpha    65.6948
_cell_angle_beta     75.9502
_cell_angle_gamma    104.05

_symmetry_space_group_name_H-M    P 1
_symmetry_int_tables_number       1

loop_
  _symmetry_equiv_pos_as_xyz
  'x, y, z'

loop_
  _atom_site_label
  _atom_site_occupancy
  _atom_site_fract_x
  _atom_site_fract_y
  _atom_site_fract_z
  _atom_site_thermal_displace_type
  _atom_site_B_iso_or_equiv
  _atom_site_type_symbol
  Fe1      1.0000 0.50000  0.50000  0.50000  Biso   1.000  Fe
  H1       1.0000 0.23080  0.34160  0.53600  Biso   1.000  H
  H2       1.0000 0.47640  0.68910  0.29400  Biso   1.000  H
  H3       1.0000 0.34780  0.70920  0.27090  Biso   1.000  H
  H4       1.0000 0.44350  0.67800  0.20040  Biso   1.000  H
  H5       1.0000 0.03170  0.23730  0.53190  Biso   1.000  H
  H6       1.0000 0.04320  0.27290  0.41330  Biso   1.000  H
  H7       1.0000 0.95090  0.30680  0.48290  Biso   1.000  H
  H8       1.0000 0.02830  0.71580  0.23670  Biso   1.000  H
  H9       1.0000 0.16540  0.71880  0.25710  Biso   1.000  H
  H10      1.0000 0.02080  0.63300  0.34890  Biso   1.000  H
  H11      1.0000 0.12900  0.36920  0.14660  Biso   1.000  H
  H12      1.0000 0.11880  0.32480  0.26600  Biso   1.000  H
  H13      1.0000 0.25910  0.41230  0.16990  Biso   1.000  H
  H14      1.0000 0.99130  0.63130  0.13420  Biso   1.000  H
  H15      1.0000 0.76920  0.65840  0.46400  Biso   1.000  H
  H16      1.0000 0.52360  0.31090  0.70600  Biso   1.000  H
  H17      1.0000 0.65220  0.29080  0.72910  Biso   1.000  H
  H18      1.0000 0.55650  0.32200  0.79960  Biso   1.000  H
  H19      1.0000 0.96830  0.76270  0.46810  Biso   1.000  H
  H20      1.0000 0.95680  0.72710  0.58670  Biso   1.000  H
  H21      1.0000 0.04910  0.69320  0.51710  Biso   1.000  H
  H22      1.0000 0.97170  0.28420  0.76330  Biso   1.000  H
  H23      1.0000 0.83460  0.28120  0.74290  Biso   1.000  H
  H24      1.0000 0.97920  0.36700  0.65110  Biso   1.000  H
  H25      1.0000 0.87100  0.63080  0.85340  Biso   1.000  H
  H26      1.0000 0.88120  0.67520  0.73400  Biso   1.000  H
  H27      1.0000 0.74090  0.58770  0.83010  Biso   1.000  H
  H28      1.0000 0.00870  0.36870  0.86580  Biso   1.000  H
  C1       1.0000 0.27458  0.34831  0.73867  Biso   1.000  C
  C2       1.0000 0.31601  0.55259  0.34646  Biso   1.000  C
  C3       1.0000 0.20026  0.49137  0.34059  Biso   1.000  C
  C4       1.0000 0.15362  0.39150  0.42804  Biso   1.000  C
  C5       1.0000 0.40344  0.66705  0.27153  Biso   1.000  C
  C6       1.0000 0.03477  0.29388  0.46737  Biso   1.000  C
  C7       1.0000 0.08465  0.59721  0.23346  Biso   1.000  C
  C8       1.0000 0.14014  0.52145  0.26003  Biso   1.000  C
  C9       1.0000 0.11641  0.47245  0.19972  Biso   1.000  C
  C10      1.0000 0.07382  0.67266  0.27240  Biso   1.000  C
  C11      1.0000 0.15950  0.38745  0.19515  Biso   1.000  C
  C12      1.0000 0.72542  0.65169  0.26133  Biso   1.000  C
  C13      1.0000 0.68399  0.44741  0.65354  Biso   1.000  C
  C14      1.0000 0.79974  0.50863  0.65941  Biso   1.000  C
  C15      1.0000 0.84638  0.60850  0.57196  Biso   1.000  C
  C16      1.0000 0.59656  0.33295  0.72847  Biso   1.000  C
  C17      1.0000 0.96523  0.70612  0.53263  Biso   1.000  C
  C18      1.0000 0.91535  0.40279  0.76654  Biso   1.000  C
  C19      1.0000 0.85986  0.47855  0.73997  Biso   1.000  C
  C20      1.0000 0.88359  0.52755  0.80028  Biso   1.000  C
  C21      1.0000 0.92618  0.32734  0.72760  Biso   1.000  C
  C22      1.0000 0.84050  0.61255  0.80485  Biso   1.000  C
  S1       1.0000 0.18150  0.28057  0.86536  Biso   1.000  S
  S2       1.0000 0.81850  0.71943  0.13464  Biso   1.000  S
  N1       1.0000 0.34324  0.39629  0.64853  Biso   1.000  N
  N2       1.0000 0.33935  0.49339  0.43072  Biso   1.000  N
  N3       1.0000 0.23906  0.39598  0.47836  Biso   1.000  N
  N4       1.0000 0.04913  0.51418  0.14068  Biso   1.000  N
  N5       1.0000 0.03222  0.59056  0.16285  Biso   1.000  N
  N6       1.0000 0.65676  0.60371  0.35147  Biso   1.000  N
  N7       1.0000 0.66065  0.50661  0.56928  Biso   1.000  N
  N8       1.0000 0.76094  0.60402  0.52164  Biso   1.000  N
  N9       1.0000 0.95087  0.48582  0.85932  Biso   1.000  N
  N10      1.0000 0.96778  0.40944  0.83715  Biso   1.000  N
  Fe2      1.0000 0.00000  0.50000  0.00000  Biso   1.000  Fe
  H29      1.0000 0.76680  0.53600  0.12240  Biso   1.000  H
  H30      1.0000 0.77040  0.29400  0.01690  Biso   1.000  H
  H31      1.0000 0.61870  0.27090  0.01990  Biso   1.000  H
  H32      1.0000 0.64390  0.20040  0.12160  Biso   1.000  H
  H33      1.0000 0.56360  0.53190  0.23080  Biso   1.000  H
  H34      1.0000 0.45650  0.41330  0.31380  Biso   1.000  H
  H35      1.0000 0.43380  0.48290  0.21030  Biso   1.000  H
  H36      1.0000 0.26500  0.23670  0.04750  Biso   1.000  H
  H37      1.0000 0.42250  0.25710  0.02410  Biso   1.000  H
  H38      1.0000 0.36970  0.34890  0.01810  Biso   1.000  H
  H39      1.0000 0.27560  0.14660  0.48420  Biso   1.000  H
  H40      1.0000 0.38480  0.26600  0.40920  Biso   1.000  H
  H41      1.0000 0.42900  0.16990  0.41780  Biso   1.000  H
  H42      1.0000 0.12550  0.13420  0.23450  Biso   1.000  H
  H43      1.0000 0.23320  0.46400  0.87760  Biso   1.000  H
  H44      1.0000 0.22960  0.70600  0.98310  Biso   1.000  H
  H45      1.0000 0.38130  0.72910  0.98010  Biso   1.000  H
  H46      1.0000 0.35610  0.79960  0.87840  Biso   1.000  H
  H47      1.0000 0.43640  0.46810  0.76920  Biso   1.000  H
  H48      1.0000 0.54350  0.58670  0.68620  Biso   1.000  H
  H49      1.0000 0.56620  0.51710  0.78970  Biso   1.000  H
  H50      1.0000 0.73500  0.76330  0.95250  Biso   1.000  H
  H51      1.0000 0.57750  0.74290  0.97590  Biso   1.000  H
  H52      1.0000 0.63030  0.65110  0.98190  Biso   1.000  H
  H53      1.0000 0.72440  0.85340  0.51580  Biso   1.000  H
  H54      1.0000 0.61520  0.73400  0.59080  Biso   1.000  H
  H55      1.0000 0.57100  0.83010  0.58220  Biso   1.000  H
  H56      1.0000 0.87450  0.86580  0.76550  Biso   1.000  H
  C23      1.0000 0.01325  0.73867  0.91302  Biso   1.000  C
  C24      1.0000 0.66247  0.34646  0.10095  Biso   1.000  C
  C25      1.0000 0.54085  0.34059  0.16804  Biso   1.000  C
  C26      1.0000 0.58166  0.42804  0.18046  Biso   1.000  C
  C27      1.0000 0.67497  0.27153  0.06142  Biso   1.000  C
  C28      1.0000 0.50214  0.46737  0.23875  Biso   1.000  C
  C29      1.0000 0.31811  0.23346  0.16933  Biso   1.000  C
  C30      1.0000 0.40017  0.26003  0.21852  Biso   1.000  C
  C31      1.0000 0.31613  0.19972  0.32783  Biso   1.000  C
  C32      1.0000 0.34622  0.27240  0.05494  Biso   1.000  C
  C33      1.0000 0.35465  0.19515  0.41740  Biso   1.000  C
  C34      1.0000 0.98675  0.26133  0.08698  Biso   1.000  C
  C35      1.0000 0.33753  0.65354  0.89905  Biso   1.000  C
  C36      1.0000 0.45915  0.65941  0.83196  Biso   1.000  C
  C37      1.0000 0.41834  0.57196  0.81954  Biso   1.000  C
  C38      1.0000 0.32503  0.72847  0.93858  Biso   1.000  C
  C39      1.0000 0.49786  0.53263  0.76125  Biso   1.000  C
  C40      1.0000 0.68189  0.76654  0.83067  Biso   1.000  C
  C41      1.0000 0.59983  0.73997  0.78148  Biso   1.000  C
  C42      1.0000 0.68387  0.80028  0.67217  Biso   1.000  C
  C43      1.0000 0.65378  0.72760  0.94506  Biso   1.000  C
  C44      1.0000 0.64535  0.80485  0.58260  Biso   1.000  C
  S3       1.0000 0.04686  0.86536  0.85407  Biso   1.000  S
  S4       1.0000 0.95314  0.13464  0.14593  Biso   1.000  S
  N11      1.0000 0.99177  0.64853  0.95518  Biso   1.000  N
  N12      1.0000 0.77007  0.43072  0.07589  Biso   1.000  N
  N13      1.0000 0.71742  0.47836  0.12566  Biso   1.000  N
  N14      1.0000 0.18981  0.14068  0.34514  Biso   1.000  N
  N15      1.0000 0.19507  0.16285  0.24659  Biso   1.000  N
  N16      1.0000 0.00823  0.35147  0.04482  Biso   1.000  N
  N17      1.0000 0.22993  0.56928  0.92411  Biso   1.000  N
  N18      1.0000 0.28258  0.52164  0.87434  Biso   1.000  N
  N19      1.0000 0.81019  0.85932  0.65486  Biso   1.000  N
  N20      1.0000 0.80493  0.83715  0.75341  Biso   1.000  N
  Fe3      1.0000 0.00000  0.00000  0.50000  Biso   1.000  Fe
  H57      1.0000 0.88920  0.12240  0.34160  Biso   1.000  H
  H58      1.0000 0.78730  0.01690  0.68910  Biso   1.000  H
  H59      1.0000 0.63860  0.01990  0.70920  Biso   1.000  H
  H60      1.0000 0.76550  0.12160  0.67800  Biso   1.000  H
  H61      1.0000 0.79440  0.23080  0.23730  Biso   1.000  H
  H62      1.0000 0.77030  0.31380  0.27290  Biso   1.000  H
  H63      1.0000 0.64410  0.21030  0.30680  Biso   1.000  H
  H64      1.0000 0.31250  0.04750  0.71580  Biso   1.000  H
  H65      1.0000 0.44660  0.02410  0.71880  Biso   1.000  H
  H66      1.0000 0.38780  0.01810  0.63300  Biso   1.000  H
  H67      1.0000 0.75980  0.48420  0.36920  Biso   1.000  H
  H68      1.0000 0.79400  0.40920  0.32480  Biso   1.000  H
  H69      1.0000 0.84680  0.41780  0.41230  Biso   1.000  H
  H70      1.0000 0.36000  0.23450  0.63130  Biso   1.000  H
  H71      1.0000 0.11080  0.87760  0.65840  Biso   1.000  H
  H72      1.0000 0.21270  0.98310  0.31090  Biso   1.000  H
  H73      1.0000 0.36140  0.98010  0.29080  Biso   1.000  H
  H74      1.0000 0.23450  0.87840  0.32200  Biso   1.000  H
  H75      1.0000 0.20560  0.76920  0.76270  Biso   1.000  H
  H76      1.0000 0.22970  0.68620  0.72710  Biso   1.000  H
  H77      1.0000 0.35590  0.78970  0.69320  Biso   1.000  H
  H78      1.0000 0.68750  0.95250  0.28420  Biso   1.000  H
  H79      1.0000 0.55340  0.97590  0.28120  Biso   1.000  H
  H80      1.0000 0.61220  0.98190  0.36700  Biso   1.000  H
  H81      1.0000 0.24020  0.51580  0.63080  Biso   1.000  H
  H82      1.0000 0.20600  0.59080  0.67520  Biso   1.000  H
  H83      1.0000 0.15320  0.58220  0.58770  Biso   1.000  H
  H84      1.0000 0.64000  0.76550  0.36870  Biso   1.000  H
  C45      1.0000 0.92627  0.91302  0.34831  Biso   1.000  C
  C46      1.0000 0.76342  0.10095  0.55259  Biso   1.000  C
  C47      1.0000 0.70889  0.16804  0.49137  Biso   1.000  C
  C48      1.0000 0.76212  0.18046  0.39150  Biso   1.000  C
  C49      1.0000 0.73639  0.06142  0.66705  Biso   1.000  C
  C50      1.0000 0.74089  0.23875  0.29388  Biso   1.000  C
  C51      1.0000 0.48744  0.16933  0.59721  Biso   1.000  C
  C52      1.0000 0.61869  0.21852  0.52145  Biso   1.000  C
  C53      1.0000 0.64396  0.32783  0.47245  Biso   1.000  C
  C54      1.0000 0.40116  0.05494  0.67266  Biso   1.000  C
  C55      1.0000 0.77205  0.41740  0.38745  Biso   1.000  C
  C56      1.0000 0.07373  0.08698  0.65169  Biso   1.000  C
  C57      1.0000 0.23658  0.89905  0.44741  Biso   1.000  C
  C58      1.0000 0.29111  0.83196  0.50863  Biso   1.000  C
  C59      1.0000 0.23788  0.81954  0.60850  Biso   1.000  C
  C60      1.0000 0.26361  0.93858  0.33295  Biso   1.000  C
  C61      1.0000 0.25911  0.76125  0.70612  Biso   1.000  C
  C62      1.0000 0.51256  0.83067  0.40279  Biso   1.000  C
  C63      1.0000 0.38131  0.78148  0.47855  Biso   1.000  C
  C64      1.0000 0.35604  0.67217  0.52755  Biso   1.000  C
  C65      1.0000 0.59884  0.94506  0.32734  Biso   1.000  C
  C66      1.0000 0.22795  0.58260  0.61255  Biso   1.000  C
  S5       1.0000 0.90093  0.85407  0.28057  Biso   1.000  S
  S6       1.0000 0.09907  0.14593  0.71943  Biso   1.000  S
  N21      1.0000 0.94695  0.95518  0.39629  Biso   1.000  N
  N22      1.0000 0.84596  0.07589  0.49339  Biso   1.000  N
  N23      1.0000 0.84308  0.12566  0.39598  Biso   1.000  N
  N24      1.0000 0.53495  0.34514  0.51418  Biso   1.000  N
  N25      1.0000 0.44166  0.24659  0.59056  Biso   1.000  N
  N26      1.0000 0.05305  0.04482  0.60371  Biso   1.000  N
  N27      1.0000 0.15404  0.92411  0.50661  Biso   1.000  N
  N28      1.0000 0.15692  0.87434  0.60402  Biso   1.000  N
  N29      1.0000 0.46505  0.65486  0.48582  Biso   1.000  N
  N30      1.0000 0.55834  0.75341  0.40944  Biso   1.000  N
