data_image0
_cell_length_a       10.9463
_cell_length_b       15.0463
_cell_length_c       15.0463
_cell_angle_alpha    65.6827
_cell_angle_beta     75.9658
_cell_angle_gamma    104.034

_symmetry_space_group_name_H-M    P 1
_symmetry_int_tables_number       1

loop_
  _symmetry_equiv_pos_as_xyz
  'x, y, z'

loop_
  _atom_site_label
  _atom_site_occupancy
  _atom_site_fract_x
  _atom_site_fract_y
  _atom_site_fract_z
  _atom_site_thermal_displace_type
  _atom_site_B_iso_or_equiv
  _atom_site_type_symbol
  Fe1      1.0000 0.50000  0.50000  0.50000  Biso   1.000  Fe
  H1       1.0000 0.22950  0.34110  0.53640  Biso   1.000  H
  H2       1.0000 0.47580  0.68890  0.29470  Biso   1.000  H
  H3       1.0000 0.34690  0.70900  0.27160  Biso   1.000  H
  H4       1.0000 0.44310  0.67830  0.20070  Biso   1.000  H
  H5       1.0000 0.03100  0.23750  0.53240  Biso   1.000  H
  H6       1.0000 0.04170  0.27250  0.41410  Biso   1.000  H
  H7       1.0000 0.94980  0.30700  0.48340  Biso   1.000  H
  H8       1.0000 0.02680  0.71520  0.23700  Biso   1.000  H
  H9       1.0000 0.16400  0.71820  0.25770  Biso   1.000  H
  H10      1.0000 0.01910  0.63230  0.34940  Biso   1.000  H
  H11      1.0000 0.12860  0.36920  0.14660  Biso   1.000  H
  H12      1.0000 0.11870  0.32490  0.26580  Biso   1.000  H
  H13      1.0000 0.25910  0.41240  0.16970  Biso   1.000  H
  H14      1.0000 0.99160  0.63160  0.13390  Biso   1.000  H
  H15      1.0000 0.77050  0.65890  0.46360  Biso   1.000  H
  H16      1.0000 0.52420  0.31110  0.70530  Biso   1.000  H
  H17      1.0000 0.65310  0.29100  0.72840  Biso   1.000  H
  H18      1.0000 0.55690  0.32170  0.79930  Biso   1.000  H
  H19      1.0000 0.96900  0.76250  0.46760  Biso   1.000  H
  H20      1.0000 0.95830  0.72750  0.58590  Biso   1.000  H
  H21      1.0000 0.05020  0.69300  0.51660  Biso   1.000  H
  H22      1.0000 0.97320  0.28480  0.76300  Biso   1.000  H
  H23      1.0000 0.83600  0.28180  0.74230  Biso   1.000  H
  H24      1.0000 0.98090  0.36770  0.65060  Biso   1.000  H
  H25      1.0000 0.87140  0.63080  0.85340  Biso   1.000  H
  H26      1.0000 0.88130  0.67510  0.73420  Biso   1.000  H
  H27      1.0000 0.74090  0.58760  0.83030  Biso   1.000  H
  H28      1.0000 0.00840  0.36840  0.86610  Biso   1.000  H
  C1       1.0000 0.27501  0.34864  0.73831  Biso   1.000  C
  C2       1.0000 0.31539  0.55226  0.34679  Biso   1.000  C
  C3       1.0000 0.19975  0.49150  0.34075  Biso   1.000  C
  C4       1.0000 0.15280  0.39172  0.42802  Biso   1.000  C
  C5       1.0000 0.40274  0.66695  0.27203  Biso   1.000  C
  C6       1.0000 0.03371  0.29389  0.46786  Biso   1.000  C
  C7       1.0000 0.08337  0.59690  0.23399  Biso   1.000  C
  C8       1.0000 0.13992  0.52154  0.26018  Biso   1.000  C
  C9       1.0000 0.11615  0.47259  0.19974  Biso   1.000  C
  C10      1.0000 0.07236  0.67203  0.27285  Biso   1.000  C
  C11      1.0000 0.15934  0.38747  0.19505  Biso   1.000  C
  C12      1.0000 0.72499  0.65136  0.26169  Biso   1.000  C
  C13      1.0000 0.68461  0.44774  0.65321  Biso   1.000  C
  C14      1.0000 0.80025  0.50850  0.65925  Biso   1.000  C
  C15      1.0000 0.84720  0.60828  0.57198  Biso   1.000  C
  C16      1.0000 0.59726  0.33305  0.72797  Biso   1.000  C
  C17      1.0000 0.96629  0.70611  0.53214  Biso   1.000  C
  C18      1.0000 0.91663  0.40310  0.76601  Biso   1.000  C
  C19      1.0000 0.86008  0.47846  0.73982  Biso   1.000  C
  C20      1.0000 0.88385  0.52741  0.80026  Biso   1.000  C
  C21      1.0000 0.92764  0.32797  0.72715  Biso   1.000  C
  C22      1.0000 0.84066  0.61253  0.80495  Biso   1.000  C
  S1       1.0000 0.18200  0.28038  0.86505  Biso   1.000  S
  S2       1.0000 0.81800  0.71962  0.13495  Biso   1.000  S
  N1       1.0000 0.34346  0.39652  0.64813  Biso   1.000  N
  N2       1.0000 0.33886  0.49328  0.43100  Biso   1.000  N
  N3       1.0000 0.23805  0.39567  0.47868  Biso   1.000  N
  N4       1.0000 0.04883  0.51429  0.14076  Biso   1.000  N
  N5       1.0000 0.03200  0.59050  0.16300  Biso   1.000  N
  N6       1.0000 0.65654  0.60348  0.35187  Biso   1.000  N
  N7       1.0000 0.66114  0.50672  0.56900  Biso   1.000  N
  N8       1.0000 0.76195  0.60433  0.52132  Biso   1.000  N
  N9       1.0000 0.95117  0.48571  0.85924  Biso   1.000  N
  N10      1.0000 0.96800  0.40950  0.83700  Biso   1.000  N
  Fe2      1.0000 0.00000  0.50000  0.00000  Biso   1.000  Fe
  H29      1.0000 0.76590  0.53640  0.12250  Biso   1.000  H
  H30      1.0000 0.77050  0.29470  0.01640  Biso   1.000  H
  H31      1.0000 0.61850  0.27160  0.01940  Biso   1.000  H
  H32      1.0000 0.64380  0.20070  0.12100  Biso   1.000  H
  H33      1.0000 0.56340  0.53240  0.23010  Biso   1.000  H
  H34      1.0000 0.45580  0.41410  0.31340  Biso   1.000  H
  H35      1.0000 0.43320  0.48340  0.20960  Biso   1.000  H
  H36      1.0000 0.26380  0.23700  0.04780  Biso   1.000  H
  H37      1.0000 0.42170  0.25770  0.02410  Biso   1.000  H
  H38      1.0000 0.36850  0.34940  0.01830  Biso   1.000  H
  H39      1.0000 0.27520  0.14660  0.48420  Biso   1.000  H
  H40      1.0000 0.38450  0.26580  0.40930  Biso   1.000  H
  H41      1.0000 0.42880  0.16970  0.41790  Biso   1.000  H
  H42      1.0000 0.12550  0.13390  0.23450  Biso   1.000  H
  H43      1.0000 0.23410  0.46360  0.87750  Biso   1.000  H
  H44      1.0000 0.22950  0.70530  0.98360  Biso   1.000  H
  H45      1.0000 0.38150  0.72840  0.98060  Biso   1.000  H
  H46      1.0000 0.35620  0.79930  0.87900  Biso   1.000  H
  H47      1.0000 0.43660  0.46760  0.76990  Biso   1.000  H
  H48      1.0000 0.54420  0.58590  0.68660  Biso   1.000  H
  H49      1.0000 0.56680  0.51660  0.79040  Biso   1.000  H
  H50      1.0000 0.73620  0.76300  0.95220  Biso   1.000  H
  H51      1.0000 0.57830  0.74230  0.97590  Biso   1.000  H
  H52      1.0000 0.63150  0.65060  0.98170  Biso   1.000  H
  H53      1.0000 0.72480  0.85340  0.51580  Biso   1.000  H
  H54      1.0000 0.61550  0.73420  0.59070  Biso   1.000  H
  H55      1.0000 0.57120  0.83030  0.58210  Biso   1.000  H
  H56      1.0000 0.87450  0.86610  0.76550  Biso   1.000  H
  C23      1.0000 0.01332  0.73831  0.91305  Biso   1.000  C
  C24      1.0000 0.66218  0.34679  0.10095  Biso   1.000  C
  C25      1.0000 0.54050  0.34075  0.16775  Biso   1.000  C
  C26      1.0000 0.58082  0.42802  0.18026  Biso   1.000  C
  C27      1.0000 0.67477  0.27203  0.06102  Biso   1.000  C
  C28      1.0000 0.50157  0.46786  0.23825  Biso   1.000  C
  C29      1.0000 0.31736  0.23399  0.16911  Biso   1.000  C
  C30      1.0000 0.40010  0.26018  0.21828  Biso   1.000  C
  C31      1.0000 0.31589  0.19974  0.32767  Biso   1.000  C
  C32      1.0000 0.34521  0.27285  0.05512  Biso   1.000  C
  C33      1.0000 0.35439  0.19505  0.41748  Biso   1.000  C
  C34      1.0000 0.98668  0.26169  0.08695  Biso   1.000  C
  C35      1.0000 0.33782  0.65321  0.89905  Biso   1.000  C
  C36      1.0000 0.45950  0.65925  0.83225  Biso   1.000  C
  C37      1.0000 0.41918  0.57198  0.81974  Biso   1.000  C
  C38      1.0000 0.32523  0.72797  0.93898  Biso   1.000  C
  C39      1.0000 0.49843  0.53214  0.76175  Biso   1.000  C
  C40      1.0000 0.68264  0.76601  0.83089  Biso   1.000  C
  C41      1.0000 0.59990  0.73982  0.78172  Biso   1.000  C
  C42      1.0000 0.68411  0.80026  0.67233  Biso   1.000  C
  C43      1.0000 0.65479  0.72715  0.94488  Biso   1.000  C
  C44      1.0000 0.64561  0.80495  0.58252  Biso   1.000  C
  S3       1.0000 0.04705  0.86505  0.85457  Biso   1.000  S
  S4       1.0000 0.95295  0.13495  0.14543  Biso   1.000  S
  N11      1.0000 0.99159  0.64813  0.95535  Biso   1.000  N
  N12      1.0000 0.76986  0.43100  0.07572  Biso   1.000  N
  N13      1.0000 0.71673  0.47868  0.12565  Biso   1.000  N
  N14      1.0000 0.18959  0.14076  0.34495  Biso   1.000  N
  N15      1.0000 0.19500  0.16300  0.24650  Biso   1.000  N
  N16      1.0000 0.00841  0.35187  0.04465  Biso   1.000  N
  N17      1.0000 0.23014  0.56900  0.92428  Biso   1.000  N
  N18      1.0000 0.28327  0.52132  0.87435  Biso   1.000  N
  N19      1.0000 0.81041  0.85924  0.65505  Biso   1.000  N
  N20      1.0000 0.80500  0.83700  0.75350  Biso   1.000  N
  Fe3      1.0000 0.00000  0.00000  0.50000  Biso   1.000  Fe
  H57      1.0000 0.88840  0.12250  0.34110  Biso   1.000  H
  H58      1.0000 0.78690  0.01640  0.68890  Biso   1.000  H
  H59      1.0000 0.63790  0.01940  0.70900  Biso   1.000  H
  H60      1.0000 0.76480  0.12100  0.67830  Biso   1.000  H
  H61      1.0000 0.79350  0.23010  0.23750  Biso   1.000  H
  H62      1.0000 0.76920  0.31340  0.27250  Biso   1.000  H
  H63      1.0000 0.64280  0.20960  0.30700  Biso   1.000  H
  H64      1.0000 0.31160  0.04780  0.71520  Biso   1.000  H
  H65      1.0000 0.44580  0.02410  0.71820  Biso   1.000  H
  H66      1.0000 0.38680  0.01830  0.63230  Biso   1.000  H
  H67      1.0000 0.75940  0.48420  0.36920  Biso   1.000  H
  H68      1.0000 0.79380  0.40930  0.32490  Biso   1.000  H
  H69      1.0000 0.84670  0.41790  0.41240  Biso   1.000  H
  H70      1.0000 0.36000  0.23450  0.63160  Biso   1.000  H
  H71      1.0000 0.11160  0.87750  0.65890  Biso   1.000  H
  H72      1.0000 0.21310  0.98360  0.31110  Biso   1.000  H
  H73      1.0000 0.36210  0.98060  0.29100  Biso   1.000  H
  H74      1.0000 0.23520  0.87900  0.32170  Biso   1.000  H
  H75      1.0000 0.20650  0.76990  0.76250  Biso   1.000  H
  H76      1.0000 0.23080  0.68660  0.72750  Biso   1.000  H
  H77      1.0000 0.35720  0.79040  0.69300  Biso   1.000  H
  H78      1.0000 0.68840  0.95220  0.28480  Biso   1.000  H
  H79      1.0000 0.55420  0.97590  0.28180  Biso   1.000  H
  H80      1.0000 0.61320  0.98170  0.36770  Biso   1.000  H
  H81      1.0000 0.24060  0.51580  0.63080  Biso   1.000  H
  H82      1.0000 0.20620  0.59070  0.67510  Biso   1.000  H
  H83      1.0000 0.15330  0.58210  0.58760  Biso   1.000  H
  H84      1.0000 0.64000  0.76550  0.36840  Biso   1.000  H
  C45      1.0000 0.92637  0.91305  0.34864  Biso   1.000  C
  C46      1.0000 0.76313  0.10095  0.55226  Biso   1.000  C
  C47      1.0000 0.70825  0.16775  0.49150  Biso   1.000  C
  C48      1.0000 0.76108  0.18026  0.39172  Biso   1.000  C
  C49      1.0000 0.73579  0.06102  0.66695  Biso   1.000  C
  C50      1.0000 0.73982  0.23825  0.29389  Biso   1.000  C
  C51      1.0000 0.48647  0.16911  0.59690  Biso   1.000  C
  C52      1.0000 0.61838  0.21828  0.52154  Biso   1.000  C
  C53      1.0000 0.64356  0.32767  0.47259  Biso   1.000  C
  C54      1.0000 0.40033  0.05512  0.67203  Biso   1.000  C
  C55      1.0000 0.77187  0.41748  0.38747  Biso   1.000  C
  C56      1.0000 0.07363  0.08695  0.65136  Biso   1.000  C
  C57      1.0000 0.23687  0.89905  0.44774  Biso   1.000  C
  C58      1.0000 0.29175  0.83225  0.50850  Biso   1.000  C
  C59      1.0000 0.23892  0.81974  0.60828  Biso   1.000  C
  C60      1.0000 0.26421  0.93898  0.33305  Biso   1.000  C
  C61      1.0000 0.26018  0.76175  0.70611  Biso   1.000  C
  C62      1.0000 0.51353  0.83089  0.40310  Biso   1.000  C
  C63      1.0000 0.38162  0.78172  0.47846  Biso   1.000  C
  C64      1.0000 0.35644  0.67233  0.52741  Biso   1.000  C
  C65      1.0000 0.59967  0.94488  0.32797  Biso   1.000  C
  C66      1.0000 0.22813  0.58252  0.61253  Biso   1.000  C
  S5       1.0000 0.90162  0.85457  0.28038  Biso   1.000  S
  S6       1.0000 0.09838  0.14543  0.71962  Biso   1.000  S
  N21      1.0000 0.94694  0.95535  0.39652  Biso   1.000  N
  N22      1.0000 0.84558  0.07572  0.49328  Biso   1.000  N
  N23      1.0000 0.84238  0.12565  0.39567  Biso   1.000  N
  N24      1.0000 0.53454  0.34495  0.51429  Biso   1.000  N
  N25      1.0000 0.44150  0.24650  0.59050  Biso   1.000  N
  N26      1.0000 0.05306  0.04465  0.60348  Biso   1.000  N
  N27      1.0000 0.15442  0.92428  0.50672  Biso   1.000  N
  N28      1.0000 0.15762  0.87435  0.60433  Biso   1.000  N
  N29      1.0000 0.46546  0.65505  0.48571  Biso   1.000  N
  N30      1.0000 0.55850  0.75350  0.40950  Biso   1.000  N
