data_image0
_cell_length_a       11.0215
_cell_length_b       15.1486
_cell_length_c       15.1486
_cell_angle_alpha    65.6835
_cell_angle_beta     75.9647
_cell_angle_gamma    104.035

_symmetry_space_group_name_H-M    P 1
_symmetry_int_tables_number       1

loop_
  _symmetry_equiv_pos_as_xyz
  'x, y, z'

loop_
  _atom_site_label
  _atom_site_occupancy
  _atom_site_fract_x
  _atom_site_fract_y
  _atom_site_fract_z
  _atom_site_thermal_displace_type
  _atom_site_B_iso_or_equiv
  _atom_site_type_symbol
  Fe1      1.0000 0.50000  0.50000  0.50000  Biso   1.000  Fe
  H1       1.0000 0.47700  0.68720  0.29180  Biso   1.000  H
  H2       1.0000 0.35210  0.70720  0.26860  Biso   1.000  H
  H3       1.0000 0.44520  0.67610  0.20060  Biso   1.000  H
  H4       1.0000 0.03450  0.24160  0.52870  Biso   1.000  H
  H5       1.0000 0.04490  0.27580  0.41350  Biso   1.000  H
  H6       1.0000 0.95560  0.30940  0.48100  Biso   1.000  H
  H7       1.0000 0.02660  0.71120  0.24170  Biso   1.000  H
  H8       1.0000 0.15970  0.71390  0.26240  Biso   1.000  H
  H9       1.0000 0.01860  0.62950  0.35050  Biso   1.000  H
  H10      1.0000 0.13540  0.37540  0.14500  Biso   1.000  H
  H11      1.0000 0.12790  0.33130  0.26050  Biso   1.000  H
  H12      1.0000 0.26270  0.41900  0.16640  Biso   1.000  H
  H13      1.0000 0.99090  0.62810  0.13940  Biso   1.000  H
  H14      1.0000 0.52300  0.31280  0.70820  Biso   1.000  H
  H15      1.0000 0.64790  0.29280  0.73140  Biso   1.000  H
  H16      1.0000 0.55480  0.32390  0.79940  Biso   1.000  H
  H17      1.0000 0.96550  0.75840  0.47130  Biso   1.000  H
  H18      1.0000 0.95510  0.72420  0.58650  Biso   1.000  H
  H19      1.0000 0.04440  0.69060  0.51900  Biso   1.000  H
  H20      1.0000 0.97340  0.28880  0.75830  Biso   1.000  H
  H21      1.0000 0.84030  0.28610  0.73760  Biso   1.000  H
  H22      1.0000 0.98140  0.37050  0.64950  Biso   1.000  H
  H23      1.0000 0.86460  0.62460  0.85500  Biso   1.000  H
  H24      1.0000 0.87210  0.66870  0.73950  Biso   1.000  H
  H25      1.0000 0.73730  0.58100  0.83360  Biso   1.000  H
  H26      1.0000 0.00910  0.37190  0.86060  Biso   1.000  H
  C1       1.0000 0.27609  0.34923  0.73596  Biso   1.000  C
  C2       1.0000 0.31858  0.55269  0.34455  Biso   1.000  C
  C3       1.0000 0.20202  0.49232  0.33986  Biso   1.000  C
  C4       1.0000 0.15574  0.39388  0.42616  Biso   1.000  C
  C5       1.0000 0.40590  0.66580  0.26980  Biso   1.000  C
  C6       1.0000 0.03720  0.29660  0.46580  Biso   1.000  C
  C7       1.0000 0.08360  0.59560  0.23590  Biso   1.000  C
  C8       1.0000 0.14155  0.52265  0.26030  Biso   1.000  C
  C9       1.0000 0.11940  0.47509  0.19969  Biso   1.000  C
  C10      1.0000 0.07100  0.66900  0.27630  Biso   1.000  C
  C11      1.0000 0.16540  0.39290  0.19220  Biso   1.000  C
  C12      1.0000 0.72391  0.65077  0.26404  Biso   1.000  C
  C13      1.0000 0.68142  0.44731  0.65545  Biso   1.000  C
  C14      1.0000 0.79798  0.50768  0.66014  Biso   1.000  C
  C15      1.0000 0.84426  0.60612  0.57384  Biso   1.000  C
  C16      1.0000 0.59410  0.33420  0.73020  Biso   1.000  C
  C17      1.0000 0.96280  0.70340  0.53420  Biso   1.000  C
  C18      1.0000 0.91640  0.40440  0.76410  Biso   1.000  C
  C19      1.0000 0.85845  0.47735  0.73970  Biso   1.000  C
  C20      1.0000 0.88060  0.52491  0.80031  Biso   1.000  C
  C21      1.0000 0.92900  0.33100  0.72370  Biso   1.000  C
  C22      1.0000 0.83460  0.60710  0.80780  Biso   1.000  C
  S1       1.0000 0.18452  0.28280  0.86063  Biso   1.000  S
  S2       1.0000 0.81548  0.71720  0.13937  Biso   1.000  S
  N1       1.0000 0.34325  0.39624  0.64659  Biso   1.000  N
  N2       1.0000 0.34162  0.49396  0.42820  Biso   1.000  N
  N3       1.0000 0.24124  0.39797  0.47615  Biso   1.000  N
  N4       1.0000 0.05055  0.51523  0.14218  Biso   1.000  N
  N5       1.0000 0.03197  0.58917  0.16626  Biso   1.000  N
  N6       1.0000 0.65675  0.60376  0.35341  Biso   1.000  N
  N7       1.0000 0.65838  0.50604  0.57180  Biso   1.000  N
  N8       1.0000 0.75876  0.60203  0.52385  Biso   1.000  N
  N9       1.0000 0.94945  0.48477  0.85782  Biso   1.000  N
  N10      1.0000 0.96803  0.41083  0.83374  Biso   1.000  N
  Fe2      1.0000 0.00000  0.50000  0.00000  Biso   1.000  Fe
  H27      1.0000 0.76880  0.29180  0.02100  Biso   1.000  H
  H28      1.0000 0.62070  0.26860  0.02420  Biso   1.000  H
  H29      1.0000 0.64580  0.20060  0.12330  Biso   1.000  H
  H30      1.0000 0.56320  0.52870  0.22970  Biso   1.000  H
  H31      1.0000 0.45840  0.41350  0.31070  Biso   1.000  H
  H32      1.0000 0.43660  0.48100  0.20960  Biso   1.000  H
  H33      1.0000 0.26830  0.24170  0.04710  Biso   1.000  H
  H34      1.0000 0.42210  0.26240  0.02370  Biso   1.000  H
  H35      1.0000 0.36910  0.35050  0.02000  Biso   1.000  H
  H36      1.0000 0.28040  0.14500  0.47960  Biso   1.000  H
  H37      1.0000 0.38840  0.26050  0.40820  Biso   1.000  H
  H38      1.0000 0.42910  0.16640  0.41460  Biso   1.000  H
  H39      1.0000 0.13030  0.13940  0.23250  Biso   1.000  H
  H40      1.0000 0.23120  0.70820  0.97900  Biso   1.000  H
  H41      1.0000 0.37930  0.73140  0.97580  Biso   1.000  H
  H42      1.0000 0.35420  0.79940  0.87670  Biso   1.000  H
  H43      1.0000 0.43680  0.47130  0.77030  Biso   1.000  H
  H44      1.0000 0.54160  0.58650  0.68930  Biso   1.000  H
  H45      1.0000 0.56340  0.51900  0.79040  Biso   1.000  H
  H46      1.0000 0.73170  0.75830  0.95290  Biso   1.000  H
  H47      1.0000 0.57790  0.73760  0.97630  Biso   1.000  H
  H48      1.0000 0.63090  0.64950  0.98000  Biso   1.000  H
  H49      1.0000 0.71960  0.85500  0.52040  Biso   1.000  H
  H50      1.0000 0.61160  0.73950  0.59180  Biso   1.000  H
  H51      1.0000 0.57090  0.83360  0.58540  Biso   1.000  H
  H52      1.0000 0.86970  0.86060  0.76750  Biso   1.000  H
  C23      1.0000 0.01205  0.73596  0.91481  Biso   1.000  C
  C24      1.0000 0.66313  0.34455  0.10276  Biso   1.000  C
  C25      1.0000 0.54188  0.33986  0.16782  Biso   1.000  C
  C26      1.0000 0.58190  0.42616  0.17996  Biso   1.000  C
  C27      1.0000 0.67570  0.26980  0.06440  Biso   1.000  C
  C28      1.0000 0.50300  0.46580  0.23760  Biso   1.000  C
  C29      1.0000 0.31950  0.23590  0.16850  Biso   1.000  C
  C30      1.0000 0.40185  0.26030  0.21705  Biso   1.000  C
  C31      1.0000 0.31909  0.19969  0.32522  Biso   1.000  C
  C32      1.0000 0.34730  0.27630  0.05470  Biso   1.000  C
  C33      1.0000 0.35760  0.19220  0.41490  Biso   1.000  C
  C34      1.0000 0.98795  0.26404  0.08519  Biso   1.000  C
  C35      1.0000 0.33687  0.65545  0.89724  Biso   1.000  C
  C36      1.0000 0.45812  0.66014  0.83218  Biso   1.000  C
  C37      1.0000 0.41810  0.57384  0.82004  Biso   1.000  C
  C38      1.0000 0.32430  0.73020  0.93560  Biso   1.000  C
  C39      1.0000 0.49700  0.53420  0.76240  Biso   1.000  C
  C40      1.0000 0.68050  0.76410  0.83150  Biso   1.000  C
  C41      1.0000 0.59815  0.73970  0.78295  Biso   1.000  C
  C42      1.0000 0.68091  0.80031  0.67478  Biso   1.000  C
  C43      1.0000 0.65270  0.72370  0.94530  Biso   1.000  C
  C44      1.0000 0.64240  0.80780  0.58510  Biso   1.000  C
  S3       1.0000 0.04515  0.86063  0.85657  Biso   1.000  S
  S4       1.0000 0.95485  0.13937  0.14343  Biso   1.000  S
  N11      1.0000 0.98984  0.64659  0.95717  Biso   1.000  N
  N12      1.0000 0.76982  0.42820  0.07784  Biso   1.000  N
  N13      1.0000 0.71739  0.47615  0.12588  Biso   1.000  N
  N14      1.0000 0.19273  0.14218  0.34259  Biso   1.000  N
  N15      1.0000 0.19823  0.16626  0.24457  Biso   1.000  N
  N16      1.0000 0.01016  0.35341  0.04283  Biso   1.000  N
  N17      1.0000 0.23018  0.57180  0.92216  Biso   1.000  N
  N18      1.0000 0.28261  0.52385  0.87412  Biso   1.000  N
  N19      1.0000 0.80727  0.85782  0.65741  Biso   1.000  N
  N20      1.0000 0.80177  0.83374  0.75543  Biso   1.000  N
  Fe3      1.0000 0.00000  0.00000  0.50000  Biso   1.000  Fe
  H53      1.0000 0.78980  0.02100  0.68720  Biso   1.000  H
  H54      1.0000 0.64490  0.02420  0.70720  Biso   1.000  H
  H55      1.0000 0.76910  0.12330  0.67610  Biso   1.000  H
  H56      1.0000 0.79290  0.22970  0.24160  Biso   1.000  H
  H57      1.0000 0.76910  0.31070  0.27580  Biso   1.000  H
  H58      1.0000 0.64620  0.20960  0.30940  Biso   1.000  H
  H59      1.0000 0.31540  0.04710  0.71120  Biso   1.000  H
  H60      1.0000 0.44580  0.02370  0.71390  Biso   1.000  H
  H61      1.0000 0.38910  0.02000  0.62950  Biso   1.000  H
  H62      1.0000 0.76000  0.47960  0.37540  Biso   1.000  H
  H63      1.0000 0.79660  0.40820  0.33130  Biso   1.000  H
  H64      1.0000 0.84370  0.41460  0.41900  Biso   1.000  H
  H65      1.0000 0.36280  0.23250  0.62810  Biso   1.000  H
  H66      1.0000 0.21020  0.97900  0.31280  Biso   1.000  H
  H67      1.0000 0.35510  0.97580  0.29280  Biso   1.000  H
  H68      1.0000 0.23090  0.87670  0.32390  Biso   1.000  H
  H69      1.0000 0.20710  0.77030  0.75840  Biso   1.000  H
  H70      1.0000 0.23090  0.68930  0.72420  Biso   1.000  H
  H71      1.0000 0.35380  0.79040  0.69060  Biso   1.000  H
  H72      1.0000 0.68460  0.95290  0.28880  Biso   1.000  H
  H73      1.0000 0.55420  0.97630  0.28610  Biso   1.000  H
  H74      1.0000 0.61090  0.98000  0.37050  Biso   1.000  H
  H75      1.0000 0.24000  0.52040  0.62460  Biso   1.000  H
  H76      1.0000 0.20340  0.59180  0.66870  Biso   1.000  H
  H77      1.0000 0.15630  0.58540  0.58100  Biso   1.000  H
  H78      1.0000 0.63720  0.76750  0.37190  Biso   1.000  H
  C45      1.0000 0.92686  0.91481  0.34923  Biso   1.000  C
  C46      1.0000 0.76589  0.10276  0.55269  Biso   1.000  C
  C47      1.0000 0.70970  0.16782  0.49232  Biso   1.000  C
  C48      1.0000 0.76186  0.17996  0.39388  Biso   1.000  C
  C49      1.0000 0.74010  0.06440  0.66580  Biso   1.000  C
  C50      1.0000 0.74060  0.23760  0.29660  Biso   1.000  C
  C51      1.0000 0.48800  0.16850  0.59560  Biso   1.000  C
  C52      1.0000 0.61890  0.21705  0.52265  Biso   1.000  C
  C53      1.0000 0.64431  0.32522  0.47509  Biso   1.000  C
  C54      1.0000 0.40200  0.05470  0.66900  Biso   1.000  C
  C55      1.0000 0.77250  0.41490  0.39290  Biso   1.000  C
  C56      1.0000 0.07314  0.08519  0.65077  Biso   1.000  C
  C57      1.0000 0.23411  0.89724  0.44731  Biso   1.000  C
  C58      1.0000 0.29030  0.83218  0.50768  Biso   1.000  C
  C59      1.0000 0.23814  0.82004  0.60612  Biso   1.000  C
  C60      1.0000 0.25990  0.93560  0.33420  Biso   1.000  C
  C61      1.0000 0.25940  0.76240  0.70340  Biso   1.000  C
  C62      1.0000 0.51200  0.83150  0.40440  Biso   1.000  C
  C63      1.0000 0.38110  0.78295  0.47735  Biso   1.000  C
  C64      1.0000 0.35569  0.67478  0.52491  Biso   1.000  C
  C65      1.0000 0.59800  0.94530  0.33100  Biso   1.000  C
  C66      1.0000 0.22750  0.58510  0.60710  Biso   1.000  C
  S5       1.0000 0.90172  0.85657  0.28280  Biso   1.000  S
  S6       1.0000 0.09828  0.14343  0.71720  Biso   1.000  S
  N21      1.0000 0.94701  0.95717  0.39624  Biso   1.000  N
  N22      1.0000 0.84766  0.07784  0.49396  Biso   1.000  N
  N23      1.0000 0.84327  0.12588  0.39797  Biso   1.000  N
  N24      1.0000 0.53532  0.34259  0.51523  Biso   1.000  N
  N25      1.0000 0.44280  0.24457  0.58917  Biso   1.000  N
  N26      1.0000 0.05299  0.04283  0.60376  Biso   1.000  N
  N27      1.0000 0.15234  0.92216  0.50604  Biso   1.000  N
  N28      1.0000 0.15673  0.87412  0.60203  Biso   1.000  N
  N29      1.0000 0.46468  0.65741  0.48477  Biso   1.000  N
  N30      1.0000 0.55720  0.75543  0.41083  Biso   1.000  N
