data_image0
_cell_length_a       11.0385
_cell_length_b       15.1758
_cell_length_c       15.1758
_cell_angle_alpha    65.6807
_cell_angle_beta     75.9684
_cell_angle_gamma    104.032

_symmetry_space_group_name_H-M    P 1
_symmetry_int_tables_number       1

loop_
  _symmetry_equiv_pos_as_xyz
  'x, y, z'

loop_
  _atom_site_label
  _atom_site_occupancy
  _atom_site_fract_x
  _atom_site_fract_y
  _atom_site_fract_z
  _atom_site_thermal_displace_type
  _atom_site_B_iso_or_equiv
  _atom_site_type_symbol
  Fe1      1.0000 0.50000  0.50000  0.50000  Biso   1.000  Fe
  H1       1.0000 0.23320  0.34450  0.53170  Biso   1.000  H
  H2       1.0000 0.47660  0.68680  0.29170  Biso   1.000  H
  H3       1.0000 0.35210  0.70690  0.26830  Biso   1.000  H
  H4       1.0000 0.44460  0.67520  0.20090  Biso   1.000  H
  H5       1.0000 0.03430  0.24240  0.52920  Biso   1.000  H
  H6       1.0000 0.04360  0.27610  0.41440  Biso   1.000  H
  H7       1.0000 0.95580  0.31040  0.48170  Biso   1.000  H
  H8       1.0000 0.02690  0.71080  0.24130  Biso   1.000  H
  H9       1.0000 0.15980  0.71360  0.26210  Biso   1.000  H
  H10      1.0000 0.01900  0.62950  0.35020  Biso   1.000  H
  H11      1.0000 0.13540  0.37520  0.14480  Biso   1.000  H
  H12      1.0000 0.12810  0.33120  0.26010  Biso   1.000  H
  H13      1.0000 0.26260  0.41870  0.16610  Biso   1.000  H
  H14      1.0000 0.99160  0.62870  0.13940  Biso   1.000  H
  H15      1.0000 0.76680  0.65550  0.46830  Biso   1.000  H
  H16      1.0000 0.52340  0.31320  0.70830  Biso   1.000  H
  H17      1.0000 0.64790  0.29310  0.73170  Biso   1.000  H
  H18      1.0000 0.55540  0.32480  0.79910  Biso   1.000  H
  H19      1.0000 0.96570  0.75760  0.47080  Biso   1.000  H
  H20      1.0000 0.95640  0.72390  0.58560  Biso   1.000  H
  H21      1.0000 0.04420  0.68960  0.51830  Biso   1.000  H
  H22      1.0000 0.97310  0.28920  0.75870  Biso   1.000  H
  H23      1.0000 0.84020  0.28640  0.73790  Biso   1.000  H
  H24      1.0000 0.98100  0.37050  0.64980  Biso   1.000  H
  H25      1.0000 0.86460  0.62480  0.85520  Biso   1.000  H
  H26      1.0000 0.87190  0.66880  0.73990  Biso   1.000  H
  H27      1.0000 0.73740  0.58130  0.83390  Biso   1.000  H
  H28      1.0000 0.00840  0.37130  0.86060  Biso   1.000  H
  C1       1.0000 0.27599  0.34928  0.73571  Biso   1.000  C
  C2       1.0000 0.31848  0.55295  0.34451  Biso   1.000  C
  C3       1.0000 0.20277  0.49266  0.33945  Biso   1.000  C
  C4       1.0000 0.15580  0.39390  0.42600  Biso   1.000  C
  C5       1.0000 0.40570  0.66540  0.26970  Biso   1.000  C
  C6       1.0000 0.03690  0.29720  0.46640  Biso   1.000  C
  C7       1.0000 0.08370  0.59520  0.23610  Biso   1.000  C
  C8       1.0000 0.14181  0.52195  0.26062  Biso   1.000  C
  C9       1.0000 0.11964  0.47464  0.19942  Biso   1.000  C
  C10      1.0000 0.07130  0.66890  0.27590  Biso   1.000  C
  C11      1.0000 0.16550  0.39270  0.19200  Biso   1.000  C
  C12      1.0000 0.72401  0.65072  0.26429  Biso   1.000  C
  C13      1.0000 0.68152  0.44705  0.65549  Biso   1.000  C
  C14      1.0000 0.79723  0.50734  0.66055  Biso   1.000  C
  C15      1.0000 0.84420  0.60610  0.57400  Biso   1.000  C
  C16      1.0000 0.59430  0.33460  0.73030  Biso   1.000  C
  C17      1.0000 0.96310  0.70280  0.53360  Biso   1.000  C
  C18      1.0000 0.91630  0.40480  0.76390  Biso   1.000  C
  C19      1.0000 0.85819  0.47805  0.73938  Biso   1.000  C
  C20      1.0000 0.88036  0.52536  0.80058  Biso   1.000  C
  C21      1.0000 0.92870  0.33110  0.72410  Biso   1.000  C
  C22      1.0000 0.83450  0.60730  0.80800  Biso   1.000  C
  S1       1.0000 0.18444  0.28277  0.86066  Biso   1.000  S
  S2       1.0000 0.81556  0.71723  0.13934  Biso   1.000  S
  N1       1.0000 0.34368  0.39636  0.64662  Biso   1.000  N
  N2       1.0000 0.34138  0.49398  0.42834  Biso   1.000  N
  N3       1.0000 0.24130  0.39756  0.47586  Biso   1.000  N
  N4       1.0000 0.05068  0.51500  0.14246  Biso   1.000  N
  N5       1.0000 0.03215  0.58952  0.16637  Biso   1.000  N
  N6       1.0000 0.65632  0.60364  0.35338  Biso   1.000  N
  N7       1.0000 0.65862  0.50602  0.57166  Biso   1.000  N
  N8       1.0000 0.75870  0.60244  0.52414  Biso   1.000  N
  N9       1.0000 0.94932  0.48500  0.85754  Biso   1.000  N
  N10      1.0000 0.96785  0.41048  0.83363  Biso   1.000  N
  Fe2      1.0000 0.00000  0.50000  0.00000  Biso   1.000  Fe
  H29      1.0000 0.76490  0.53170  0.12380  Biso   1.000  H
  H30      1.0000 0.76830  0.29170  0.02150  Biso   1.000  H
  H31      1.0000 0.62040  0.26830  0.02480  Biso   1.000  H
  H32      1.0000 0.64550  0.20090  0.12390  Biso   1.000  H
  H33      1.0000 0.56350  0.52920  0.22840  Biso   1.000  H
  H34      1.0000 0.45800  0.41440  0.30950  Biso   1.000  H
  H35      1.0000 0.43750  0.48170  0.20790  Biso   1.000  H
  H36      1.0000 0.26820  0.24130  0.04790  Biso   1.000  H
  H37      1.0000 0.42190  0.26210  0.02430  Biso   1.000  H
  H38      1.0000 0.36920  0.35020  0.02030  Biso   1.000  H
  H39      1.0000 0.28020  0.14480  0.48000  Biso   1.000  H
  H40      1.0000 0.38820  0.26010  0.40870  Biso   1.000  H
  H41      1.0000 0.42870  0.16610  0.41520  Biso   1.000  H
  H42      1.0000 0.13100  0.13940  0.23190  Biso   1.000  H
  H43      1.0000 0.23510  0.46830  0.87620  Biso   1.000  H
  H44      1.0000 0.23170  0.70830  0.97850  Biso   1.000  H
  H45      1.0000 0.37960  0.73170  0.97520  Biso   1.000  H
  H46      1.0000 0.35450  0.79910  0.87610  Biso   1.000  H
  H47      1.0000 0.43650  0.47080  0.77160  Biso   1.000  H
  H48      1.0000 0.54200  0.58560  0.69050  Biso   1.000  H
  H49      1.0000 0.56250  0.51830  0.79210  Biso   1.000  H
  H50      1.0000 0.73180  0.75870  0.95210  Biso   1.000  H
  H51      1.0000 0.57810  0.73790  0.97570  Biso   1.000  H
  H52      1.0000 0.63080  0.64980  0.97970  Biso   1.000  H
  H53      1.0000 0.71980  0.85520  0.52000  Biso   1.000  H
  H54      1.0000 0.61180  0.73990  0.59130  Biso   1.000  H
  H55      1.0000 0.57130  0.83390  0.58480  Biso   1.000  H
  H56      1.0000 0.86900  0.86060  0.76810  Biso   1.000  H
  C23      1.0000 0.01170  0.73571  0.91501  Biso   1.000  C
  C24      1.0000 0.66299  0.34451  0.10254  Biso   1.000  C
  C25      1.0000 0.54222  0.33945  0.16789  Biso   1.000  C
  C26      1.0000 0.58180  0.42600  0.18010  Biso   1.000  C
  C27      1.0000 0.67540  0.26970  0.06490  Biso   1.000  C
  C28      1.0000 0.50330  0.46640  0.23640  Biso   1.000  C
  C29      1.0000 0.31980  0.23610  0.16870  Biso   1.000  C
  C30      1.0000 0.40243  0.26062  0.21743  Biso   1.000  C
  C31      1.0000 0.31906  0.19942  0.32594  Biso   1.000  C
  C32      1.0000 0.34720  0.27590  0.05520  Biso   1.000  C
  C33      1.0000 0.35750  0.19200  0.41530  Biso   1.000  C
  C34      1.0000 0.98830  0.26429  0.08499  Biso   1.000  C
  C35      1.0000 0.33701  0.65549  0.89746  Biso   1.000  C
  C36      1.0000 0.45778  0.66055  0.83211  Biso   1.000  C
  C37      1.0000 0.41820  0.57400  0.81990  Biso   1.000  C
  C38      1.0000 0.32460  0.73030  0.93510  Biso   1.000  C
  C39      1.0000 0.49670  0.53360  0.76360  Biso   1.000  C
  C40      1.0000 0.68020  0.76390  0.83130  Biso   1.000  C
  C41      1.0000 0.59757  0.73938  0.78257  Biso   1.000  C
  C42      1.0000 0.68094  0.80058  0.67406  Biso   1.000  C
  C43      1.0000 0.65280  0.72410  0.94480  Biso   1.000  C
  C44      1.0000 0.64250  0.80800  0.58470  Biso   1.000  C
  S3       1.0000 0.04510  0.86066  0.85657  Biso   1.000  S
  S4       1.0000 0.95490  0.13934  0.14343  Biso   1.000  S
  N11      1.0000 0.99030  0.64662  0.95702  Biso   1.000  N
  N12      1.0000 0.76972  0.42834  0.07768  Biso   1.000  N
  N13      1.0000 0.71716  0.47586  0.12658  Biso   1.000  N
  N14      1.0000 0.19314  0.14246  0.34254  Biso   1.000  N
  N15      1.0000 0.19852  0.16637  0.24411  Biso   1.000  N
  N16      1.0000 0.00970  0.35338  0.04298  Biso   1.000  N
  N17      1.0000 0.23028  0.57166  0.92232  Biso   1.000  N
  N18      1.0000 0.28284  0.52414  0.87342  Biso   1.000  N
  N19      1.0000 0.80686  0.85754  0.65746  Biso   1.000  N
  N20      1.0000 0.80148  0.83363  0.75589  Biso   1.000  N
  Fe3      1.0000 0.00000  0.00000  0.50000  Biso   1.000  Fe
  H57      1.0000 0.88870  0.12380  0.34450  Biso   1.000  H
  H58      1.0000 0.78980  0.02150  0.68680  Biso   1.000  H
  H59      1.0000 0.64520  0.02480  0.70690  Biso   1.000  H
  H60      1.0000 0.76940  0.12390  0.67520  Biso   1.000  H
  H61      1.0000 0.79190  0.22840  0.24240  Biso   1.000  H
  H62      1.0000 0.76750  0.30950  0.27610  Biso   1.000  H
  H63      1.0000 0.64540  0.20790  0.31040  Biso   1.000  H
  H64      1.0000 0.31610  0.04790  0.71080  Biso   1.000  H
  H65      1.0000 0.44620  0.02430  0.71360  Biso   1.000  H
  H66      1.0000 0.38950  0.02030  0.62950  Biso   1.000  H
  H67      1.0000 0.76020  0.48000  0.37520  Biso   1.000  H
  H68      1.0000 0.79690  0.40870  0.33120  Biso   1.000  H
  H69      1.0000 0.84390  0.41520  0.41870  Biso   1.000  H
  H70      1.0000 0.36290  0.23190  0.62870  Biso   1.000  H
  H71      1.0000 0.11130  0.87620  0.65550  Biso   1.000  H
  H72      1.0000 0.21020  0.97850  0.31320  Biso   1.000  H
  H73      1.0000 0.35480  0.97520  0.29310  Biso   1.000  H
  H74      1.0000 0.23060  0.87610  0.32480  Biso   1.000  H
  H75      1.0000 0.20810  0.77160  0.75760  Biso   1.000  H
  H76      1.0000 0.23250  0.69050  0.72390  Biso   1.000  H
  H77      1.0000 0.35460  0.79210  0.68960  Biso   1.000  H
  H78      1.0000 0.68390  0.95210  0.28920  Biso   1.000  H
  H79      1.0000 0.55380  0.97570  0.28640  Biso   1.000  H
  H80      1.0000 0.61050  0.97970  0.37050  Biso   1.000  H
  H81      1.0000 0.23980  0.52000  0.62480  Biso   1.000  H
  H82      1.0000 0.20310  0.59130  0.66880  Biso   1.000  H
  H83      1.0000 0.15610  0.58480  0.58130  Biso   1.000  H
  H84      1.0000 0.63710  0.76810  0.37130  Biso   1.000  H
  C45      1.0000 0.92671  0.91501  0.34928  Biso   1.000  C
  C46      1.0000 0.76553  0.10254  0.55295  Biso   1.000  C
  C47      1.0000 0.71011  0.16789  0.49266  Biso   1.000  C
  C48      1.0000 0.76190  0.18010  0.39390  Biso   1.000  C
  C49      1.0000 0.74030  0.06490  0.66540  Biso   1.000  C
  C50      1.0000 0.73970  0.23640  0.29720  Biso   1.000  C
  C51      1.0000 0.48850  0.16870  0.59520  Biso   1.000  C
  C52      1.0000 0.61986  0.21743  0.52195  Biso   1.000  C
  C53      1.0000 0.64500  0.32594  0.47464  Biso   1.000  C
  C54      1.0000 0.40240  0.05520  0.66890  Biso   1.000  C
  C55      1.0000 0.77280  0.41530  0.39270  Biso   1.000  C
  C56      1.0000 0.07329  0.08499  0.65072  Biso   1.000  C
  C57      1.0000 0.23447  0.89746  0.44705  Biso   1.000  C
  C58      1.0000 0.28989  0.83211  0.50734  Biso   1.000  C
  C59      1.0000 0.23810  0.81990  0.60610  Biso   1.000  C
  C60      1.0000 0.25970  0.93510  0.33460  Biso   1.000  C
  C61      1.0000 0.26030  0.76360  0.70280  Biso   1.000  C
  C62      1.0000 0.51150  0.83130  0.40480  Biso   1.000  C
  C63      1.0000 0.38014  0.78257  0.47805  Biso   1.000  C
  C64      1.0000 0.35500  0.67406  0.52536  Biso   1.000  C
  C65      1.0000 0.59760  0.94480  0.33110  Biso   1.000  C
  C66      1.0000 0.22720  0.58470  0.60730  Biso   1.000  C
  S5       1.0000 0.90167  0.85657  0.28277  Biso   1.000  S
  S6       1.0000 0.09833  0.14343  0.71723  Biso   1.000  S
  N21      1.0000 0.94732  0.95702  0.39636  Biso   1.000  N
  N22      1.0000 0.84740  0.07768  0.49398  Biso   1.000  N
  N23      1.0000 0.84374  0.12658  0.39756  Biso   1.000  N
  N24      1.0000 0.53568  0.34254  0.51500  Biso   1.000  N
  N25      1.0000 0.44263  0.24411  0.58952  Biso   1.000  N
  N26      1.0000 0.05268  0.04298  0.60364  Biso   1.000  N
  N27      1.0000 0.15260  0.92232  0.50602  Biso   1.000  N
  N28      1.0000 0.15626  0.87342  0.60244  Biso   1.000  N
  N29      1.0000 0.46432  0.65746  0.48500  Biso   1.000  N
  N30      1.0000 0.55737  0.75589  0.41048  Biso   1.000  N
