data_image0
_cell_length_a       12.8199
_cell_length_b       12.8199
_cell_length_c       32.617
_cell_angle_alpha    90
_cell_angle_beta     90
_cell_angle_gamma    90

_symmetry_space_group_name_H-M    "P 1"
_symmetry_int_tables_number       1

loop_
  _symmetry_equiv_pos_as_xyz
  'x, y, z'

loop_
  _atom_site_label
  _atom_site_occupancy
  _atom_site_fract_x
  _atom_site_fract_y
  _atom_site_fract_z
  _atom_site_thermal_displace_type
  _atom_site_B_iso_or_equiv
  _atom_site_type_symbol
  N1       1.0000 0.42140  0.92130  0.29410  Biso   1.000  N
  C1       1.0000 0.46970  0.87120  0.32300  Biso   1.000  C
  C2       1.0000 0.31760  0.92100  0.29490  Biso   1.000  C
  C3       1.0000 0.41970  0.81720  0.35420  Biso   1.000  C
  H1       1.0000 0.54230  0.87160  0.32290  Biso   1.000  H
  H2       1.0000 0.28130  0.95760  0.27480  Biso   1.000  H
  C4       1.0000 0.26240  0.86810  0.32450  Biso   1.000  C
  C5       1.0000 0.31280  0.81500  0.35540  Biso   1.000  C
  H3       1.0000 0.45840  0.78260  0.37410  Biso   1.000  H
  H4       1.0000 0.18990  0.86830  0.32370  Biso   1.000  H
  C6       1.0000 0.25250  0.75650  0.38680  Biso   1.000  C
  C7       1.0000 0.30020  0.69450  0.41480  Biso   1.000  C
  C8       1.0000 0.14650  0.76250  0.38900  Biso   1.000  C
  C9       1.0000 0.24240  0.63730  0.44330  Biso   1.000  C
  H5       1.0000 0.37260  0.69000  0.41500  Biso   1.000  H
  C10      1.0000 0.08980  0.70700  0.41790  Biso   1.000  C
  H6       1.0000 0.11110  0.80510  0.37050  Biso   1.000  H
  C11      1.0000 0.13380  0.63940  0.44420  Biso   1.000  C
  H7       1.0000 0.27770  0.59640  0.46230  Biso   1.000  H
  H8       1.0000 0.01800  0.71720  0.41920  Biso   1.000  H
  C12      1.0000 0.06890  0.57020  0.47260  Biso   1.000  C
  H9       1.0000 0.18090  0.45690  0.48290  Biso   1.000  H
  H10      1.0000 0.04370  0.45710  0.42900  Biso   1.000  H
  H11      1.0000 0.04360  0.68330  0.51690  Biso   1.000  H
  N2       1.0000 0.57860  0.07870  0.29410  Biso   1.000  N
  C13      1.0000 0.53030  0.12880  0.32300  Biso   1.000  C
  C14      1.0000 0.68240  0.07900  0.29490  Biso   1.000  C
  C15      1.0000 0.58030  0.18280  0.35420  Biso   1.000  C
  H12      1.0000 0.45770  0.12840  0.32290  Biso   1.000  H
  H13      1.0000 0.71870  0.04240  0.27480  Biso   1.000  H
  C16      1.0000 0.73760  0.13190  0.32450  Biso   1.000  C
  C17      1.0000 0.68720  0.18500  0.35540  Biso   1.000  C
  H14      1.0000 0.54160  0.21740  0.37410  Biso   1.000  H
  H15      1.0000 0.81010  0.13170  0.32370  Biso   1.000  H
  C18      1.0000 0.74750  0.24350  0.38680  Biso   1.000  C
  C19      1.0000 0.69980  0.30550  0.41480  Biso   1.000  C
  C20      1.0000 0.85350  0.23750  0.38900  Biso   1.000  C
  C21      1.0000 0.75760  0.36270  0.44330  Biso   1.000  C
  H16      1.0000 0.62740  0.31000  0.41500  Biso   1.000  H
  C22      1.0000 0.91020  0.29300  0.41790  Biso   1.000  C
  H17      1.0000 0.88890  0.19490  0.37050  Biso   1.000  H
  C23      1.0000 0.86620  0.36060  0.44420  Biso   1.000  C
  H18      1.0000 0.72230  0.40360  0.46230  Biso   1.000  H
  H19      1.0000 0.98200  0.28280  0.41920  Biso   1.000  H
  C24      1.0000 0.93110  0.42980  0.47260  Biso   1.000  C
  H20      1.0000 0.81910  0.54310  0.48290  Biso   1.000  H
  H21      1.0000 0.95630  0.54290  0.42900  Biso   1.000  H
  H22      1.0000 0.95640  0.31670  0.51690  Biso   1.000  H
  N3       1.0000 0.57870  0.92140  0.79410  Biso   1.000  N
  C25      1.0000 0.62880  0.96970  0.82300  Biso   1.000  C
  C26      1.0000 0.57900  0.81760  0.79490  Biso   1.000  C
  C27      1.0000 0.68280  0.91970  0.85420  Biso   1.000  C
  H23      1.0000 0.62840  0.04230  0.82290  Biso   1.000  H
  H24      1.0000 0.54240  0.78130  0.77480  Biso   1.000  H
  C28      1.0000 0.63190  0.76240  0.82450  Biso   1.000  C
  C29      1.0000 0.68500  0.81280  0.85540  Biso   1.000  C
  H25      1.0000 0.71740  0.95840  0.87410  Biso   1.000  H
  H26      1.0000 0.63170  0.68990  0.82370  Biso   1.000  H
  C30      1.0000 0.74350  0.75250  0.88680  Biso   1.000  C
  C31      1.0000 0.80550  0.80020  0.91480  Biso   1.000  C
  C32      1.0000 0.73750  0.64650  0.88900  Biso   1.000  C
  C33      1.0000 0.86270  0.74240  0.94330  Biso   1.000  C
  H27      1.0000 0.81000  0.87260  0.91500  Biso   1.000  H
  C34      1.0000 0.79300  0.58980  0.91790  Biso   1.000  C
  H28      1.0000 0.69490  0.61110  0.87050  Biso   1.000  H
  C35      1.0000 0.86060  0.63380  0.94420  Biso   1.000  C
  H29      1.0000 0.90360  0.77770  0.96230  Biso   1.000  H
  H30      1.0000 0.78280  0.51800  0.91920  Biso   1.000  H
  C36      1.0000 0.92980  0.56890  0.97260  Biso   1.000  C
  H31      1.0000 0.04310  0.68090  0.98290  Biso   1.000  H
  H32      1.0000 0.04290  0.54370  0.92900  Biso   1.000  H
  H33      1.0000 0.81670  0.54360  0.01690  Biso   1.000  H
  N4       1.0000 0.42130  0.07860  0.79410  Biso   1.000  N
  C37      1.0000 0.37120  0.03030  0.82300  Biso   1.000  C
  C38      1.0000 0.42100  0.18240  0.79490  Biso   1.000  C
  C39      1.0000 0.31720  0.08030  0.85420  Biso   1.000  C
  H34      1.0000 0.37160  0.95770  0.82290  Biso   1.000  H
  H35      1.0000 0.45760  0.21870  0.77480  Biso   1.000  H
  C40      1.0000 0.36810  0.23760  0.82450  Biso   1.000  C
  C41      1.0000 0.31500  0.18720  0.85540  Biso   1.000  C
  H36      1.0000 0.28260  0.04160  0.87410  Biso   1.000  H
  H37      1.0000 0.36830  0.31010  0.82370  Biso   1.000  H
  C42      1.0000 0.25650  0.24750  0.88680  Biso   1.000  C
  C43      1.0000 0.19450  0.19980  0.91480  Biso   1.000  C
  C44      1.0000 0.26250  0.35350  0.88900  Biso   1.000  C
  C45      1.0000 0.13730  0.25760  0.94330  Biso   1.000  C
  H38      1.0000 0.19000  0.12740  0.91500  Biso   1.000  H
  C46      1.0000 0.20700  0.41020  0.91790  Biso   1.000  C
  H39      1.0000 0.30510  0.38890  0.87050  Biso   1.000  H
  C47      1.0000 0.13940  0.36620  0.94420  Biso   1.000  C
  H40      1.0000 0.09640  0.22230  0.96230  Biso   1.000  H
  H41      1.0000 0.21720  0.48200  0.91920  Biso   1.000  H
  C48      1.0000 0.07020  0.43110  0.97260  Biso   1.000  C
  H42      1.0000 0.95690  0.31910  0.98290  Biso   1.000  H
  H43      1.0000 0.95710  0.45630  0.92900  Biso   1.000  H
  H44      1.0000 0.18330  0.45640  0.01690  Biso   1.000  H
  N5       1.0000 0.57860  0.92130  0.70590  Biso   1.000  N
  C49      1.0000 0.53030  0.87120  0.67700  Biso   1.000  C
  C50      1.0000 0.68240  0.92100  0.70510  Biso   1.000  C
  C51      1.0000 0.58030  0.81720  0.64580  Biso   1.000  C
  H45      1.0000 0.45770  0.87160  0.67710  Biso   1.000  H
  H46      1.0000 0.71870  0.95760  0.72520  Biso   1.000  H
  C52      1.0000 0.73760  0.86810  0.67550  Biso   1.000  C
  C53      1.0000 0.68720  0.81500  0.64460  Biso   1.000  C
  H47      1.0000 0.54160  0.78260  0.62590  Biso   1.000  H
  H48      1.0000 0.81010  0.86830  0.67630  Biso   1.000  H
  C54      1.0000 0.74750  0.75650  0.61320  Biso   1.000  C
  C55      1.0000 0.69980  0.69450  0.58520  Biso   1.000  C
  C56      1.0000 0.85350  0.76250  0.61100  Biso   1.000  C
  C57      1.0000 0.75760  0.63730  0.55670  Biso   1.000  C
  H49      1.0000 0.62740  0.69000  0.58500  Biso   1.000  H
  C58      1.0000 0.91020  0.70700  0.58210  Biso   1.000  C
  H50      1.0000 0.88890  0.80510  0.62950  Biso   1.000  H
  C59      1.0000 0.86620  0.63940  0.55580  Biso   1.000  C
  H51      1.0000 0.72230  0.59640  0.53770  Biso   1.000  H
  H52      1.0000 0.98200  0.71720  0.58080  Biso   1.000  H
  C60      1.0000 0.93110  0.57020  0.52740  Biso   1.000  C
  H53      1.0000 0.81910  0.45690  0.51710  Biso   1.000  H
  H54      1.0000 0.95630  0.45710  0.57100  Biso   1.000  H
  H55      1.0000 0.95640  0.68330  0.48310  Biso   1.000  H
  N6       1.0000 0.42140  0.07870  0.70590  Biso   1.000  N
  C61      1.0000 0.46970  0.12880  0.67700  Biso   1.000  C
  C62      1.0000 0.31760  0.07900  0.70510  Biso   1.000  C
  C63      1.0000 0.41970  0.18280  0.64580  Biso   1.000  C
  H56      1.0000 0.54230  0.12840  0.67710  Biso   1.000  H
  H57      1.0000 0.28130  0.04240  0.72520  Biso   1.000  H
  C64      1.0000 0.26240  0.13190  0.67550  Biso   1.000  C
  C65      1.0000 0.31280  0.18500  0.64460  Biso   1.000  C
  H58      1.0000 0.45840  0.21740  0.62590  Biso   1.000  H
  H59      1.0000 0.18990  0.13170  0.67630  Biso   1.000  H
  C66      1.0000 0.25250  0.24350  0.61320  Biso   1.000  C
  C67      1.0000 0.30020  0.30550  0.58520  Biso   1.000  C
  C68      1.0000 0.14650  0.23750  0.61100  Biso   1.000  C
  C69      1.0000 0.24240  0.36270  0.55670  Biso   1.000  C
  H60      1.0000 0.37260  0.31000  0.58500  Biso   1.000  H
  C70      1.0000 0.08980  0.29300  0.58210  Biso   1.000  C
  H61      1.0000 0.11110  0.19490  0.62950  Biso   1.000  H
  C71      1.0000 0.13380  0.36060  0.55580  Biso   1.000  C
  H62      1.0000 0.27770  0.40360  0.53770  Biso   1.000  H
  H63      1.0000 0.01800  0.28280  0.58080  Biso   1.000  H
  C72      1.0000 0.06890  0.42980  0.52740  Biso   1.000  C
  H64      1.0000 0.18090  0.54310  0.51710  Biso   1.000  H
  H65      1.0000 0.04370  0.54290  0.57100  Biso   1.000  H
  H66      1.0000 0.04360  0.31670  0.48310  Biso   1.000  H
  N7       1.0000 0.42130  0.92140  0.20590  Biso   1.000  N
  C73      1.0000 0.37120  0.96970  0.17700  Biso   1.000  C
  C74      1.0000 0.42100  0.81760  0.20510  Biso   1.000  C
  C75      1.0000 0.31720  0.91970  0.14580  Biso   1.000  C
  H67      1.0000 0.37160  0.04230  0.17710  Biso   1.000  H
  H68      1.0000 0.45760  0.78130  0.22520  Biso   1.000  H
  C76      1.0000 0.36810  0.76240  0.17550  Biso   1.000  C
  C77      1.0000 0.31500  0.81280  0.14460  Biso   1.000  C
  H69      1.0000 0.28260  0.95840  0.12590  Biso   1.000  H
  H70      1.0000 0.36830  0.68990  0.17630  Biso   1.000  H
  C78      1.0000 0.25650  0.75250  0.11320  Biso   1.000  C
  C79      1.0000 0.19450  0.80020  0.08520  Biso   1.000  C
  C80      1.0000 0.26250  0.64650  0.11100  Biso   1.000  C
  C81      1.0000 0.13730  0.74240  0.05670  Biso   1.000  C
  H71      1.0000 0.19000  0.87260  0.08500  Biso   1.000  H
  C82      1.0000 0.20700  0.58980  0.08210  Biso   1.000  C
  H72      1.0000 0.30510  0.61110  0.12950  Biso   1.000  H
  C83      1.0000 0.13940  0.63380  0.05580  Biso   1.000  C
  H73      1.0000 0.09640  0.77770  0.03770  Biso   1.000  H
  H74      1.0000 0.21720  0.51800  0.08080  Biso   1.000  H
  C84      1.0000 0.07020  0.56890  0.02740  Biso   1.000  C
  H75      1.0000 0.95690  0.68090  0.01710  Biso   1.000  H
  H76      1.0000 0.95710  0.54370  0.07100  Biso   1.000  H
  H77      1.0000 0.18330  0.54360  0.98310  Biso   1.000  H
  N8       1.0000 0.57870  0.07860  0.20590  Biso   1.000  N
  C85      1.0000 0.62880  0.03030  0.17700  Biso   1.000  C
  C86      1.0000 0.57900  0.18240  0.20510  Biso   1.000  C
  C87      1.0000 0.68280  0.08030  0.14580  Biso   1.000  C
  H78      1.0000 0.62840  0.95770  0.17710  Biso   1.000  H
  H79      1.0000 0.54240  0.21870  0.22520  Biso   1.000  H
  C88      1.0000 0.63190  0.23760  0.17550  Biso   1.000  C
  C89      1.0000 0.68500  0.18720  0.14460  Biso   1.000  C
  H80      1.0000 0.71740  0.04160  0.12590  Biso   1.000  H
  H81      1.0000 0.63170  0.31010  0.17630  Biso   1.000  H
  C90      1.0000 0.74350  0.24750  0.11320  Biso   1.000  C
  C91      1.0000 0.80550  0.19980  0.08520  Biso   1.000  C
  C92      1.0000 0.73750  0.35350  0.11100  Biso   1.000  C
  C93      1.0000 0.86270  0.25760  0.05670  Biso   1.000  C
  H82      1.0000 0.81000  0.12740  0.08500  Biso   1.000  H
  C94      1.0000 0.79300  0.41020  0.08210  Biso   1.000  C
  H83      1.0000 0.69490  0.38890  0.12950  Biso   1.000  H
  C95      1.0000 0.86060  0.36620  0.05580  Biso   1.000  C
  H84      1.0000 0.90360  0.22230  0.03770  Biso   1.000  H
  H85      1.0000 0.78280  0.48200  0.08080  Biso   1.000  H
  C96      1.0000 0.92980  0.43110  0.02740  Biso   1.000  C
  H86      1.0000 0.04310  0.31910  0.01710  Biso   1.000  H
  H87      1.0000 0.04290  0.45630  0.07100  Biso   1.000  H
  H88      1.0000 0.81670  0.45640  0.98310  Biso   1.000  H
  Cu1      1.0000 0.50000  0.00000  0.25000  Biso   1.000  Cu
  Cu2      1.0000 0.50000  0.00000  0.75000  Biso   1.000  Cu
  C97      1.0000 0.13640  0.50000  0.50000  Biso   1.000  C
  C98      1.0000 0.86360  0.50000  0.50000  Biso   1.000  C
  C99      1.0000 0.00000  0.63640  0.00000  Biso   1.000  C
  C100     1.0000 0.00000  0.36360  0.00000  Biso   1.000  C
  C101     1.0000 0.00000  0.50000  0.44650  Biso   1.000  C
  C102     1.0000 0.00000  0.50000  0.94650  Biso   1.000  C
  C103     1.0000 0.00000  0.50000  0.55350  Biso   1.000  C
  C104     1.0000 0.00000  0.50000  0.05350  Biso   1.000  C
  C105     1.0000 0.00000  0.63890  0.50000  Biso   1.000  C
  C106     1.0000 0.00000  0.36110  0.50000  Biso   1.000  C
  C107     1.0000 0.86110  0.50000  0.00000  Biso   1.000  C
  C108     1.0000 0.13890  0.50000  0.00000  Biso   1.000  C
  N9       1.0000 0.92140  0.42130  0.79410  Biso   1.000  N
  C109     1.0000 0.96970  0.37120  0.82300  Biso   1.000  C
  C110     1.0000 0.81760  0.42100  0.79490  Biso   1.000  C
  C111     1.0000 0.91970  0.31720  0.85420  Biso   1.000  C
  H89      1.0000 0.04230  0.37160  0.82290  Biso   1.000  H
  H90      1.0000 0.78130  0.45760  0.77480  Biso   1.000  H
  C112     1.0000 0.76240  0.36810  0.82450  Biso   1.000  C
  C113     1.0000 0.81280  0.31500  0.85540  Biso   1.000  C
  H91      1.0000 0.95840  0.28260  0.87410  Biso   1.000  H
  H92      1.0000 0.68990  0.36830  0.82370  Biso   1.000  H
  C114     1.0000 0.75250  0.25650  0.88680  Biso   1.000  C
  C115     1.0000 0.80020  0.19450  0.91480  Biso   1.000  C
  C116     1.0000 0.64650  0.26250  0.88900  Biso   1.000  C
  C117     1.0000 0.74240  0.13730  0.94330  Biso   1.000  C
  H93      1.0000 0.87260  0.19000  0.91500  Biso   1.000  H
  C118     1.0000 0.58980  0.20700  0.91790  Biso   1.000  C
  H94      1.0000 0.61110  0.30510  0.87050  Biso   1.000  H
  C119     1.0000 0.63380  0.13940  0.94420  Biso   1.000  C
  H95      1.0000 0.77770  0.09640  0.96230  Biso   1.000  H
  H96      1.0000 0.51800  0.21720  0.91920  Biso   1.000  H
  C120     1.0000 0.56890  0.07020  0.97260  Biso   1.000  C
  H97      1.0000 0.68090  0.95690  0.98290  Biso   1.000  H
  H98      1.0000 0.54370  0.95710  0.92900  Biso   1.000  H
  H99      1.0000 0.54360  0.18330  0.01690  Biso   1.000  H
  N10      1.0000 0.07860  0.57870  0.79410  Biso   1.000  N
  C121     1.0000 0.03030  0.62880  0.82300  Biso   1.000  C
  C122     1.0000 0.18240  0.57900  0.79490  Biso   1.000  C
  C123     1.0000 0.08030  0.68280  0.85420  Biso   1.000  C
  H100     1.0000 0.95770  0.62840  0.82290  Biso   1.000  H
  H101     1.0000 0.21870  0.54240  0.77480  Biso   1.000  H
  C124     1.0000 0.23760  0.63190  0.82450  Biso   1.000  C
  C125     1.0000 0.18720  0.68500  0.85540  Biso   1.000  C
  H102     1.0000 0.04160  0.71740  0.87410  Biso   1.000  H
  H103     1.0000 0.31010  0.63170  0.82370  Biso   1.000  H
  C126     1.0000 0.24750  0.74350  0.88680  Biso   1.000  C
  C127     1.0000 0.19980  0.80550  0.91480  Biso   1.000  C
  C128     1.0000 0.35350  0.73750  0.88900  Biso   1.000  C
  C129     1.0000 0.25760  0.86270  0.94330  Biso   1.000  C
  H104     1.0000 0.12740  0.81000  0.91500  Biso   1.000  H
  C130     1.0000 0.41020  0.79300  0.91790  Biso   1.000  C
  H105     1.0000 0.38890  0.69490  0.87050  Biso   1.000  H
  C131     1.0000 0.36620  0.86060  0.94420  Biso   1.000  C
  H106     1.0000 0.22230  0.90360  0.96230  Biso   1.000  H
  H107     1.0000 0.48200  0.78280  0.91920  Biso   1.000  H
  C132     1.0000 0.43110  0.92980  0.97260  Biso   1.000  C
  H108     1.0000 0.31910  0.04310  0.98290  Biso   1.000  H
  H109     1.0000 0.45630  0.04290  0.92900  Biso   1.000  H
  H110     1.0000 0.45640  0.81670  0.01690  Biso   1.000  H
  N11      1.0000 0.07870  0.42140  0.29410  Biso   1.000  N
  C133     1.0000 0.12880  0.46970  0.32300  Biso   1.000  C
  C134     1.0000 0.07900  0.31760  0.29490  Biso   1.000  C
  C135     1.0000 0.18280  0.41970  0.35420  Biso   1.000  C
  H111     1.0000 0.12840  0.54230  0.32290  Biso   1.000  H
  H112     1.0000 0.04240  0.28130  0.27480  Biso   1.000  H
  C136     1.0000 0.13190  0.26240  0.32450  Biso   1.000  C
  C137     1.0000 0.18500  0.31280  0.35540  Biso   1.000  C
  H113     1.0000 0.21740  0.45840  0.37410  Biso   1.000  H
  H114     1.0000 0.13170  0.18990  0.32370  Biso   1.000  H
  C138     1.0000 0.24350  0.25250  0.38680  Biso   1.000  C
  C139     1.0000 0.30550  0.30020  0.41480  Biso   1.000  C
  C140     1.0000 0.23750  0.14650  0.38900  Biso   1.000  C
  C141     1.0000 0.36270  0.24240  0.44330  Biso   1.000  C
  H115     1.0000 0.31000  0.37260  0.41500  Biso   1.000  H
  C142     1.0000 0.29300  0.08980  0.41790  Biso   1.000  C
  H116     1.0000 0.19490  0.11110  0.37050  Biso   1.000  H
  C143     1.0000 0.36060  0.13380  0.44420  Biso   1.000  C
  H117     1.0000 0.40360  0.27770  0.46230  Biso   1.000  H
  H118     1.0000 0.28280  0.01800  0.41920  Biso   1.000  H
  C144     1.0000 0.42980  0.06890  0.47260  Biso   1.000  C
  H119     1.0000 0.54310  0.18090  0.48290  Biso   1.000  H
  H120     1.0000 0.54290  0.04370  0.42900  Biso   1.000  H
  H121     1.0000 0.31670  0.04360  0.51690  Biso   1.000  H
  N12      1.0000 0.92130  0.57860  0.29410  Biso   1.000  N
  C145     1.0000 0.87120  0.53030  0.32300  Biso   1.000  C
  C146     1.0000 0.92100  0.68240  0.29490  Biso   1.000  C
  C147     1.0000 0.81720  0.58030  0.35420  Biso   1.000  C
  H122     1.0000 0.87160  0.45770  0.32290  Biso   1.000  H
  H123     1.0000 0.95760  0.71870  0.27480  Biso   1.000  H
  C148     1.0000 0.86810  0.73760  0.32450  Biso   1.000  C
  C149     1.0000 0.81500  0.68720  0.35540  Biso   1.000  C
  H124     1.0000 0.78260  0.54160  0.37410  Biso   1.000  H
  H125     1.0000 0.86830  0.81010  0.32370  Biso   1.000  H
  C150     1.0000 0.75650  0.74750  0.38680  Biso   1.000  C
  C151     1.0000 0.69450  0.69980  0.41480  Biso   1.000  C
  C152     1.0000 0.76250  0.85350  0.38900  Biso   1.000  C
  C153     1.0000 0.63730  0.75760  0.44330  Biso   1.000  C
  H126     1.0000 0.69000  0.62740  0.41500  Biso   1.000  H
  C154     1.0000 0.70700  0.91020  0.41790  Biso   1.000  C
  H127     1.0000 0.80510  0.88890  0.37050  Biso   1.000  H
  C155     1.0000 0.63940  0.86620  0.44420  Biso   1.000  C
  H128     1.0000 0.59640  0.72230  0.46230  Biso   1.000  H
  H129     1.0000 0.71720  0.98200  0.41920  Biso   1.000  H
  C156     1.0000 0.57020  0.93110  0.47260  Biso   1.000  C
  H130     1.0000 0.45690  0.81910  0.48290  Biso   1.000  H
  H131     1.0000 0.45710  0.95630  0.42900  Biso   1.000  H
  H132     1.0000 0.68330  0.95640  0.51690  Biso   1.000  H
  N13      1.0000 0.07860  0.42130  0.20590  Biso   1.000  N
  C157     1.0000 0.03030  0.37120  0.17700  Biso   1.000  C
  C158     1.0000 0.18240  0.42100  0.20510  Biso   1.000  C
  C159     1.0000 0.08030  0.31720  0.14580  Biso   1.000  C
  H133     1.0000 0.95770  0.37160  0.17710  Biso   1.000  H
  H134     1.0000 0.21870  0.45760  0.22520  Biso   1.000  H
  C160     1.0000 0.23760  0.36810  0.17550  Biso   1.000  C
  C161     1.0000 0.18720  0.31500  0.14460  Biso   1.000  C
  H135     1.0000 0.04160  0.28260  0.12590  Biso   1.000  H
  H136     1.0000 0.31010  0.36830  0.17630  Biso   1.000  H
  C162     1.0000 0.24750  0.25650  0.11320  Biso   1.000  C
  C163     1.0000 0.19980  0.19450  0.08520  Biso   1.000  C
  C164     1.0000 0.35350  0.26250  0.11100  Biso   1.000  C
  C165     1.0000 0.25760  0.13730  0.05670  Biso   1.000  C
  H137     1.0000 0.12740  0.19000  0.08500  Biso   1.000  H
  C166     1.0000 0.41020  0.20700  0.08210  Biso   1.000  C
  H138     1.0000 0.38890  0.30510  0.12950  Biso   1.000  H
  C167     1.0000 0.36620  0.13940  0.05580  Biso   1.000  C
  H139     1.0000 0.22230  0.09640  0.03770  Biso   1.000  H
  H140     1.0000 0.48200  0.21720  0.08080  Biso   1.000  H
  C168     1.0000 0.43110  0.07020  0.02740  Biso   1.000  C
  H141     1.0000 0.31910  0.95690  0.01710  Biso   1.000  H
  H142     1.0000 0.45630  0.95710  0.07100  Biso   1.000  H
  H143     1.0000 0.45640  0.18330  0.98310  Biso   1.000  H
  N14      1.0000 0.92140  0.57870  0.20590  Biso   1.000  N
  C169     1.0000 0.96970  0.62880  0.17700  Biso   1.000  C
  C170     1.0000 0.81760  0.57900  0.20510  Biso   1.000  C
  C171     1.0000 0.91970  0.68280  0.14580  Biso   1.000  C
  H144     1.0000 0.04230  0.62840  0.17710  Biso   1.000  H
  H145     1.0000 0.78130  0.54240  0.22520  Biso   1.000  H
  C172     1.0000 0.76240  0.63190  0.17550  Biso   1.000  C
  C173     1.0000 0.81280  0.68500  0.14460  Biso   1.000  C
  H146     1.0000 0.95840  0.71740  0.12590  Biso   1.000  H
  H147     1.0000 0.68990  0.63170  0.17630  Biso   1.000  H
  C174     1.0000 0.75250  0.74350  0.11320  Biso   1.000  C
  C175     1.0000 0.80020  0.80550  0.08520  Biso   1.000  C
  C176     1.0000 0.64650  0.73750  0.11100  Biso   1.000  C
  C177     1.0000 0.74240  0.86270  0.05670  Biso   1.000  C
  H148     1.0000 0.87260  0.81000  0.08500  Biso   1.000  H
  C178     1.0000 0.58980  0.79300  0.08210  Biso   1.000  C
  H149     1.0000 0.61110  0.69490  0.12950  Biso   1.000  H
  C179     1.0000 0.63380  0.86060  0.05580  Biso   1.000  C
  H150     1.0000 0.77770  0.90360  0.03770  Biso   1.000  H
  H151     1.0000 0.51800  0.78280  0.08080  Biso   1.000  H
  C180     1.0000 0.56890  0.92980  0.02740  Biso   1.000  C
  H152     1.0000 0.68090  0.04310  0.01710  Biso   1.000  H
  H153     1.0000 0.54370  0.04290  0.07100  Biso   1.000  H
  H154     1.0000 0.54360  0.81670  0.98310  Biso   1.000  H
  N15      1.0000 0.92130  0.42140  0.70590  Biso   1.000  N
  C181     1.0000 0.87120  0.46970  0.67700  Biso   1.000  C
  C182     1.0000 0.92100  0.31760  0.70510  Biso   1.000  C
  C183     1.0000 0.81720  0.41970  0.64580  Biso   1.000  C
  H155     1.0000 0.87160  0.54230  0.67710  Biso   1.000  H
  H156     1.0000 0.95760  0.28130  0.72520  Biso   1.000  H
  C184     1.0000 0.86810  0.26240  0.67550  Biso   1.000  C
  C185     1.0000 0.81500  0.31280  0.64460  Biso   1.000  C
  H157     1.0000 0.78260  0.45840  0.62590  Biso   1.000  H
  H158     1.0000 0.86830  0.18990  0.67630  Biso   1.000  H
  C186     1.0000 0.75650  0.25250  0.61320  Biso   1.000  C
  C187     1.0000 0.69450  0.30020  0.58520  Biso   1.000  C
  C188     1.0000 0.76250  0.14650  0.61100  Biso   1.000  C
  C189     1.0000 0.63730  0.24240  0.55670  Biso   1.000  C
  H159     1.0000 0.69000  0.37260  0.58500  Biso   1.000  H
  C190     1.0000 0.70700  0.08980  0.58210  Biso   1.000  C
  H160     1.0000 0.80510  0.11110  0.62950  Biso   1.000  H
  C191     1.0000 0.63940  0.13380  0.55580  Biso   1.000  C
  H161     1.0000 0.59640  0.27770  0.53770  Biso   1.000  H
  H162     1.0000 0.71720  0.01800  0.58080  Biso   1.000  H
  C192     1.0000 0.57020  0.06890  0.52740  Biso   1.000  C
  H163     1.0000 0.45690  0.18090  0.51710  Biso   1.000  H
  H164     1.0000 0.45710  0.04370  0.57100  Biso   1.000  H
  H165     1.0000 0.68330  0.04360  0.48310  Biso   1.000  H
  N16      1.0000 0.07870  0.57860  0.70590  Biso   1.000  N
  C193     1.0000 0.12880  0.53030  0.67700  Biso   1.000  C
  C194     1.0000 0.07900  0.68240  0.70510  Biso   1.000  C
  C195     1.0000 0.18280  0.58030  0.64580  Biso   1.000  C
  H166     1.0000 0.12840  0.45770  0.67710  Biso   1.000  H
  H167     1.0000 0.04240  0.71870  0.72520  Biso   1.000  H
  C196     1.0000 0.13190  0.73760  0.67550  Biso   1.000  C
  C197     1.0000 0.18500  0.68720  0.64460  Biso   1.000  C
  H168     1.0000 0.21740  0.54160  0.62590  Biso   1.000  H
  H169     1.0000 0.13170  0.81010  0.67630  Biso   1.000  H
  C198     1.0000 0.24350  0.74750  0.61320  Biso   1.000  C
  C199     1.0000 0.30550  0.69980  0.58520  Biso   1.000  C
  C200     1.0000 0.23750  0.85350  0.61100  Biso   1.000  C
  C201     1.0000 0.36270  0.75760  0.55670  Biso   1.000  C
  H170     1.0000 0.31000  0.62740  0.58500  Biso   1.000  H
  C202     1.0000 0.29300  0.91020  0.58210  Biso   1.000  C
  H171     1.0000 0.19490  0.88890  0.62950  Biso   1.000  H
  C203     1.0000 0.36060  0.86620  0.55580  Biso   1.000  C
  H172     1.0000 0.40360  0.72230  0.53770  Biso   1.000  H
  H173     1.0000 0.28280  0.98200  0.58080  Biso   1.000  H
  C204     1.0000 0.42980  0.93110  0.52740  Biso   1.000  C
  H174     1.0000 0.54310  0.81910  0.51710  Biso   1.000  H
  H175     1.0000 0.54290  0.95630  0.57100  Biso   1.000  H
  H176     1.0000 0.31670  0.95640  0.48310  Biso   1.000  H
  Cu3      1.0000 0.00000  0.50000  0.25000  Biso   1.000  Cu
  Cu4      1.0000 0.00000  0.50000  0.75000  Biso   1.000  Cu
  C205     1.0000 0.63640  0.00000  0.00000  Biso   1.000  C
  C206     1.0000 0.36360  0.00000  0.00000  Biso   1.000  C
  C207     1.0000 0.50000  0.13640  0.50000  Biso   1.000  C
  C208     1.0000 0.50000  0.86360  0.50000  Biso   1.000  C
  C209     1.0000 0.50000  0.00000  0.94650  Biso   1.000  C
  C210     1.0000 0.50000  0.00000  0.44650  Biso   1.000  C
  C211     1.0000 0.50000  0.00000  0.05350  Biso   1.000  C
  C212     1.0000 0.50000  0.00000  0.55350  Biso   1.000  C
  C213     1.0000 0.50000  0.13890  0.00000  Biso   1.000  C
  C214     1.0000 0.50000  0.86110  0.00000  Biso   1.000  C
  C215     1.0000 0.36110  0.00000  0.50000  Biso   1.000  C
  C216     1.0000 0.63890  0.00000  0.50000  Biso   1.000  C
