data_image0
_cell_length_a       14.6524
_cell_length_b       15.5911
_cell_length_c       15.5911
_cell_angle_alpha    106.104
_cell_angle_beta     94.5845
_cell_angle_gamma    85.4155

_symmetry_space_group_name_H-M    P 1
_symmetry_int_tables_number       1

loop_
  _symmetry_equiv_pos_as_xyz
  'x, y, z'

loop_
  _atom_site_label
  _atom_site_occupancy
  _atom_site_fract_x
  _atom_site_fract_y
  _atom_site_fract_z
  _atom_site_thermal_displace_type
  _atom_site_B_iso_or_equiv
  _atom_site_type_symbol
  Cu1      1.0000 0.02188  0.24817  0.64443  Biso   1.000  Cu
  Cu2      1.0000 0.47812  0.64443  0.24817  Biso   1.000  Cu
  Cu3      1.0000 0.97812  0.75183  0.35557  Biso   1.000  Cu
  Cu4      1.0000 0.52188  0.35557  0.75183  Biso   1.000  Cu
  Cu5      1.0000 0.75000  0.14103  0.14103  Biso   1.000  Cu
  Cu6      1.0000 0.25000  0.85897  0.85897  Biso   1.000  Cu
  H1       1.0000 0.18950  0.49290  0.55890  Biso   1.000  H
  H2       1.0000 0.03190  0.31000  0.27320  Biso   1.000  H
  H3       1.0000 0.93340  0.22630  0.16530  Biso   1.000  H
  H4       1.0000 0.78060  0.19360  0.34800  Biso   1.000  H
  H5       1.0000 0.87350  0.27790  0.46170  Biso   1.000  H
  H6       1.0000 0.06020  0.03570  0.35450  Biso   1.000  H
  H7       1.0000 0.23660  0.19630  0.69510  Biso   1.000  H
  H8       1.0000 0.36260  0.26390  0.77430  Biso   1.000  H
  H9       1.0000 0.44710  0.30890  0.55870  Biso   1.000  H
  H10      1.0000 0.32180  0.24370  0.47350  Biso   1.000  H
  H11      1.0000 0.61980  0.84820  0.01100  Biso   1.000  H
  H12      1.0000 0.58130  0.03000  0.78200  Biso   1.000  H
  H13      1.0000 0.55340  0.14320  0.71160  Biso   1.000  H
  H14      1.0000 0.56690  0.32690  0.94110  Biso   1.000  H
  H15      1.0000 0.59790  0.21990  0.01870  Biso   1.000  H
  H16      1.0000 0.31050  0.55890  0.49290  Biso   1.000  H
  H17      1.0000 0.46810  0.27320  0.31000  Biso   1.000  H
  H18      1.0000 0.56660  0.16530  0.22630  Biso   1.000  H
  H19      1.0000 0.71940  0.34800  0.19360  Biso   1.000  H
  H20      1.0000 0.62650  0.46170  0.27790  Biso   1.000  H
  H21      1.0000 0.43980  0.35450  0.03570  Biso   1.000  H
  H22      1.0000 0.26340  0.69510  0.19630  Biso   1.000  H
  H23      1.0000 0.13740  0.77430  0.26390  Biso   1.000  H
  H24      1.0000 0.05290  0.55870  0.30890  Biso   1.000  H
  H25      1.0000 0.17820  0.47350  0.24370  Biso   1.000  H
  H26      1.0000 0.88020  0.01100  0.84820  Biso   1.000  H
  H27      1.0000 0.91870  0.78200  0.03000  Biso   1.000  H
  H28      1.0000 0.94660  0.71160  0.14320  Biso   1.000  H
  H29      1.0000 0.93310  0.94110  0.32690  Biso   1.000  H
  H30      1.0000 0.90210  0.01870  0.21990  Biso   1.000  H
  H31      1.0000 0.81050  0.50710  0.44110  Biso   1.000  H
  H32      1.0000 0.96810  0.69000  0.72680  Biso   1.000  H
  H33      1.0000 0.06660  0.77370  0.83470  Biso   1.000  H
  H34      1.0000 0.21940  0.80640  0.65200  Biso   1.000  H
  H35      1.0000 0.12650  0.72210  0.53830  Biso   1.000  H
  H36      1.0000 0.93980  0.96430  0.64550  Biso   1.000  H
  H37      1.0000 0.76340  0.80370  0.30490  Biso   1.000  H
  H38      1.0000 0.63740  0.73610  0.22570  Biso   1.000  H
  H39      1.0000 0.55290  0.69110  0.44130  Biso   1.000  H
  H40      1.0000 0.67820  0.75630  0.52650  Biso   1.000  H
  H41      1.0000 0.38020  0.15180  0.98900  Biso   1.000  H
  H42      1.0000 0.41870  0.97000  0.21800  Biso   1.000  H
  H43      1.0000 0.44660  0.85680  0.28840  Biso   1.000  H
  H44      1.0000 0.43310  0.67310  0.05890  Biso   1.000  H
  H45      1.0000 0.40210  0.78010  0.98130  Biso   1.000  H
  H46      1.0000 0.68950  0.44110  0.50710  Biso   1.000  H
  H47      1.0000 0.53190  0.72680  0.69000  Biso   1.000  H
  H48      1.0000 0.43340  0.83470  0.77370  Biso   1.000  H
  H49      1.0000 0.28060  0.65200  0.80640  Biso   1.000  H
  H50      1.0000 0.37350  0.53830  0.72210  Biso   1.000  H
  H51      1.0000 0.56020  0.64550  0.96430  Biso   1.000  H
  H52      1.0000 0.73660  0.30490  0.80370  Biso   1.000  H
  H53      1.0000 0.86260  0.22570  0.73610  Biso   1.000  H
  H54      1.0000 0.94710  0.44130  0.69110  Biso   1.000  H
  H55      1.0000 0.82180  0.52650  0.75630  Biso   1.000  H
  H56      1.0000 0.11980  0.98900  0.15180  Biso   1.000  H
  H57      1.0000 0.08130  0.21800  0.97000  Biso   1.000  H
  H58      1.0000 0.05340  0.28840  0.85680  Biso   1.000  H
  H59      1.0000 0.06690  0.05890  0.67310  Biso   1.000  H
  H60      1.0000 0.09790  0.98130  0.78010  Biso   1.000  H
  C1       1.0000 0.13660  0.40007  0.67293  Biso   1.000  C
  C2       1.0000 0.10670  0.40132  0.57888  Biso   1.000  C
  C3       1.0000 0.14410  0.45128  0.53412  Biso   1.000  C
  C4       1.0000 0.02850  0.35403  0.44977  Biso   1.000  C
  C5       1.0000 0.96510  0.30320  0.38000  Biso   1.000  C
  C6       1.0000 0.98060  0.28683  0.29057  Biso   1.000  C
  C7       1.0000 0.92140  0.23670  0.22650  Biso   1.000  C
  C8       1.0000 0.83250  0.21797  0.33283  Biso   1.000  C
  C9       1.0000 0.88770  0.26771  0.40109  Biso   1.000  C
  C10      1.0000 0.95160  0.11078  0.50402  Biso   1.000  C
  C11      1.0000 0.04820  0.11496  0.48250  Biso   1.000  C
  C12      1.0000 0.08940  0.07387  0.40593  Biso   1.000  C
  C13      1.0000 0.18750  0.16585  0.52171  Biso   1.000  C
  C14      1.0000 0.26530  0.21158  0.57528  Biso   1.000  C
  C15      1.0000 0.27920  0.21919  0.66545  Biso   1.000  C
  C16      1.0000 0.35420  0.25958  0.71226  Biso   1.000  C
  C17      1.0000 0.40310  0.28593  0.58667  Biso   1.000  C
  C18      1.0000 0.32920  0.24672  0.53528  Biso   1.000  C
  C19      1.0000 0.68710  0.98344  0.15976  Biso   1.000  C
  C20      1.0000 0.65090  0.97877  0.06563  Biso   1.000  C
  C21      1.0000 0.62100  0.90618  0.00262  Biso   1.000  C
  C22      1.0000 0.61260  0.04319  0.95621  Biso   1.000  C
  C23      1.0000 0.59370  0.11250  0.90870  Biso   1.000  C
  C24      1.0000 0.57940  0.09077  0.81643  Biso   1.000  C
  C25      1.0000 0.56220  0.15898  0.77502  Biso   1.000  C
  C26      1.0000 0.57040  0.26567  0.90829  Biso   1.000  C
  C27      1.0000 0.58880  0.20222  0.95538  Biso   1.000  C
  C28      1.0000 0.36340  0.67293  0.40007  Biso   1.000  C
  C29      1.0000 0.39330  0.57888  0.40132  Biso   1.000  C
  C30      1.0000 0.35590  0.53412  0.45128  Biso   1.000  C
  C31      1.0000 0.47150  0.44977  0.35403  Biso   1.000  C
  C32      1.0000 0.53490  0.38000  0.30320  Biso   1.000  C
  C33      1.0000 0.51940  0.29057  0.28683  Biso   1.000  C
  C34      1.0000 0.57860  0.22650  0.23670  Biso   1.000  C
  C35      1.0000 0.66750  0.33283  0.21797  Biso   1.000  C
  C36      1.0000 0.61230  0.40109  0.26771  Biso   1.000  C
  C37      1.0000 0.54840  0.50402  0.11078  Biso   1.000  C
  C38      1.0000 0.45180  0.48250  0.11496  Biso   1.000  C
  C39      1.0000 0.41060  0.40593  0.07387  Biso   1.000  C
  C40      1.0000 0.31250  0.52171  0.16585  Biso   1.000  C
  C41      1.0000 0.23470  0.57528  0.21158  Biso   1.000  C
  C42      1.0000 0.22080  0.66545  0.21919  Biso   1.000  C
  C43      1.0000 0.14580  0.71226  0.25958  Biso   1.000  C
  C44      1.0000 0.09690  0.58667  0.28593  Biso   1.000  C
  C45      1.0000 0.17080  0.53528  0.24672  Biso   1.000  C
  C46      1.0000 0.81290  0.15976  0.98344  Biso   1.000  C
  C47      1.0000 0.84910  0.06563  0.97877  Biso   1.000  C
  C48      1.0000 0.87900  0.00262  0.90618  Biso   1.000  C
  C49      1.0000 0.88740  0.95621  0.04319  Biso   1.000  C
  C50      1.0000 0.90630  0.90870  0.11250  Biso   1.000  C
  C51      1.0000 0.92060  0.81643  0.09077  Biso   1.000  C
  C52      1.0000 0.93780  0.77502  0.15898  Biso   1.000  C
  C53      1.0000 0.92960  0.90829  0.26567  Biso   1.000  C
  C54      1.0000 0.91120  0.95538  0.20222  Biso   1.000  C
  C55      1.0000 0.86340  0.59993  0.32707  Biso   1.000  C
  C56      1.0000 0.89330  0.59868  0.42112  Biso   1.000  C
  C57      1.0000 0.85590  0.54872  0.46588  Biso   1.000  C
  C58      1.0000 0.97150  0.64597  0.55023  Biso   1.000  C
  C59      1.0000 0.03490  0.69680  0.62000  Biso   1.000  C
  C60      1.0000 0.01940  0.71317  0.70943  Biso   1.000  C
  C61      1.0000 0.07860  0.76330  0.77350  Biso   1.000  C
  C62      1.0000 0.16750  0.78203  0.66717  Biso   1.000  C
  C63      1.0000 0.11230  0.73229  0.59891  Biso   1.000  C
  C64      1.0000 0.04840  0.88922  0.49598  Biso   1.000  C
  C65      1.0000 0.95180  0.88504  0.51750  Biso   1.000  C
  C66      1.0000 0.91060  0.92613  0.59407  Biso   1.000  C
  C67      1.0000 0.81250  0.83415  0.47829  Biso   1.000  C
  C68      1.0000 0.73470  0.78842  0.42472  Biso   1.000  C
  C69      1.0000 0.72080  0.78081  0.33455  Biso   1.000  C
  C70      1.0000 0.64580  0.74042  0.28774  Biso   1.000  C
  C71      1.0000 0.59690  0.71407  0.41333  Biso   1.000  C
  C72      1.0000 0.67080  0.75328  0.46472  Biso   1.000  C
  C73      1.0000 0.31290  0.01656  0.84024  Biso   1.000  C
  C74      1.0000 0.34910  0.02123  0.93437  Biso   1.000  C
  C75      1.0000 0.37900  0.09382  0.99738  Biso   1.000  C
  C76      1.0000 0.38740  0.95681  0.04379  Biso   1.000  C
  C77      1.0000 0.40630  0.88750  0.09130  Biso   1.000  C
  C78      1.0000 0.42060  0.90923  0.18357  Biso   1.000  C
  C79      1.0000 0.43780  0.84102  0.22498  Biso   1.000  C
  C80      1.0000 0.42960  0.73433  0.09171  Biso   1.000  C
  C81      1.0000 0.41120  0.79778  0.04462  Biso   1.000  C
  C82      1.0000 0.63660  0.32707  0.59993  Biso   1.000  C
  C83      1.0000 0.60670  0.42112  0.59868  Biso   1.000  C
  C84      1.0000 0.64410  0.46588  0.54872  Biso   1.000  C
  C85      1.0000 0.52850  0.55023  0.64597  Biso   1.000  C
  C86      1.0000 0.46510  0.62000  0.69680  Biso   1.000  C
  C87      1.0000 0.48060  0.70943  0.71317  Biso   1.000  C
  C88      1.0000 0.42140  0.77350  0.76330  Biso   1.000  C
  C89      1.0000 0.33250  0.66717  0.78203  Biso   1.000  C
  C90      1.0000 0.38770  0.59891  0.73229  Biso   1.000  C
  C91      1.0000 0.45160  0.49598  0.88922  Biso   1.000  C
  C92      1.0000 0.54820  0.51750  0.88504  Biso   1.000  C
  C93      1.0000 0.58940  0.59407  0.92613  Biso   1.000  C
  C94      1.0000 0.68750  0.47829  0.83415  Biso   1.000  C
  C95      1.0000 0.76530  0.42472  0.78842  Biso   1.000  C
  C96      1.0000 0.77920  0.33455  0.78081  Biso   1.000  C
  C97      1.0000 0.85420  0.28774  0.74042  Biso   1.000  C
  C98      1.0000 0.90310  0.41333  0.71407  Biso   1.000  C
  C99      1.0000 0.82920  0.46472  0.75328  Biso   1.000  C
  C100     1.0000 0.18710  0.84024  0.01656  Biso   1.000  C
  C101     1.0000 0.15090  0.93437  0.02123  Biso   1.000  C
  C102     1.0000 0.12100  0.99738  0.09382  Biso   1.000  C
  C103     1.0000 0.11260  0.04379  0.95681  Biso   1.000  C
  C104     1.0000 0.09370  0.09130  0.88750  Biso   1.000  C
  C105     1.0000 0.07940  0.18357  0.90923  Biso   1.000  C
  C106     1.0000 0.06220  0.22498  0.84102  Biso   1.000  C
  C107     1.0000 0.07040  0.09171  0.73433  Biso   1.000  C
  C108     1.0000 0.08880  0.04462  0.79778  Biso   1.000  C
  S1       1.0000 0.09842  0.42912  0.42726  Biso   1.000  S
  S2       1.0000 0.20063  0.10003  0.41435  Biso   1.000  S
  S3       1.0000 0.58597  0.93384  0.90652  Biso   1.000  S
  S4       1.0000 0.40158  0.42726  0.42912  Biso   1.000  S
  S5       1.0000 0.29937  0.41435  0.10003  Biso   1.000  S
  S6       1.0000 0.91403  0.90652  0.93384  Biso   1.000  S
  S7       1.0000 0.90158  0.57088  0.57274  Biso   1.000  S
  S8       1.0000 0.79937  0.89997  0.58565  Biso   1.000  S
  S9       1.0000 0.41403  0.06616  0.09348  Biso   1.000  S
  S10      1.0000 0.59842  0.57274  0.57088  Biso   1.000  S
  S11      1.0000 0.70063  0.58565  0.89997  Biso   1.000  S
  S12      1.0000 0.08597  0.09348  0.06616  Biso   1.000  S
  N1       1.0000 0.03950  0.34731  0.53091  Biso   1.000  N
  N2       1.0000 0.84800  0.20206  0.24608  Biso   1.000  N
  N3       1.0000 0.10390  0.16749  0.54851  Biso   1.000  N
  N4       1.0000 0.41610  0.29315  0.67469  Biso   1.000  N
  N5       1.0000 0.64600  0.05630  0.03926  Biso   1.000  N
  N6       1.0000 0.55727  0.24552  0.81936  Biso   1.000  N
  N7       1.0000 0.46050  0.53091  0.34731  Biso   1.000  N
  N8       1.0000 0.65200  0.24608  0.20206  Biso   1.000  N
  N9       1.0000 0.39610  0.54851  0.16749  Biso   1.000  N
  N10      1.0000 0.08390  0.67469  0.29315  Biso   1.000  N
  N11      1.0000 0.85400  0.03926  0.05630  Biso   1.000  N
  N12      1.0000 0.94273  0.81936  0.24552  Biso   1.000  N
  N13      1.0000 0.96050  0.65269  0.46909  Biso   1.000  N
  N14      1.0000 0.15200  0.79794  0.75392  Biso   1.000  N
  N15      1.0000 0.89610  0.83251  0.45149  Biso   1.000  N
  N16      1.0000 0.58390  0.70685  0.32531  Biso   1.000  N
  N17      1.0000 0.35400  0.94370  0.96074  Biso   1.000  N
  N18      1.0000 0.44273  0.75448  0.18064  Biso   1.000  N
  N19      1.0000 0.53950  0.46909  0.65269  Biso   1.000  N
  N20      1.0000 0.34800  0.75392  0.79794  Biso   1.000  N
  N21      1.0000 0.60390  0.45149  0.83251  Biso   1.000  N
  N22      1.0000 0.91610  0.32531  0.70685  Biso   1.000  N
  N23      1.0000 0.14600  0.96074  0.94370  Biso   1.000  N
  N24      1.0000 0.05727  0.18064  0.75448  Biso   1.000  N
  O1       1.0000 0.10610  0.34169  0.70329  Biso   1.000  O
  O2       1.0000 0.19096  0.45543  0.71443  Biso   1.000  O
  O3       1.0000 0.93042  0.16337  0.57939  Biso   1.000  O
  O4       1.0000 0.89991  0.06026  0.45098  Biso   1.000  O
  O5       1.0000 0.71830  0.05801  0.20449  Biso   1.000  O
  O6       1.0000 0.68473  0.91757  0.18927  Biso   1.000  O
  O7       1.0000 0.39390  0.70329  0.34169  Biso   1.000  O
  O8       1.0000 0.30904  0.71443  0.45543  Biso   1.000  O
  O9       1.0000 0.56958  0.57939  0.16337  Biso   1.000  O
  O10      1.0000 0.60009  0.45098  0.06026  Biso   1.000  O
  O11      1.0000 0.78170  0.20449  0.05801  Biso   1.000  O
  O12      1.0000 0.81527  0.18927  0.91757  Biso   1.000  O
  O13      1.0000 0.89390  0.65831  0.29671  Biso   1.000  O
  O14      1.0000 0.80904  0.54457  0.28557  Biso   1.000  O
  O15      1.0000 0.06958  0.83663  0.42061  Biso   1.000  O
  O16      1.0000 0.10009  0.93974  0.54902  Biso   1.000  O
  O17      1.0000 0.28170  0.94199  0.79551  Biso   1.000  O
  O18      1.0000 0.31527  0.08243  0.81073  Biso   1.000  O
  O19      1.0000 0.60610  0.29671  0.65831  Biso   1.000  O
  O20      1.0000 0.69096  0.28557  0.54457  Biso   1.000  O
  O21      1.0000 0.43042  0.42061  0.83663  Biso   1.000  O
  O22      1.0000 0.39991  0.54902  0.93974  Biso   1.000  O
  O23      1.0000 0.21830  0.79551  0.94199  Biso   1.000  O
  O24      1.0000 0.18473  0.81073  0.08243  Biso   1.000  O
