data_image0
_cell_length_a       16.7295
_cell_length_b       18.1404
_cell_length_c       33.4739
_cell_angle_alpha    90
_cell_angle_beta     90
_cell_angle_gamma    117.459

_symmetry_space_group_name_H-M    P 1
_symmetry_int_tables_number       1

loop_
  _symmetry_equiv_pos_as_xyz
  'x, y, z'

loop_
  _atom_site_label
  _atom_site_occupancy
  _atom_site_fract_x
  _atom_site_fract_y
  _atom_site_fract_z
  _atom_site_thermal_displace_type
  _atom_site_B_iso_or_equiv
  _atom_site_type_symbol
  Dy1      1.0000 0.73307  0.46615  0.25000  Biso   1.000  Dy
  Dy2      1.0000 0.26693  0.53385  0.25000  Biso   1.000  Dy
  Dy3      1.0000 0.26693  0.53385  0.75000  Biso   1.000  Dy
  Dy4      1.0000 0.73307  0.46615  0.75000  Biso   1.000  Dy
  Dy5      1.0000 0.00000  0.50000  0.28377  Biso   1.000  Dy
  Dy6      1.0000 0.50000  0.50000  0.21623  Biso   1.000  Dy
  Dy7      1.0000 0.00000  0.50000  0.71623  Biso   1.000  Dy
  Dy8      1.0000 0.50000  0.50000  0.78377  Biso   1.000  Dy
  Zn1      1.0000 0.64490  0.05994  0.00000  Biso   1.000  Zn
  Zn2      1.0000 0.35510  0.94006  0.00000  Biso   1.000  Zn
  Zn3      1.0000 0.41504  0.05994  0.50000  Biso   1.000  Zn
  Zn4      1.0000 0.58496  0.94006  0.50000  Biso   1.000  Zn
  Zn5      1.0000 0.00000  0.00000  0.50000  Biso   1.000  Zn
  Zn6      1.0000 0.00000  0.00000  0.00000  Biso   1.000  Zn
  H1       1.0000 0.82070  0.36460  0.03660  Biso   1.000  H
  H2       1.0000 0.72490  0.12960  0.14660  Biso   1.000  H
  H3       1.0000 0.63290  0.97960  0.14570  Biso   1.000  H
  H4       1.0000 0.43740  0.75960  0.03540  Biso   1.000  H
  H5       1.0000 0.88260  0.23600  0.11670  Biso   1.000  H
  H6       1.0000 0.94520  0.32240  0.17110  Biso   1.000  H
  H7       1.0000 0.76860  0.41000  0.15900  Biso   1.000  H
  H8       1.0000 0.71270  0.33180  0.10110  Biso   1.000  H
  H9       1.0000 0.45160  0.88260  0.13620  Biso   1.000  H
  H10      1.0000 0.39890  0.77260  0.18230  Biso   1.000  H
  H11      1.0000 0.54200  0.67740  0.12720  Biso   1.000  H
  H12      1.0000 0.59290  0.78600  0.08090  Biso   1.000  H
  H13      1.0000 0.90160  0.69880  0.46320  Biso   1.000  H
  H14      1.0000 0.98000  0.92660  0.35260  Biso   1.000  H
  H15      1.0000 0.76470  0.62980  0.35320  Biso   1.000  H
  H16      1.0000 0.79100  0.72780  0.40300  Biso   1.000  H
  H17      1.0000 0.02190  0.70640  0.33740  Biso   1.000  H
  H18      1.0000 0.05380  0.81580  0.38150  Biso   1.000  H
  H19      1.0000 0.17930  0.63540  0.03660  Biso   1.000  H
  H20      1.0000 0.27510  0.87040  0.14660  Biso   1.000  H
  H21      1.0000 0.36710  0.02040  0.14570  Biso   1.000  H
  H22      1.0000 0.56260  0.24040  0.03540  Biso   1.000  H
  H23      1.0000 0.11740  0.76400  0.11670  Biso   1.000  H
  H24      1.0000 0.05480  0.67760  0.17110  Biso   1.000  H
  H25      1.0000 0.23140  0.59000  0.15900  Biso   1.000  H
  H26      1.0000 0.28730  0.66820  0.10110  Biso   1.000  H
  H27      1.0000 0.54840  0.11740  0.13620  Biso   1.000  H
  H28      1.0000 0.60110  0.22740  0.18230  Biso   1.000  H
  H29      1.0000 0.45800  0.32260  0.12720  Biso   1.000  H
  H30      1.0000 0.40710  0.21400  0.08090  Biso   1.000  H
  H31      1.0000 0.09840  0.30120  0.46320  Biso   1.000  H
  H32      1.0000 0.02000  0.07340  0.35260  Biso   1.000  H
  H33      1.0000 0.23530  0.37020  0.35320  Biso   1.000  H
  H34      1.0000 0.20900  0.27220  0.40300  Biso   1.000  H
  H35      1.0000 0.97810  0.29360  0.33740  Biso   1.000  H
  H36      1.0000 0.94620  0.18420  0.38150  Biso   1.000  H
  H37      1.0000 0.54390  0.36460  0.46340  Biso   1.000  H
  H38      1.0000 0.40470  0.12960  0.35340  Biso   1.000  H
  H39      1.0000 0.34670  0.97960  0.35430  Biso   1.000  H
  H40      1.0000 0.32220  0.75960  0.46460  Biso   1.000  H
  H41      1.0000 0.35340  0.23600  0.38330  Biso   1.000  H
  H42      1.0000 0.37720  0.32240  0.32890  Biso   1.000  H
  H43      1.0000 0.64140  0.41000  0.34100  Biso   1.000  H
  H44      1.0000 0.61910  0.33180  0.39890  Biso   1.000  H
  H45      1.0000 0.43100  0.88260  0.36380  Biso   1.000  H
  H46      1.0000 0.37370  0.77260  0.31770  Biso   1.000  H
  H47      1.0000 0.13540  0.67740  0.37280  Biso   1.000  H
  H48      1.0000 0.19310  0.78600  0.41910  Biso   1.000  H
  H49      1.0000 0.79720  0.69880  0.03680  Biso   1.000  H
  H50      1.0000 0.94660  0.92660  0.14740  Biso   1.000  H
  H51      1.0000 0.86510  0.62980  0.14680  Biso   1.000  H
  H52      1.0000 0.93680  0.72780  0.09700  Biso   1.000  H
  H53      1.0000 0.68450  0.70640  0.16260  Biso   1.000  H
  H54      1.0000 0.76200  0.81580  0.11850  Biso   1.000  H
  H55      1.0000 0.45610  0.63540  0.46340  Biso   1.000  H
  H56      1.0000 0.59530  0.87040  0.35340  Biso   1.000  H
  H57      1.0000 0.65330  0.02040  0.35430  Biso   1.000  H
  H58      1.0000 0.67780  0.24040  0.46460  Biso   1.000  H
  H59      1.0000 0.64660  0.76400  0.38330  Biso   1.000  H
  H60      1.0000 0.62280  0.67760  0.32890  Biso   1.000  H
  H61      1.0000 0.35860  0.59000  0.34100  Biso   1.000  H
  H62      1.0000 0.38090  0.66820  0.39890  Biso   1.000  H
  H63      1.0000 0.56900  0.11740  0.36380  Biso   1.000  H
  H64      1.0000 0.62630  0.22740  0.31770  Biso   1.000  H
  H65      1.0000 0.86460  0.32260  0.37280  Biso   1.000  H
  H66      1.0000 0.80690  0.21400  0.41910  Biso   1.000  H
  H67      1.0000 0.20280  0.30120  0.03680  Biso   1.000  H
  H68      1.0000 0.05340  0.07340  0.14740  Biso   1.000  H
  H69      1.0000 0.13490  0.37020  0.14680  Biso   1.000  H
  H70      1.0000 0.06320  0.27220  0.09700  Biso   1.000  H
  H71      1.0000 0.31550  0.29360  0.16260  Biso   1.000  H
  H72      1.0000 0.23800  0.18420  0.11850  Biso   1.000  H
  H73      1.0000 0.17930  0.63540  0.96340  Biso   1.000  H
  H74      1.0000 0.27510  0.87040  0.85340  Biso   1.000  H
  H75      1.0000 0.36710  0.02040  0.85430  Biso   1.000  H
  H76      1.0000 0.56260  0.24040  0.96460  Biso   1.000  H
  H77      1.0000 0.11740  0.76400  0.88330  Biso   1.000  H
  H78      1.0000 0.05480  0.67760  0.82890  Biso   1.000  H
  H79      1.0000 0.23140  0.59000  0.84100  Biso   1.000  H
  H80      1.0000 0.28730  0.66820  0.89890  Biso   1.000  H
  H81      1.0000 0.54840  0.11740  0.86380  Biso   1.000  H
  H82      1.0000 0.60110  0.22740  0.81770  Biso   1.000  H
  H83      1.0000 0.45800  0.32260  0.87280  Biso   1.000  H
  H84      1.0000 0.40710  0.21400  0.91910  Biso   1.000  H
  H85      1.0000 0.09840  0.30120  0.53680  Biso   1.000  H
  H86      1.0000 0.02000  0.07340  0.64740  Biso   1.000  H
  H87      1.0000 0.23530  0.37020  0.64680  Biso   1.000  H
  H88      1.0000 0.20900  0.27220  0.59700  Biso   1.000  H
  H89      1.0000 0.97810  0.29360  0.66260  Biso   1.000  H
  H90      1.0000 0.94620  0.18420  0.61850  Biso   1.000  H
  H91      1.0000 0.82070  0.36460  0.96340  Biso   1.000  H
  H92      1.0000 0.72490  0.12960  0.85340  Biso   1.000  H
  H93      1.0000 0.63290  0.97960  0.85430  Biso   1.000  H
  H94      1.0000 0.43740  0.75960  0.96460  Biso   1.000  H
  H95      1.0000 0.88260  0.23600  0.88330  Biso   1.000  H
  H96      1.0000 0.94520  0.32240  0.82890  Biso   1.000  H
  H97      1.0000 0.76860  0.41000  0.84100  Biso   1.000  H
  H98      1.0000 0.71270  0.33180  0.89890  Biso   1.000  H
  H99      1.0000 0.45160  0.88260  0.86380  Biso   1.000  H
  H100     1.0000 0.39890  0.77260  0.81770  Biso   1.000  H
  H101     1.0000 0.54200  0.67740  0.87280  Biso   1.000  H
  H102     1.0000 0.59290  0.78600  0.91910  Biso   1.000  H
  H103     1.0000 0.90160  0.69880  0.53680  Biso   1.000  H
  H104     1.0000 0.98000  0.92660  0.64740  Biso   1.000  H
  H105     1.0000 0.76470  0.62980  0.64680  Biso   1.000  H
  H106     1.0000 0.79100  0.72780  0.59700  Biso   1.000  H
  H107     1.0000 0.02190  0.70640  0.66260  Biso   1.000  H
  H108     1.0000 0.05380  0.81580  0.61850  Biso   1.000  H
  H109     1.0000 0.45610  0.63540  0.53660  Biso   1.000  H
  H110     1.0000 0.59530  0.87040  0.64660  Biso   1.000  H
  H111     1.0000 0.65330  0.02040  0.64570  Biso   1.000  H
  H112     1.0000 0.67780  0.24040  0.53540  Biso   1.000  H
  H113     1.0000 0.64660  0.76400  0.61670  Biso   1.000  H
  H114     1.0000 0.62280  0.67760  0.67110  Biso   1.000  H
  H115     1.0000 0.35860  0.59000  0.65900  Biso   1.000  H
  H116     1.0000 0.38090  0.66820  0.60110  Biso   1.000  H
  H117     1.0000 0.56900  0.11740  0.63620  Biso   1.000  H
  H118     1.0000 0.62630  0.22740  0.68230  Biso   1.000  H
  H119     1.0000 0.86460  0.32260  0.62720  Biso   1.000  H
  H120     1.0000 0.80690  0.21400  0.58090  Biso   1.000  H
  H121     1.0000 0.20280  0.30120  0.96320  Biso   1.000  H
  H122     1.0000 0.05340  0.07340  0.85260  Biso   1.000  H
  H123     1.0000 0.13490  0.37020  0.85320  Biso   1.000  H
  H124     1.0000 0.06320  0.27220  0.90300  Biso   1.000  H
  H125     1.0000 0.31550  0.29360  0.83740  Biso   1.000  H
  H126     1.0000 0.23800  0.18420  0.88150  Biso   1.000  H
  H127     1.0000 0.54390  0.36460  0.53660  Biso   1.000  H
  H128     1.0000 0.40470  0.12960  0.64660  Biso   1.000  H
  H129     1.0000 0.34670  0.97960  0.64570  Biso   1.000  H
  H130     1.0000 0.32220  0.75960  0.53540  Biso   1.000  H
  H131     1.0000 0.35340  0.23600  0.61670  Biso   1.000  H
  H132     1.0000 0.37720  0.32240  0.67110  Biso   1.000  H
  H133     1.0000 0.64140  0.41000  0.65900  Biso   1.000  H
  H134     1.0000 0.61910  0.33180  0.60110  Biso   1.000  H
  H135     1.0000 0.43100  0.88260  0.63620  Biso   1.000  H
  H136     1.0000 0.37370  0.77260  0.68230  Biso   1.000  H
  H137     1.0000 0.13540  0.67740  0.62720  Biso   1.000  H
  H138     1.0000 0.19310  0.78600  0.58090  Biso   1.000  H
  H139     1.0000 0.79720  0.69880  0.96320  Biso   1.000  H
  H140     1.0000 0.94660  0.92660  0.85260  Biso   1.000  H
  H141     1.0000 0.86510  0.62980  0.85320  Biso   1.000  H
  H142     1.0000 0.93680  0.72780  0.90300  Biso   1.000  H
  H143     1.0000 0.68450  0.70640  0.83740  Biso   1.000  H
  H144     1.0000 0.76200  0.81580  0.88150  Biso   1.000  H
  C1       1.0000 0.79426  0.31852  0.01995  Biso   1.000  C
  C2       1.0000 0.74611  0.23442  0.03273  Biso   1.000  C
  C3       1.0000 0.74166  0.20752  0.07212  Biso   1.000  C
  C4       1.0000 0.69972  0.12624  0.08356  Biso   1.000  C
  C5       1.0000 0.69720  0.09720  0.12430  Biso   1.000  C
  C6       1.0000 0.64550  0.01460  0.12380  Biso   1.000  C
  C7       1.0000 0.61384  0.99068  0.08360  Biso   1.000  C
  C8       1.0000 0.55780  0.91020  0.07170  Biso   1.000  C
  C9       1.0000 0.53360  0.88560  0.03210  Biso   1.000  C
  C10      1.0000 0.47291  0.80402  0.01890  Biso   1.000  C
  C11      1.0000 0.78940  0.27160  0.10422  Biso   1.000  C
  C12      1.0000 0.86030  0.27200  0.12450  Biso   1.000  C
  C13      1.0000 0.89550  0.32100  0.15810  Biso   1.000  C
  C14      1.0000 0.85960  0.37140  0.17110  Biso   1.000  C
  C15      1.0000 0.79200  0.37540  0.15007  Biso   1.000  C
  C16      1.0000 0.75677  0.32694  0.11606  Biso   1.000  C
  C17      1.0000 0.88870  0.41500  0.21010  Biso   1.000  C
  C18      1.0000 0.52550  0.84280  0.10410  Biso   1.000  C
  C19      1.0000 0.46940  0.84140  0.13430  Biso   1.000  C
  C20      1.0000 0.43860  0.77580  0.16220  Biso   1.000  C
  C21      1.0000 0.46680  0.71840  0.16030  Biso   1.000  C
  C22      1.0000 0.52550  0.71960  0.12900  Biso   1.000  C
  C23      1.0000 0.55340  0.78260  0.10110  Biso   1.000  C
  C24      1.0000 0.43600  0.64720  0.19100  Biso   1.000  C
  C25      1.0000 0.91550  0.74520  0.48020  Biso   1.000  C
  C26      1.0000 0.93940  0.82560  0.46830  Biso   1.000  C
  C27      1.0000 0.94850  0.85240  0.42740  Biso   1.000  C
  C28      1.0000 0.97650  0.93140  0.41520  Biso   1.000  C
  C29      1.0000 0.98820  0.96000  0.37490  Biso   1.000  C
  C30      1.0000 0.92750  0.78600  0.39680  Biso   1.000  C
  C31      1.0000 0.82370  0.66620  0.36000  Biso   1.000  C
  C32      1.0000 0.83850  0.72800  0.38860  Biso   1.000  C
  C33      1.0000 0.89120  0.65780  0.34210  Biso   1.000  C
  C34      1.0000 0.97540  0.71160  0.35010  Biso   1.000  C
  C35      1.0000 0.99440  0.77660  0.37730  Biso   1.000  C
  C36      1.0000 0.87070  0.58660  0.31320  Biso   1.000  C
  C37      1.0000 0.20574  0.68148  0.01995  Biso   1.000  C
  C38      1.0000 0.25389  0.76558  0.03273  Biso   1.000  C
  C39      1.0000 0.25834  0.79248  0.07212  Biso   1.000  C
  C40      1.0000 0.30028  0.87376  0.08356  Biso   1.000  C
  C41      1.0000 0.30280  0.90280  0.12430  Biso   1.000  C
  C42      1.0000 0.35450  0.98540  0.12380  Biso   1.000  C
  C43      1.0000 0.38616  0.00932  0.08360  Biso   1.000  C
  C44      1.0000 0.44220  0.08980  0.07170  Biso   1.000  C
  C45      1.0000 0.46640  0.11440  0.03210  Biso   1.000  C
  C46      1.0000 0.52709  0.19598  0.01890  Biso   1.000  C
  C47      1.0000 0.21060  0.72840  0.10422  Biso   1.000  C
  C48      1.0000 0.13970  0.72800  0.12450  Biso   1.000  C
  C49      1.0000 0.10450  0.67900  0.15810  Biso   1.000  C
  C50      1.0000 0.14040  0.62860  0.17110  Biso   1.000  C
  C51      1.0000 0.20800  0.62460  0.15007  Biso   1.000  C
  C52      1.0000 0.24323  0.67306  0.11606  Biso   1.000  C
  C53      1.0000 0.11130  0.58500  0.21010  Biso   1.000  C
  C54      1.0000 0.47450  0.15720  0.10410  Biso   1.000  C
  C55      1.0000 0.53060  0.15860  0.13430  Biso   1.000  C
  C56      1.0000 0.56140  0.22420  0.16220  Biso   1.000  C
  C57      1.0000 0.53320  0.28160  0.16030  Biso   1.000  C
  C58      1.0000 0.47450  0.28040  0.12900  Biso   1.000  C
  C59      1.0000 0.44660  0.21740  0.10110  Biso   1.000  C
  C60      1.0000 0.56400  0.35280  0.19100  Biso   1.000  C
  C61      1.0000 0.08450  0.25480  0.48020  Biso   1.000  C
  C62      1.0000 0.06060  0.17440  0.46830  Biso   1.000  C
  C63      1.0000 0.05150  0.14760  0.42740  Biso   1.000  C
  C64      1.0000 0.02350  0.06860  0.41520  Biso   1.000  C
  C65      1.0000 0.01180  0.04000  0.37490  Biso   1.000  C
  C66      1.0000 0.07250  0.21400  0.39680  Biso   1.000  C
  C67      1.0000 0.17630  0.33380  0.36000  Biso   1.000  C
  C68      1.0000 0.16150  0.27200  0.38860  Biso   1.000  C
  C69      1.0000 0.10880  0.34220  0.34210  Biso   1.000  C
  C70      1.0000 0.02460  0.28840  0.35010  Biso   1.000  C
  C71      1.0000 0.00560  0.22340  0.37730  Biso   1.000  C
  C72      1.0000 0.12930  0.41340  0.31320  Biso   1.000  C
  C73      1.0000 0.52426  0.31852  0.48005  Biso   1.000  C
  C74      1.0000 0.48831  0.23442  0.46727  Biso   1.000  C
  C75      1.0000 0.46586  0.20752  0.42788  Biso   1.000  C
  C76      1.0000 0.42652  0.12624  0.41644  Biso   1.000  C
  C77      1.0000 0.40000  0.09720  0.37570  Biso   1.000  C
  C78      1.0000 0.36910  0.01460  0.37620  Biso   1.000  C
  C79      1.0000 0.37684  0.99068  0.41640  Biso   1.000  C
  C80      1.0000 0.35240  0.91020  0.42830  Biso   1.000  C
  C81      1.0000 0.35200  0.88560  0.46790  Biso   1.000  C
  C82      1.0000 0.33111  0.80402  0.48110  Biso   1.000  C
  C83      1.0000 0.48220  0.27160  0.39578  Biso   1.000  C
  C84      1.0000 0.41170  0.27200  0.37550  Biso   1.000  C
  C85      1.0000 0.42550  0.32100  0.34190  Biso   1.000  C
  C86      1.0000 0.51180  0.37140  0.32890  Biso   1.000  C
  C87      1.0000 0.58340  0.37540  0.34993  Biso   1.000  C
  C88      1.0000 0.57017  0.32694  0.38394  Biso   1.000  C
  C89      1.0000 0.52630  0.41500  0.28990  Biso   1.000  C
  C90      1.0000 0.31730  0.84280  0.39590  Biso   1.000  C
  C91      1.0000 0.37200  0.84140  0.36570  Biso   1.000  C
  C92      1.0000 0.33720  0.77580  0.33780  Biso   1.000  C
  C93      1.0000 0.25160  0.71840  0.33970  Biso   1.000  C
  C94      1.0000 0.19410  0.71960  0.37100  Biso   1.000  C
  C95      1.0000 0.22920  0.78260  0.39890  Biso   1.000  C
  C96      1.0000 0.21120  0.64720  0.30900  Biso   1.000  C
  C97      1.0000 0.82970  0.74520  0.01980  Biso   1.000  C
  C98      1.0000 0.88620  0.82560  0.03170  Biso   1.000  C
  C99      1.0000 0.90390  0.85240  0.07260  Biso   1.000  C
  C100     1.0000 0.95490  0.93140  0.08480  Biso   1.000  C
  C101     1.0000 0.97180  0.96000  0.12510  Biso   1.000  C
  C102     1.0000 0.85850  0.78600  0.10320  Biso   1.000  C
  C103     1.0000 0.84250  0.66620  0.14000  Biso   1.000  C
  C104     1.0000 0.88950  0.72800  0.11140  Biso   1.000  C
  C105     1.0000 0.76660  0.65780  0.15790  Biso   1.000  C
  C106     1.0000 0.73620  0.71160  0.14990  Biso   1.000  C
  C107     1.0000 0.78220  0.77660  0.12270  Biso   1.000  C
  C108     1.0000 0.71590  0.58660  0.18680  Biso   1.000  C
  C109     1.0000 0.47574  0.68148  0.48005  Biso   1.000  C
  C110     1.0000 0.51169  0.76558  0.46727  Biso   1.000  C
  C111     1.0000 0.53414  0.79248  0.42788  Biso   1.000  C
  C112     1.0000 0.57348  0.87376  0.41644  Biso   1.000  C
  C113     1.0000 0.60000  0.90280  0.37570  Biso   1.000  C
  C114     1.0000 0.63090  0.98540  0.37620  Biso   1.000  C
  C115     1.0000 0.62316  0.00932  0.41640  Biso   1.000  C
  C116     1.0000 0.64760  0.08980  0.42830  Biso   1.000  C
  C117     1.0000 0.64800  0.11440  0.46790  Biso   1.000  C
  C118     1.0000 0.66889  0.19598  0.48110  Biso   1.000  C
  C119     1.0000 0.51780  0.72840  0.39578  Biso   1.000  C
  C120     1.0000 0.58830  0.72800  0.37550  Biso   1.000  C
  C121     1.0000 0.57450  0.67900  0.34190  Biso   1.000  C
  C122     1.0000 0.48820  0.62860  0.32890  Biso   1.000  C
  C123     1.0000 0.41660  0.62460  0.34993  Biso   1.000  C
  C124     1.0000 0.42983  0.67306  0.38394  Biso   1.000  C
  C125     1.0000 0.47370  0.58500  0.28990  Biso   1.000  C
  C126     1.0000 0.68270  0.15720  0.39590  Biso   1.000  C
  C127     1.0000 0.62800  0.15860  0.36570  Biso   1.000  C
  C128     1.0000 0.66280  0.22420  0.33780  Biso   1.000  C
  C129     1.0000 0.74840  0.28160  0.33970  Biso   1.000  C
  C130     1.0000 0.80590  0.28040  0.37100  Biso   1.000  C
  C131     1.0000 0.77080  0.21740  0.39890  Biso   1.000  C
  C132     1.0000 0.78880  0.35280  0.30900  Biso   1.000  C
  C133     1.0000 0.17030  0.25480  0.01980  Biso   1.000  C
  C134     1.0000 0.11380  0.17440  0.03170  Biso   1.000  C
  C135     1.0000 0.09610  0.14760  0.07260  Biso   1.000  C
  C136     1.0000 0.04510  0.06860  0.08480  Biso   1.000  C
  C137     1.0000 0.02820  0.04000  0.12510  Biso   1.000  C
  C138     1.0000 0.14150  0.21400  0.10320  Biso   1.000  C
  C139     1.0000 0.15750  0.33380  0.14000  Biso   1.000  C
  C140     1.0000 0.11050  0.27200  0.11140  Biso   1.000  C
  C141     1.0000 0.23340  0.34220  0.15790  Biso   1.000  C
  C142     1.0000 0.26380  0.28840  0.14990  Biso   1.000  C
  C143     1.0000 0.21780  0.22340  0.12270  Biso   1.000  C
  C144     1.0000 0.28410  0.41340  0.18680  Biso   1.000  C
  C145     1.0000 0.20574  0.68148  0.98005  Biso   1.000  C
  C146     1.0000 0.25389  0.76558  0.96727  Biso   1.000  C
  C147     1.0000 0.25834  0.79248  0.92788  Biso   1.000  C
  C148     1.0000 0.30028  0.87376  0.91644  Biso   1.000  C
  C149     1.0000 0.30280  0.90280  0.87570  Biso   1.000  C
  C150     1.0000 0.35450  0.98540  0.87620  Biso   1.000  C
  C151     1.0000 0.38616  0.00932  0.91640  Biso   1.000  C
  C152     1.0000 0.44220  0.08980  0.92830  Biso   1.000  C
  C153     1.0000 0.46640  0.11440  0.96790  Biso   1.000  C
  C154     1.0000 0.52709  0.19598  0.98110  Biso   1.000  C
  C155     1.0000 0.21060  0.72840  0.89578  Biso   1.000  C
  C156     1.0000 0.13970  0.72800  0.87550  Biso   1.000  C
  C157     1.0000 0.10450  0.67900  0.84190  Biso   1.000  C
  C158     1.0000 0.14040  0.62860  0.82890  Biso   1.000  C
  C159     1.0000 0.20800  0.62460  0.84993  Biso   1.000  C
  C160     1.0000 0.24323  0.67306  0.88394  Biso   1.000  C
  C161     1.0000 0.11130  0.58500  0.78990  Biso   1.000  C
  C162     1.0000 0.47450  0.15720  0.89590  Biso   1.000  C
  C163     1.0000 0.53060  0.15860  0.86570  Biso   1.000  C
  C164     1.0000 0.56140  0.22420  0.83780  Biso   1.000  C
  C165     1.0000 0.53320  0.28160  0.83970  Biso   1.000  C
  C166     1.0000 0.47450  0.28040  0.87100  Biso   1.000  C
  C167     1.0000 0.44660  0.21740  0.89890  Biso   1.000  C
  C168     1.0000 0.56400  0.35280  0.80900  Biso   1.000  C
  C169     1.0000 0.08450  0.25480  0.51980  Biso   1.000  C
  C170     1.0000 0.06060  0.17440  0.53170  Biso   1.000  C
  C171     1.0000 0.05150  0.14760  0.57260  Biso   1.000  C
  C172     1.0000 0.02350  0.06860  0.58480  Biso   1.000  C
  C173     1.0000 0.01180  0.04000  0.62510  Biso   1.000  C
  C174     1.0000 0.07250  0.21400  0.60320  Biso   1.000  C
  C175     1.0000 0.17630  0.33380  0.64000  Biso   1.000  C
  C176     1.0000 0.16150  0.27200  0.61140  Biso   1.000  C
  C177     1.0000 0.10880  0.34220  0.65790  Biso   1.000  C
  C178     1.0000 0.02460  0.28840  0.64990  Biso   1.000  C
  C179     1.0000 0.00560  0.22340  0.62270  Biso   1.000  C
  C180     1.0000 0.12930  0.41340  0.68680  Biso   1.000  C
  C181     1.0000 0.79426  0.31852  0.98005  Biso   1.000  C
  C182     1.0000 0.74611  0.23442  0.96727  Biso   1.000  C
  C183     1.0000 0.74166  0.20752  0.92788  Biso   1.000  C
  C184     1.0000 0.69972  0.12624  0.91644  Biso   1.000  C
  C185     1.0000 0.69720  0.09720  0.87570  Biso   1.000  C
  C186     1.0000 0.64550  0.01460  0.87620  Biso   1.000  C
  C187     1.0000 0.61384  0.99068  0.91640  Biso   1.000  C
  C188     1.0000 0.55780  0.91020  0.92830  Biso   1.000  C
  C189     1.0000 0.53360  0.88560  0.96790  Biso   1.000  C
  C190     1.0000 0.47291  0.80402  0.98110  Biso   1.000  C
  C191     1.0000 0.78940  0.27160  0.89578  Biso   1.000  C
  C192     1.0000 0.86030  0.27200  0.87550  Biso   1.000  C
  C193     1.0000 0.89550  0.32100  0.84190  Biso   1.000  C
  C194     1.0000 0.85960  0.37140  0.82890  Biso   1.000  C
  C195     1.0000 0.79200  0.37540  0.84993  Biso   1.000  C
  C196     1.0000 0.75677  0.32694  0.88394  Biso   1.000  C
  C197     1.0000 0.88870  0.41500  0.78990  Biso   1.000  C
  C198     1.0000 0.52550  0.84280  0.89590  Biso   1.000  C
  C199     1.0000 0.46940  0.84140  0.86570  Biso   1.000  C
  C200     1.0000 0.43860  0.77580  0.83780  Biso   1.000  C
  C201     1.0000 0.46680  0.71840  0.83970  Biso   1.000  C
  C202     1.0000 0.52550  0.71960  0.87100  Biso   1.000  C
  C203     1.0000 0.55340  0.78260  0.89890  Biso   1.000  C
  C204     1.0000 0.43600  0.64720  0.80900  Biso   1.000  C
  C205     1.0000 0.91550  0.74520  0.51980  Biso   1.000  C
  C206     1.0000 0.93940  0.82560  0.53170  Biso   1.000  C
  C207     1.0000 0.94850  0.85240  0.57260  Biso   1.000  C
  C208     1.0000 0.97650  0.93140  0.58480  Biso   1.000  C
  C209     1.0000 0.98820  0.96000  0.62510  Biso   1.000  C
  C210     1.0000 0.92750  0.78600  0.60320  Biso   1.000  C
  C211     1.0000 0.82370  0.66620  0.64000  Biso   1.000  C
  C212     1.0000 0.83850  0.72800  0.61140  Biso   1.000  C
  C213     1.0000 0.89120  0.65780  0.65790  Biso   1.000  C
  C214     1.0000 0.97540  0.71160  0.64990  Biso   1.000  C
  C215     1.0000 0.99440  0.77660  0.62270  Biso   1.000  C
  C216     1.0000 0.87070  0.58660  0.68680  Biso   1.000  C
  C217     1.0000 0.47574  0.68148  0.51995  Biso   1.000  C
  C218     1.0000 0.51169  0.76558  0.53273  Biso   1.000  C
  C219     1.0000 0.53414  0.79248  0.57212  Biso   1.000  C
  C220     1.0000 0.57348  0.87376  0.58356  Biso   1.000  C
  C221     1.0000 0.60000  0.90280  0.62430  Biso   1.000  C
  C222     1.0000 0.63090  0.98540  0.62380  Biso   1.000  C
  C223     1.0000 0.62316  0.00932  0.58360  Biso   1.000  C
  C224     1.0000 0.64760  0.08980  0.57170  Biso   1.000  C
  C225     1.0000 0.64800  0.11440  0.53210  Biso   1.000  C
  C226     1.0000 0.66889  0.19598  0.51890  Biso   1.000  C
  C227     1.0000 0.51780  0.72840  0.60422  Biso   1.000  C
  C228     1.0000 0.58830  0.72800  0.62450  Biso   1.000  C
  C229     1.0000 0.57450  0.67900  0.65810  Biso   1.000  C
  C230     1.0000 0.48820  0.62860  0.67110  Biso   1.000  C
  C231     1.0000 0.41660  0.62460  0.65007  Biso   1.000  C
  C232     1.0000 0.42983  0.67306  0.61606  Biso   1.000  C
  C233     1.0000 0.47370  0.58500  0.71010  Biso   1.000  C
  C234     1.0000 0.68270  0.15720  0.60410  Biso   1.000  C
  C235     1.0000 0.62800  0.15860  0.63430  Biso   1.000  C
  C236     1.0000 0.66280  0.22420  0.66220  Biso   1.000  C
  C237     1.0000 0.74840  0.28160  0.66030  Biso   1.000  C
  C238     1.0000 0.80590  0.28040  0.62900  Biso   1.000  C
  C239     1.0000 0.77080  0.21740  0.60110  Biso   1.000  C
  C240     1.0000 0.78880  0.35280  0.69100  Biso   1.000  C
  C241     1.0000 0.17030  0.25480  0.98020  Biso   1.000  C
  C242     1.0000 0.11380  0.17440  0.96830  Biso   1.000  C
  C243     1.0000 0.09610  0.14760  0.92740  Biso   1.000  C
  C244     1.0000 0.04510  0.06860  0.91520  Biso   1.000  C
  C245     1.0000 0.02820  0.04000  0.87490  Biso   1.000  C
  C246     1.0000 0.14150  0.21400  0.89680  Biso   1.000  C
  C247     1.0000 0.15750  0.33380  0.86000  Biso   1.000  C
  C248     1.0000 0.11050  0.27200  0.88860  Biso   1.000  C
  C249     1.0000 0.23340  0.34220  0.84210  Biso   1.000  C
  C250     1.0000 0.26380  0.28840  0.85010  Biso   1.000  C
  C251     1.0000 0.21780  0.22340  0.87730  Biso   1.000  C
  C252     1.0000 0.28410  0.41340  0.81320  Biso   1.000  C
  C253     1.0000 0.52426  0.31852  0.51995  Biso   1.000  C
  C254     1.0000 0.48831  0.23442  0.53273  Biso   1.000  C
  C255     1.0000 0.46586  0.20752  0.57212  Biso   1.000  C
  C256     1.0000 0.42652  0.12624  0.58356  Biso   1.000  C
  C257     1.0000 0.40000  0.09720  0.62430  Biso   1.000  C
  C258     1.0000 0.36910  0.01460  0.62380  Biso   1.000  C
  C259     1.0000 0.37684  0.99068  0.58360  Biso   1.000  C
  C260     1.0000 0.35240  0.91020  0.57170  Biso   1.000  C
  C261     1.0000 0.35200  0.88560  0.53210  Biso   1.000  C
  C262     1.0000 0.33111  0.80402  0.51890  Biso   1.000  C
  C263     1.0000 0.48220  0.27160  0.60422  Biso   1.000  C
  C264     1.0000 0.41170  0.27200  0.62450  Biso   1.000  C
  C265     1.0000 0.42550  0.32100  0.65810  Biso   1.000  C
  C266     1.0000 0.51180  0.37140  0.67110  Biso   1.000  C
  C267     1.0000 0.58340  0.37540  0.65007  Biso   1.000  C
  C268     1.0000 0.57017  0.32694  0.61606  Biso   1.000  C
  C269     1.0000 0.52630  0.41500  0.71010  Biso   1.000  C
  C270     1.0000 0.31730  0.84280  0.60410  Biso   1.000  C
  C271     1.0000 0.37200  0.84140  0.63430  Biso   1.000  C
  C272     1.0000 0.33720  0.77580  0.66220  Biso   1.000  C
  C273     1.0000 0.25160  0.71840  0.66030  Biso   1.000  C
  C274     1.0000 0.19410  0.71960  0.62900  Biso   1.000  C
  C275     1.0000 0.22920  0.78260  0.60110  Biso   1.000  C
  C276     1.0000 0.21120  0.64720  0.69100  Biso   1.000  C
  C277     1.0000 0.82970  0.74520  0.98020  Biso   1.000  C
  C278     1.0000 0.88620  0.82560  0.96830  Biso   1.000  C
  C279     1.0000 0.90390  0.85240  0.92740  Biso   1.000  C
  C280     1.0000 0.95490  0.93140  0.91520  Biso   1.000  C
  C281     1.0000 0.97180  0.96000  0.87490  Biso   1.000  C
  C282     1.0000 0.85850  0.78600  0.89680  Biso   1.000  C
  C283     1.0000 0.84250  0.66620  0.86000  Biso   1.000  C
  C284     1.0000 0.88950  0.72800  0.88860  Biso   1.000  C
  C285     1.0000 0.76660  0.65780  0.84210  Biso   1.000  C
  C286     1.0000 0.73620  0.71160  0.85010  Biso   1.000  C
  C287     1.0000 0.78220  0.77660  0.87730  Biso   1.000  C
  C288     1.0000 0.71590  0.58660  0.81320  Biso   1.000  C
  N1       1.0000 0.64907  0.05874  0.05841  Biso   1.000  N
  N2       1.0000 0.35093  0.94126  0.05841  Biso   1.000  N
  N3       1.0000 0.40967  0.05874  0.44159  Biso   1.000  N
  N4       1.0000 0.59033  0.94126  0.44159  Biso   1.000  N
  N5       1.0000 0.35093  0.94126  0.94159  Biso   1.000  N
  N6       1.0000 0.64907  0.05874  0.94159  Biso   1.000  N
  N7       1.0000 0.59033  0.94126  0.55841  Biso   1.000  N
  N8       1.0000 0.40967  0.05874  0.55841  Biso   1.000  N
  N9       1.0000 0.71680  0.18220  0.00000  Biso   1.000  N
  N10      1.0000 0.56790  0.93900  0.00000  Biso   1.000  N
  N11      1.0000 0.28320  0.81780  0.00000  Biso   1.000  N
  N12      1.0000 0.43210  0.06100  0.00000  Biso   1.000  N
  N13      1.0000 0.46540  0.18220  0.50000  Biso   1.000  N
  N14      1.0000 0.37110  0.93900  0.50000  Biso   1.000  N
  N15      1.0000 0.53460  0.81780  0.50000  Biso   1.000  N
  N16      1.0000 0.62890  0.06100  0.50000  Biso   1.000  N
  N17      1.0000 0.95740  0.87740  0.50000  Biso   1.000  N
  N18      1.0000 0.04260  0.12260  0.50000  Biso   1.000  N
  N19      1.0000 0.92000  0.87740  0.00000  Biso   1.000  N
  N20      1.0000 0.08000  0.12260  0.00000  Biso   1.000  N
  N21      1.0000 0.00000  0.00000  0.44030  Biso   1.000  N
  N22      1.0000 0.00000  0.00000  0.05970  Biso   1.000  N
  N23      1.0000 0.00000  0.00000  0.55970  Biso   1.000  N
  N24      1.0000 0.00000  0.00000  0.94030  Biso   1.000  N
  O1       1.0000 0.85351  0.45802  0.22358  Biso   1.000  O
  O2       1.0000 0.95380  0.41080  0.22849  Biso   1.000  O
  O3       1.0000 0.36920  0.63780  0.21220  Biso   1.000  O
  O4       1.0000 0.47975  0.60710  0.19288  Biso   1.000  O
  O5       1.0000 0.93519  0.58018  0.29897  Biso   1.000  O
  O6       1.0000 0.78660  0.55520  0.29700  Biso   1.000  O
  O7       1.0000 0.14649  0.54198  0.22358  Biso   1.000  O
  O8       1.0000 0.04620  0.58920  0.22849  Biso   1.000  O
  O9       1.0000 0.63080  0.36220  0.21220  Biso   1.000  O
  O10      1.0000 0.52025  0.39290  0.19288  Biso   1.000  O
  O11      1.0000 0.06481  0.41982  0.29897  Biso   1.000  O
  O12      1.0000 0.21340  0.44480  0.29700  Biso   1.000  O
  O13      1.0000 0.60451  0.45802  0.27642  Biso   1.000  O
  O14      1.0000 0.45700  0.41080  0.27151  Biso   1.000  O
  O15      1.0000 0.26860  0.63780  0.28780  Biso   1.000  O
  O16      1.0000 0.12735  0.60710  0.30712  Biso   1.000  O
  O17      1.0000 0.64499  0.58018  0.20103  Biso   1.000  O
  O18      1.0000 0.76860  0.55520  0.20300  Biso   1.000  O
  O19      1.0000 0.39549  0.54198  0.27642  Biso   1.000  O
  O20      1.0000 0.54300  0.58920  0.27151  Biso   1.000  O
  O21      1.0000 0.73140  0.36220  0.28780  Biso   1.000  O
  O22      1.0000 0.87265  0.39290  0.30712  Biso   1.000  O
  O23      1.0000 0.35501  0.41982  0.20103  Biso   1.000  O
  O24      1.0000 0.23140  0.44480  0.20300  Biso   1.000  O
  O25      1.0000 0.14649  0.54198  0.77642  Biso   1.000  O
  O26      1.0000 0.04620  0.58920  0.77151  Biso   1.000  O
  O27      1.0000 0.63080  0.36220  0.78780  Biso   1.000  O
  O28      1.0000 0.52025  0.39290  0.80712  Biso   1.000  O
  O29      1.0000 0.06481  0.41982  0.70103  Biso   1.000  O
  O30      1.0000 0.21340  0.44480  0.70300  Biso   1.000  O
  O31      1.0000 0.85351  0.45802  0.77642  Biso   1.000  O
  O32      1.0000 0.95380  0.41080  0.77151  Biso   1.000  O
  O33      1.0000 0.36920  0.63780  0.78780  Biso   1.000  O
  O34      1.0000 0.47975  0.60710  0.80712  Biso   1.000  O
  O35      1.0000 0.93519  0.58018  0.70103  Biso   1.000  O
  O36      1.0000 0.78660  0.55520  0.70300  Biso   1.000  O
  O37      1.0000 0.39549  0.54198  0.72358  Biso   1.000  O
  O38      1.0000 0.54300  0.58920  0.72849  Biso   1.000  O
  O39      1.0000 0.73140  0.36220  0.71220  Biso   1.000  O
  O40      1.0000 0.87265  0.39290  0.69288  Biso   1.000  O
  O41      1.0000 0.35501  0.41982  0.79897  Biso   1.000  O
  O42      1.0000 0.23140  0.44480  0.79700  Biso   1.000  O
  O43      1.0000 0.60451  0.45802  0.72358  Biso   1.000  O
  O44      1.0000 0.45700  0.41080  0.72849  Biso   1.000  O
  O45      1.0000 0.26860  0.63780  0.71220  Biso   1.000  O
  O46      1.0000 0.12735  0.60710  0.69288  Biso   1.000  O
  O47      1.0000 0.64499  0.58018  0.79897  Biso   1.000  O
  O48      1.0000 0.76860  0.55520  0.79700  Biso   1.000  O
  O49      1.0000 0.00000  0.50000  0.35510  Biso   1.000  O
  O50      1.0000 0.50000  0.50000  0.14490  Biso   1.000  O
  O51      1.0000 0.00000  0.50000  0.64490  Biso   1.000  O
  O52      1.0000 0.50000  0.50000  0.85510  Biso   1.000  O
