data_image0
_cell_length_a       13.8618
_cell_length_b       13.8618
_cell_length_c       18.5079
_cell_angle_alpha    90
_cell_angle_beta     90
_cell_angle_gamma    120

_symmetry_space_group_name_H-M    "P 1"
_symmetry_int_tables_number       1

loop_
  _symmetry_equiv_pos_as_xyz
  'x, y, z'

loop_
  _atom_site_label
  _atom_site_occupancy
  _atom_site_fract_x
  _atom_site_fract_y
  _atom_site_fract_z
  _atom_site_thermal_displace_type
  _atom_site_B_iso_or_equiv
  _atom_site_type_symbol
  O1       1.0000 0.64830  0.13550  0.16450  Biso   1.000  O
  C1       1.0000 0.59880  0.02660  0.03330  Biso   1.000  C
  H1       1.0000 0.66620  0.04460  0.05500  Biso   1.000  H
  O2       1.0000 0.86450  0.51280  0.16450  Biso   1.000  O
  C2       1.0000 0.97340  0.57220  0.03330  Biso   1.000  C
  H2       1.0000 0.95540  0.62160  0.05500  Biso   1.000  H
  O3       1.0000 0.48720  0.35170  0.16450  Biso   1.000  O
  C3       1.0000 0.42780  0.40120  0.03330  Biso   1.000  C
  H3       1.0000 0.37840  0.33380  0.05500  Biso   1.000  H
  O4       1.0000 0.35170  0.86450  0.66450  Biso   1.000  O
  C4       1.0000 0.40120  0.97340  0.53330  Biso   1.000  C
  H4       1.0000 0.33380  0.95540  0.55500  Biso   1.000  H
  O5       1.0000 0.13550  0.48720  0.66450  Biso   1.000  O
  C5       1.0000 0.02660  0.42780  0.53330  Biso   1.000  C
  H5       1.0000 0.04460  0.37840  0.55500  Biso   1.000  H
  O6       1.0000 0.51280  0.64830  0.66450  Biso   1.000  O
  C6       1.0000 0.57220  0.59880  0.53330  Biso   1.000  C
  H6       1.0000 0.62160  0.66620  0.55500  Biso   1.000  H
  O7       1.0000 0.13550  0.64830  0.83550  Biso   1.000  O
  C7       1.0000 0.02660  0.59880  0.96670  Biso   1.000  C
  H7       1.0000 0.04460  0.66620  0.94500  Biso   1.000  H
  O8       1.0000 0.51280  0.86450  0.83550  Biso   1.000  O
  C8       1.0000 0.57220  0.97340  0.96670  Biso   1.000  C
  H8       1.0000 0.62160  0.95540  0.94500  Biso   1.000  H
  O9       1.0000 0.35170  0.48720  0.83550  Biso   1.000  O
  C9       1.0000 0.40120  0.42780  0.96670  Biso   1.000  C
  H9       1.0000 0.33380  0.37840  0.94500  Biso   1.000  H
  O10      1.0000 0.86450  0.35170  0.33550  Biso   1.000  O
  C10      1.0000 0.97340  0.40120  0.46670  Biso   1.000  C
  H10      1.0000 0.95540  0.33380  0.44500  Biso   1.000  H
  O11      1.0000 0.48720  0.13550  0.33550  Biso   1.000  O
  C11      1.0000 0.42780  0.02660  0.46670  Biso   1.000  C
  H11      1.0000 0.37840  0.04460  0.44500  Biso   1.000  H
  O12      1.0000 0.64830  0.51280  0.33550  Biso   1.000  O
  C12      1.0000 0.59880  0.57220  0.46670  Biso   1.000  C
  H12      1.0000 0.66620  0.62160  0.44500  Biso   1.000  H
  O13      1.0000 0.35170  0.86450  0.83550  Biso   1.000  O
  C13      1.0000 0.40120  0.97340  0.96670  Biso   1.000  C
  H13      1.0000 0.33380  0.95540  0.94500  Biso   1.000  H
  O14      1.0000 0.13550  0.48720  0.83550  Biso   1.000  O
  C14      1.0000 0.02660  0.42780  0.96670  Biso   1.000  C
  H14      1.0000 0.04460  0.37840  0.94500  Biso   1.000  H
  O15      1.0000 0.51280  0.64830  0.83550  Biso   1.000  O
  C15      1.0000 0.57220  0.59880  0.96670  Biso   1.000  C
  H15      1.0000 0.62160  0.66620  0.94500  Biso   1.000  H
  O16      1.0000 0.64830  0.13550  0.33550  Biso   1.000  O
  C16      1.0000 0.59880  0.02660  0.46670  Biso   1.000  C
  H16      1.0000 0.66620  0.04460  0.44500  Biso   1.000  H
  O17      1.0000 0.86450  0.51280  0.33550  Biso   1.000  O
  C17      1.0000 0.97340  0.57220  0.46670  Biso   1.000  C
  H17      1.0000 0.95540  0.62160  0.44500  Biso   1.000  H
  O18      1.0000 0.48720  0.35170  0.33550  Biso   1.000  O
  C18      1.0000 0.42780  0.40120  0.46670  Biso   1.000  C
  H18      1.0000 0.37840  0.33380  0.44500  Biso   1.000  H
  O19      1.0000 0.86450  0.35170  0.16450  Biso   1.000  O
  C19      1.0000 0.97340  0.40120  0.03330  Biso   1.000  C
  H19      1.0000 0.95540  0.33380  0.05500  Biso   1.000  H
  O20      1.0000 0.48720  0.13550  0.16450  Biso   1.000  O
  C20      1.0000 0.42780  0.02660  0.03330  Biso   1.000  C
  H20      1.0000 0.37840  0.04460  0.05500  Biso   1.000  H
  O21      1.0000 0.64830  0.51280  0.16450  Biso   1.000  O
  C21      1.0000 0.59880  0.57220  0.03330  Biso   1.000  C
  H21      1.0000 0.66620  0.62160  0.05500  Biso   1.000  H
  O22      1.0000 0.13550  0.64830  0.66450  Biso   1.000  O
  C22      1.0000 0.02660  0.59880  0.53330  Biso   1.000  C
  H22      1.0000 0.04460  0.66620  0.55500  Biso   1.000  H
  O23      1.0000 0.51280  0.86450  0.66450  Biso   1.000  O
  C23      1.0000 0.57220  0.97340  0.53330  Biso   1.000  C
  H23      1.0000 0.62160  0.95540  0.55500  Biso   1.000  H
  O24      1.0000 0.35170  0.48720  0.66450  Biso   1.000  O
  C24      1.0000 0.40120  0.42780  0.53330  Biso   1.000  C
  H24      1.0000 0.33380  0.37840  0.55500  Biso   1.000  H
  In1      1.0000 0.75136  0.24864  0.25000  Biso   1.000  In
  N1       1.0000 0.84120  0.15880  0.25000  Biso   1.000  N
  In2      1.0000 0.75136  0.50272  0.25000  Biso   1.000  In
  N2       1.0000 0.84120  0.68240  0.25000  Biso   1.000  N
  In3      1.0000 0.49728  0.24864  0.25000  Biso   1.000  In
  N3       1.0000 0.31760  0.15880  0.25000  Biso   1.000  N
  In4      1.0000 0.24864  0.75136  0.75000  Biso   1.000  In
  N4       1.0000 0.15880  0.84120  0.75000  Biso   1.000  N
  In5      1.0000 0.24864  0.49728  0.75000  Biso   1.000  In
  N5       1.0000 0.15880  0.31760  0.75000  Biso   1.000  N
  In6      1.0000 0.50272  0.75136  0.75000  Biso   1.000  In
  N6       1.0000 0.68240  0.84120  0.75000  Biso   1.000  N
  O25      1.0000 0.66667  0.33333  0.25000  Biso   1.000  O
  O26      1.0000 0.33333  0.66667  0.75000  Biso   1.000  O
  C25      1.0000 0.55670  0.11340  0.13780  Biso   1.000  C
  C26      1.0000 0.52670  0.05340  0.06780  Biso   1.000  C
  C27      1.0000 0.88660  0.44330  0.13780  Biso   1.000  C
  C28      1.0000 0.94660  0.47330  0.06780  Biso   1.000  C
  C29      1.0000 0.55670  0.44330  0.13780  Biso   1.000  C
  C30      1.0000 0.52670  0.47330  0.06780  Biso   1.000  C
  C31      1.0000 0.44330  0.88660  0.63780  Biso   1.000  C
  C32      1.0000 0.47330  0.94660  0.56780  Biso   1.000  C
  C33      1.0000 0.11340  0.55670  0.63780  Biso   1.000  C
  C34      1.0000 0.05340  0.52670  0.56780  Biso   1.000  C
  C35      1.0000 0.44330  0.55670  0.63780  Biso   1.000  C
  C36      1.0000 0.47330  0.52670  0.56780  Biso   1.000  C
  C37      1.0000 0.11340  0.55670  0.86220  Biso   1.000  C
  C38      1.0000 0.05340  0.52670  0.93220  Biso   1.000  C
  C39      1.0000 0.44330  0.88660  0.86220  Biso   1.000  C
  C40      1.0000 0.47330  0.94660  0.93220  Biso   1.000  C
  C41      1.0000 0.44330  0.55670  0.86220  Biso   1.000  C
  C42      1.0000 0.47330  0.52670  0.93220  Biso   1.000  C
  C43      1.0000 0.88660  0.44330  0.36220  Biso   1.000  C
  C44      1.0000 0.94660  0.47330  0.43220  Biso   1.000  C
  C45      1.0000 0.55670  0.11340  0.36220  Biso   1.000  C
  C46      1.0000 0.52670  0.05340  0.43220  Biso   1.000  C
  C47      1.0000 0.55670  0.44330  0.36220  Biso   1.000  C
  C48      1.0000 0.52670  0.47330  0.43220  Biso   1.000  C
  C49      1.0000 0.87480  0.12520  0.30700  Biso   1.000  C
  H25      1.0000 0.86210  0.13790  0.35450  Biso   1.000  H
  N7       1.0000 0.92790  0.07210  0.28930  Biso   1.000  N
  C50      1.0000 0.87480  0.74960  0.30700  Biso   1.000  C
  H26      1.0000 0.86210  0.72420  0.35450  Biso   1.000  H
  N8       1.0000 0.92790  0.85580  0.28930  Biso   1.000  N
  C51      1.0000 0.25040  0.12520  0.30700  Biso   1.000  C
  H27      1.0000 0.27580  0.13790  0.35450  Biso   1.000  H
  N9       1.0000 0.14420  0.07210  0.28930  Biso   1.000  N
  C52      1.0000 0.12520  0.87480  0.80700  Biso   1.000  C
  H28      1.0000 0.13790  0.86210  0.85450  Biso   1.000  H
  N10      1.0000 0.07210  0.92790  0.78930  Biso   1.000  N
  C53      1.0000 0.12520  0.25040  0.80700  Biso   1.000  C
  H29      1.0000 0.13790  0.27580  0.85450  Biso   1.000  H
  N11      1.0000 0.07210  0.14420  0.78930  Biso   1.000  N
  C54      1.0000 0.74960  0.87480  0.80700  Biso   1.000  C
  H30      1.0000 0.72420  0.86210  0.85450  Biso   1.000  H
  N12      1.0000 0.85580  0.92790  0.78930  Biso   1.000  N
  C55      1.0000 0.12520  0.87480  0.69300  Biso   1.000  C
  H31      1.0000 0.13790  0.86210  0.64550  Biso   1.000  H
  N13      1.0000 0.07210  0.92790  0.71070  Biso   1.000  N
  C56      1.0000 0.74960  0.87480  0.69300  Biso   1.000  C
  H32      1.0000 0.72420  0.86210  0.64550  Biso   1.000  H
  N14      1.0000 0.85580  0.92790  0.71070  Biso   1.000  N
  C57      1.0000 0.12520  0.25040  0.69300  Biso   1.000  C
  H33      1.0000 0.13790  0.27580  0.64550  Biso   1.000  H
  N15      1.0000 0.07210  0.14420  0.71070  Biso   1.000  N
  C58      1.0000 0.87480  0.12520  0.19300  Biso   1.000  C
  H34      1.0000 0.86210  0.13790  0.14550  Biso   1.000  H
  N16      1.0000 0.92790  0.07210  0.21070  Biso   1.000  N
  C59      1.0000 0.25040  0.12520  0.19300  Biso   1.000  C
  H35      1.0000 0.27580  0.13790  0.14550  Biso   1.000  H
  N17      1.0000 0.14420  0.07210  0.21070  Biso   1.000  N
  C60      1.0000 0.87480  0.74960  0.19300  Biso   1.000  C
  H36      1.0000 0.86210  0.72420  0.14550  Biso   1.000  H
  N18      1.0000 0.92790  0.85580  0.21070  Biso   1.000  N
  Ni1      1.0000 0.00000  0.00000  0.36051  Biso   1.000  Ni
  Ni2      1.0000 0.00000  0.00000  0.86051  Biso   1.000  Ni
  Ni3      1.0000 0.00000  0.00000  0.63949  Biso   1.000  Ni
  Ni4      1.0000 0.00000  0.00000  0.13949  Biso   1.000  Ni
