data_image0
_cell_length_a       13.749
_cell_length_b       13.99
_cell_length_c       14.073
_cell_angle_alpha    110.538
_cell_angle_beta     90
_cell_angle_gamma    90

_symmetry_space_group_name_H-M    P 1
_symmetry_int_tables_number       1

loop_
  _symmetry_equiv_pos_as_xyz
  'x, y, z'

loop_
  _atom_site_label
  _atom_site_occupancy
  _atom_site_fract_x
  _atom_site_fract_y
  _atom_site_fract_z
  _atom_site_thermal_displace_type
  _atom_site_B_iso_or_equiv
  _atom_site_type_symbol
  Zn1      1.0000 0.05830  0.90492  0.95727  Biso   1.000  Zn
  Zn2      1.0000 0.55830  0.09508  0.54273  Biso   1.000  Zn
  Zn3      1.0000 0.94170  0.09508  0.04273  Biso   1.000  Zn
  Zn4      1.0000 0.44170  0.90492  0.45727  Biso   1.000  Zn
  H1       1.0000 0.89460  0.60220  0.16660  Biso   1.000  H
  H2       1.0000 0.91640  0.74450  0.11930  Biso   1.000  H
  H3       1.0000 0.76750  0.00390  0.26850  Biso   1.000  H
  H4       1.0000 0.70060  0.74010  0.31460  Biso   1.000  H
  H5       1.0000 0.02120  0.30670  0.11660  Biso   1.000  H
  H6       1.0000 0.96970  0.47420  0.17730  Biso   1.000  H
  H7       1.0000 0.69180  0.37380  0.15930  Biso   1.000  H
  H8       1.0000 0.74970  0.20700  0.09620  Biso   1.000  H
  H9       1.0000 0.39460  0.39780  0.33340  Biso   1.000  H
  H10      1.0000 0.41640  0.25550  0.38070  Biso   1.000  H
  H11      1.0000 0.26750  0.99610  0.23150  Biso   1.000  H
  H12      1.0000 0.20060  0.25990  0.18540  Biso   1.000  H
  H13      1.0000 0.52120  0.69330  0.38340  Biso   1.000  H
  H14      1.0000 0.46970  0.52580  0.32270  Biso   1.000  H
  H15      1.0000 0.19180  0.62620  0.34070  Biso   1.000  H
  H16      1.0000 0.24970  0.79300  0.40380  Biso   1.000  H
  H17      1.0000 0.10540  0.39780  0.83340  Biso   1.000  H
  H18      1.0000 0.08360  0.25550  0.88070  Biso   1.000  H
  H19      1.0000 0.23250  0.99610  0.73150  Biso   1.000  H
  H20      1.0000 0.29940  0.25990  0.68540  Biso   1.000  H
  H21      1.0000 0.97880  0.69330  0.88340  Biso   1.000  H
  H22      1.0000 0.03030  0.52580  0.82270  Biso   1.000  H
  H23      1.0000 0.30820  0.62620  0.84070  Biso   1.000  H
  H24      1.0000 0.25030  0.79300  0.90380  Biso   1.000  H
  H25      1.0000 0.60540  0.60220  0.66660  Biso   1.000  H
  H26      1.0000 0.58360  0.74450  0.61930  Biso   1.000  H
  H27      1.0000 0.73250  0.00390  0.76850  Biso   1.000  H
  H28      1.0000 0.79940  0.74010  0.81460  Biso   1.000  H
  H29      1.0000 0.47880  0.30670  0.61660  Biso   1.000  H
  H30      1.0000 0.53030  0.47420  0.67730  Biso   1.000  H
  H31      1.0000 0.80820  0.37380  0.65930  Biso   1.000  H
  H32      1.0000 0.75030  0.20700  0.59620  Biso   1.000  H
  C1       1.0000 0.81330  0.72660  0.21520  Biso   1.000  C
  C2       1.0000 0.86690  0.77900  0.16570  Biso   1.000  C
  C3       1.0000 0.84880  0.88200  0.18350  Biso   1.000  C
  C4       1.0000 0.77790  0.93300  0.25330  Biso   1.000  C
  C5       1.0000 0.72200  0.87960  0.30090  Biso   1.000  C
  C6       1.0000 0.73900  0.77620  0.28220  Biso   1.000  C
  C7       1.0000 0.78180  0.54920  0.21120  Biso   1.000  C
  C8       1.0000 0.95350  0.32050  0.12510  Biso   1.000  C
  C9       1.0000 0.92340  0.42050  0.16130  Biso   1.000  C
  C10      1.0000 0.82500  0.44240  0.17440  Biso   1.000  C
  C11      1.0000 0.75970  0.36130  0.15040  Biso   1.000  C
  C12      1.0000 0.79470  0.26200  0.11330  Biso   1.000  C
  C13      1.0000 0.90550  0.93570  0.12420  Biso   1.000  C
  C14      1.0000 0.64300  0.93330  0.37510  Biso   1.000  C
  C15      1.0000 0.31330  0.27340  0.28480  Biso   1.000  C
  C16      1.0000 0.36690  0.22100  0.33430  Biso   1.000  C
  C17      1.0000 0.34880  0.11800  0.31650  Biso   1.000  C
  C18      1.0000 0.27790  0.06700  0.24670  Biso   1.000  C
  C19      1.0000 0.22200  0.12040  0.19910  Biso   1.000  C
  C20      1.0000 0.23900  0.22380  0.21780  Biso   1.000  C
  C21      1.0000 0.28180  0.45080  0.28880  Biso   1.000  C
  C22      1.0000 0.45350  0.67950  0.37490  Biso   1.000  C
  C23      1.0000 0.42340  0.57950  0.33870  Biso   1.000  C
  C24      1.0000 0.32500  0.55760  0.32560  Biso   1.000  C
  C25      1.0000 0.25970  0.63870  0.34960  Biso   1.000  C
  C26      1.0000 0.29470  0.73800  0.38670  Biso   1.000  C
  C27      1.0000 0.40550  0.06430  0.37580  Biso   1.000  C
  C28      1.0000 0.14300  0.06670  0.12490  Biso   1.000  C
  C29      1.0000 0.18670  0.27340  0.78480  Biso   1.000  C
  C30      1.0000 0.13310  0.22100  0.83430  Biso   1.000  C
  C31      1.0000 0.15120  0.11800  0.81650  Biso   1.000  C
  C32      1.0000 0.22210  0.06700  0.74670  Biso   1.000  C
  C33      1.0000 0.27800  0.12040  0.69910  Biso   1.000  C
  C34      1.0000 0.26100  0.22380  0.71780  Biso   1.000  C
  C35      1.0000 0.21820  0.45080  0.78880  Biso   1.000  C
  C36      1.0000 0.04650  0.67950  0.87490  Biso   1.000  C
  C37      1.0000 0.07660  0.57950  0.83870  Biso   1.000  C
  C38      1.0000 0.17500  0.55760  0.82560  Biso   1.000  C
  C39      1.0000 0.24030  0.63870  0.84960  Biso   1.000  C
  C40      1.0000 0.20530  0.73800  0.88670  Biso   1.000  C
  C41      1.0000 0.09450  0.06430  0.87580  Biso   1.000  C
  C42      1.0000 0.35700  0.06670  0.62490  Biso   1.000  C
  C43      1.0000 0.68670  0.72660  0.71520  Biso   1.000  C
  C44      1.0000 0.63310  0.77900  0.66570  Biso   1.000  C
  C45      1.0000 0.65120  0.88200  0.68350  Biso   1.000  C
  C46      1.0000 0.72210  0.93300  0.75330  Biso   1.000  C
  C47      1.0000 0.77800  0.87960  0.80090  Biso   1.000  C
  C48      1.0000 0.76100  0.77620  0.78220  Biso   1.000  C
  C49      1.0000 0.71820  0.54920  0.71120  Biso   1.000  C
  C50      1.0000 0.54650  0.32050  0.62510  Biso   1.000  C
  C51      1.0000 0.57660  0.42050  0.66130  Biso   1.000  C
  C52      1.0000 0.67500  0.44240  0.67440  Biso   1.000  C
  C53      1.0000 0.74030  0.36130  0.65040  Biso   1.000  C
  C54      1.0000 0.70530  0.26200  0.61330  Biso   1.000  C
  C55      1.0000 0.59450  0.93570  0.62420  Biso   1.000  C
  C56      1.0000 0.85700  0.93330  0.87510  Biso   1.000  C
  N1       1.0000 0.83720  0.62200  0.19400  Biso   1.000  N
  N2       1.0000 0.89090  0.24100  0.10100  Biso   1.000  N
  N3       1.0000 0.33720  0.37800  0.30600  Biso   1.000  N
  N4       1.0000 0.39090  0.75900  0.39900  Biso   1.000  N
  N5       1.0000 0.16280  0.37800  0.80600  Biso   1.000  N
  N6       1.0000 0.10910  0.75900  0.89900  Biso   1.000  N
  N7       1.0000 0.66280  0.62200  0.69400  Biso   1.000  N
  N8       1.0000 0.60910  0.24100  0.60100  Biso   1.000  N
  O1       1.0000 0.70260  0.56510  0.25260  Biso   1.000  O
  O2       1.0000 0.97300  0.88450  0.06900  Biso   1.000  O
  O3       1.0000 0.87970  0.02450  0.13240  Biso   1.000  O
  O4       1.0000 0.65700  0.02420  0.43180  Biso   1.000  O
  O5       1.0000 0.56780  0.88030  0.37440  Biso   1.000  O
  O6       1.0000 0.20260  0.43490  0.24740  Biso   1.000  O
  O7       1.0000 0.47300  0.11550  0.43100  Biso   1.000  O
  O8       1.0000 0.37970  0.97550  0.36760  Biso   1.000  O
  O9       1.0000 0.15700  0.97580  0.06820  Biso   1.000  O
  O10      1.0000 0.06780  0.11970  0.12560  Biso   1.000  O
  O11      1.0000 0.29740  0.43490  0.74740  Biso   1.000  O
  O12      1.0000 0.02700  0.11550  0.93100  Biso   1.000  O
  O13      1.0000 0.12030  0.97550  0.86760  Biso   1.000  O
  O14      1.0000 0.34300  0.97580  0.56820  Biso   1.000  O
  O15      1.0000 0.43220  0.11970  0.62560  Biso   1.000  O
  O16      1.0000 0.79740  0.56510  0.75260  Biso   1.000  O
  O17      1.0000 0.52700  0.88450  0.56900  Biso   1.000  O
  O18      1.0000 0.62030  0.02450  0.63240  Biso   1.000  O
  O19      1.0000 0.84300  0.02420  0.93180  Biso   1.000  O
  O20      1.0000 0.93220  0.88030  0.87440  Biso   1.000  O
