data_image0
_cell_length_a       11.3815
_cell_length_b       20.0676
_cell_length_c       29.4371
_cell_angle_alpha    90
_cell_angle_beta     98.782
_cell_angle_gamma    90

_symmetry_space_group_name_H-M    P 1
_symmetry_int_tables_number       1

loop_
  _symmetry_equiv_pos_as_xyz
  'x, y, z'

loop_
  _atom_site_label
  _atom_site_occupancy
  _atom_site_fract_x
  _atom_site_fract_y
  _atom_site_fract_z
  _atom_site_thermal_displace_type
  _atom_site_B_iso_or_equiv
  _atom_site_type_symbol
  Zn1      1.0000 0.54099  0.92335  0.54722  Biso   1.000  Zn
  Zn2      1.0000 0.52707  0.57823  0.45579  Biso   1.000  Zn
  Zn3      1.0000 0.45901  0.42335  0.95278  Biso   1.000  Zn
  Zn4      1.0000 0.47293  0.07823  0.04421  Biso   1.000  Zn
  Zn5      1.0000 0.45901  0.07665  0.45278  Biso   1.000  Zn
  Zn6      1.0000 0.47293  0.42177  0.54421  Biso   1.000  Zn
  Zn7      1.0000 0.54099  0.57665  0.04722  Biso   1.000  Zn
  Zn8      1.0000 0.52707  0.92177  0.95579  Biso   1.000  Zn
  H1       1.0000 0.38540  0.61530  0.70760  Biso   1.000  H
  H2       1.0000 0.35900  0.62220  0.77510  Biso   1.000  H
  H3       1.0000 0.55010  0.69470  0.54850  Biso   1.000  H
  H4       1.0000 0.45960  0.56950  0.64530  Biso   1.000  H
  H5       1.0000 0.48200  0.77100  0.67030  Biso   1.000  H
  H6       1.0000 0.43690  0.57090  0.84710  Biso   1.000  H
  H7       1.0000 0.52290  0.69470  0.95610  Biso   1.000  H
  H8       1.0000 0.45740  0.77130  0.82660  Biso   1.000  H
  H9       1.0000 0.30080  0.88760  0.48360  Biso   1.000  H
  H10      1.0000 0.10150  0.88890  0.48400  Biso   1.000  H
  H11      1.0000 0.16600  0.96120  0.61390  Biso   1.000  H
  H12      1.0000 0.36260  0.95930  0.60960  Biso   1.000  H
  H13      1.0000 0.93150  0.84550  0.50620  Biso   1.000  H
  H14      1.0000 0.73260  0.85000  0.50760  Biso   1.000  H
  H15      1.0000 0.77360  0.99620  0.59760  Biso   1.000  H
  H16      1.0000 0.97140  0.99910  0.59620  Biso   1.000  H
  H17      1.0000 0.29510  0.51420  0.40360  Biso   1.000  H
  H18      1.0000 0.09580  0.50990  0.40430  Biso   1.000  H
  H19      1.0000 0.14120  0.64550  0.50750  Biso   1.000  H
  H20      1.0000 0.34330  0.64780  0.50270  Biso   1.000  H
  H21      1.0000 0.93170  0.48430  0.43060  Biso   1.000  H
  H22      1.0000 0.72710  0.48780  0.43050  Biso   1.000  H
  H23      1.0000 0.74680  0.66630  0.48170  Biso   1.000  H
  H24      1.0000 0.95380  0.66440  0.48770  Biso   1.000  H
  H25      1.0000 0.61460  0.11530  0.79240  Biso   1.000  H
  H26      1.0000 0.64100  0.12220  0.72490  Biso   1.000  H
  H27      1.0000 0.44990  0.19470  0.95150  Biso   1.000  H
  H28      1.0000 0.54040  0.06950  0.85470  Biso   1.000  H
  H29      1.0000 0.51800  0.27100  0.82970  Biso   1.000  H
  H30      1.0000 0.56310  0.07090  0.65290  Biso   1.000  H
  H31      1.0000 0.47710  0.19470  0.54390  Biso   1.000  H
  H32      1.0000 0.54260  0.27130  0.67340  Biso   1.000  H
  H33      1.0000 0.69920  0.38760  0.01640  Biso   1.000  H
  H34      1.0000 0.89850  0.38890  0.01600  Biso   1.000  H
  H35      1.0000 0.83400  0.46120  0.88610  Biso   1.000  H
  H36      1.0000 0.63740  0.45930  0.89040  Biso   1.000  H
  H37      1.0000 0.06850  0.34550  0.99380  Biso   1.000  H
  H38      1.0000 0.26740  0.35000  0.99240  Biso   1.000  H
  H39      1.0000 0.22640  0.49620  0.90240  Biso   1.000  H
  H40      1.0000 0.02860  0.49910  0.90380  Biso   1.000  H
  H41      1.0000 0.70490  0.01420  0.09640  Biso   1.000  H
  H42      1.0000 0.90420  0.00990  0.09570  Biso   1.000  H
  H43      1.0000 0.85880  0.14550  0.99250  Biso   1.000  H
  H44      1.0000 0.65670  0.14780  0.99730  Biso   1.000  H
  H45      1.0000 0.06830  0.98430  0.06940  Biso   1.000  H
  H46      1.0000 0.27290  0.98780  0.06950  Biso   1.000  H
  H47      1.0000 0.25320  0.16630  0.01830  Biso   1.000  H
  H48      1.0000 0.04620  0.16440  0.01230  Biso   1.000  H
  H49      1.0000 0.61460  0.38470  0.29240  Biso   1.000  H
  H50      1.0000 0.64100  0.37780  0.22490  Biso   1.000  H
  H51      1.0000 0.44990  0.30530  0.45150  Biso   1.000  H
  H52      1.0000 0.54040  0.43050  0.35470  Biso   1.000  H
  H53      1.0000 0.51800  0.22900  0.32970  Biso   1.000  H
  H54      1.0000 0.56310  0.42910  0.15290  Biso   1.000  H
  H55      1.0000 0.47710  0.30530  0.04390  Biso   1.000  H
  H56      1.0000 0.54260  0.22870  0.17340  Biso   1.000  H
  H57      1.0000 0.69920  0.11240  0.51640  Biso   1.000  H
  H58      1.0000 0.89850  0.11110  0.51600  Biso   1.000  H
  H59      1.0000 0.83400  0.03880  0.38610  Biso   1.000  H
  H60      1.0000 0.63740  0.04070  0.39040  Biso   1.000  H
  H61      1.0000 0.06850  0.15450  0.49380  Biso   1.000  H
  H62      1.0000 0.26740  0.15000  0.49240  Biso   1.000  H
  H63      1.0000 0.22640  0.00380  0.40240  Biso   1.000  H
  H64      1.0000 0.02860  0.00090  0.40380  Biso   1.000  H
  H65      1.0000 0.70490  0.48580  0.59640  Biso   1.000  H
  H66      1.0000 0.90420  0.49010  0.59570  Biso   1.000  H
  H67      1.0000 0.85880  0.35450  0.49250  Biso   1.000  H
  H68      1.0000 0.65670  0.35220  0.49730  Biso   1.000  H
  H69      1.0000 0.06830  0.51570  0.56940  Biso   1.000  H
  H70      1.0000 0.27290  0.51220  0.56950  Biso   1.000  H
  H71      1.0000 0.25320  0.33370  0.51830  Biso   1.000  H
  H72      1.0000 0.04620  0.33560  0.51230  Biso   1.000  H
  H73      1.0000 0.38540  0.88470  0.20760  Biso   1.000  H
  H74      1.0000 0.35900  0.87780  0.27510  Biso   1.000  H
  H75      1.0000 0.55010  0.80530  0.04850  Biso   1.000  H
  H76      1.0000 0.45960  0.93050  0.14530  Biso   1.000  H
  H77      1.0000 0.48200  0.72900  0.17030  Biso   1.000  H
  H78      1.0000 0.43690  0.92910  0.34710  Biso   1.000  H
  H79      1.0000 0.52290  0.80530  0.45610  Biso   1.000  H
  H80      1.0000 0.45740  0.72870  0.32660  Biso   1.000  H
  H81      1.0000 0.30080  0.61240  0.98360  Biso   1.000  H
  H82      1.0000 0.10150  0.61110  0.98400  Biso   1.000  H
  H83      1.0000 0.16600  0.53880  0.11390  Biso   1.000  H
  H84      1.0000 0.36260  0.54070  0.10960  Biso   1.000  H
  H85      1.0000 0.93150  0.65450  0.00620  Biso   1.000  H
  H86      1.0000 0.73260  0.65000  0.00760  Biso   1.000  H
  H87      1.0000 0.77360  0.50380  0.09760  Biso   1.000  H
  H88      1.0000 0.97140  0.50090  0.09620  Biso   1.000  H
  H89      1.0000 0.29510  0.98580  0.90360  Biso   1.000  H
  H90      1.0000 0.09580  0.99010  0.90430  Biso   1.000  H
  H91      1.0000 0.14120  0.85450  0.00750  Biso   1.000  H
  H92      1.0000 0.34330  0.85220  0.00270  Biso   1.000  H
  H93      1.0000 0.93170  0.01570  0.93060  Biso   1.000  H
  H94      1.0000 0.72710  0.01220  0.93050  Biso   1.000  H
  H95      1.0000 0.74680  0.83370  0.98170  Biso   1.000  H
  H96      1.0000 0.95380  0.83560  0.98770  Biso   1.000  H
  C1       1.0000 0.52910  0.81280  0.59020  Biso   1.000  C
  C2       1.0000 0.51210  0.74290  0.60590  Biso   1.000  C
  C3       1.0000 0.52520  0.68820  0.57750  Biso   1.000  C
  C4       1.0000 0.50200  0.62550  0.59190  Biso   1.000  C
  C5       1.0000 0.47180  0.61370  0.63540  Biso   1.000  C
  C6       1.0000 0.45990  0.66820  0.66460  Biso   1.000  C
  C7       1.0000 0.48440  0.73410  0.65020  Biso   1.000  C
  C8       1.0000 0.51530  0.56510  0.56200  Biso   1.000  C
  C9       1.0000 0.44900  0.68760  0.74660  Biso   1.000  C
  C10      1.0000 0.44570  0.66890  0.82960  Biso   1.000  C
  C11      1.0000 0.45140  0.61460  0.85910  Biso   1.000  C
  C12      1.0000 0.47850  0.62480  0.90640  Biso   1.000  C
  C13      1.0000 0.50080  0.68830  0.92390  Biso   1.000  C
  C14      1.0000 0.49070  0.74230  0.89440  Biso   1.000  C
  C15      1.0000 0.46350  0.73400  0.84670  Biso   1.000  C
  C16      1.0000 0.48810  0.56410  0.93750  Biso   1.000  C
  C17      1.0000 0.50780  0.81150  0.91200  Biso   1.000  C
  C18      1.0000 0.27210  0.90420  0.51010  Biso   1.000  C
  C19      1.0000 0.15360  0.90380  0.51040  Biso   1.000  C
  C20      1.0000 0.10720  0.92470  0.54900  Biso   1.000  C
  C21      1.0000 0.19180  0.94630  0.58650  Biso   1.000  C
  C22      1.0000 0.30810  0.94570  0.58350  Biso   1.000  C
  C23      1.0000 0.97960  0.92220  0.55100  Biso   1.000  C
  C24      1.0000 0.90120  0.87780  0.52500  Biso   1.000  C
  C25      1.0000 0.78250  0.88030  0.52640  Biso   1.000  C
  C26      1.0000 0.80590  0.96550  0.57830  Biso   1.000  C
  C27      1.0000 0.92430  0.96700  0.57790  Biso   1.000  C
  C28      1.0000 0.26260  0.54120  0.42510  Biso   1.000  C
  C29      1.0000 0.14420  0.53870  0.42490  Biso   1.000  C
  C30      1.0000 0.09450  0.57840  0.45480  Biso   1.000  C
  C31      1.0000 0.17180  0.61870  0.48540  Biso   1.000  C
  C32      1.0000 0.29270  0.61890  0.48300  Biso   1.000  C
  C33      1.0000 0.96230  0.57590  0.45600  Biso   1.000  C
  C34      1.0000 0.89630  0.52300  0.44130  Biso   1.000  C
  C35      1.0000 0.77200  0.52570  0.44200  Biso   1.000  C
  C36      1.0000 0.78300  0.62730  0.47190  Biso   1.000  C
  C37      1.0000 0.90820  0.62800  0.47390  Biso   1.000  C
  C38      1.0000 0.47090  0.31280  0.90980  Biso   1.000  C
  C39      1.0000 0.48790  0.24290  0.89410  Biso   1.000  C
  C40      1.0000 0.47480  0.18820  0.92250  Biso   1.000  C
  C41      1.0000 0.49800  0.12550  0.90810  Biso   1.000  C
  C42      1.0000 0.52820  0.11370  0.86460  Biso   1.000  C
  C43      1.0000 0.54010  0.16820  0.83540  Biso   1.000  C
  C44      1.0000 0.51560  0.23410  0.84980  Biso   1.000  C
  C45      1.0000 0.48470  0.06510  0.93800  Biso   1.000  C
  C46      1.0000 0.55100  0.18760  0.75340  Biso   1.000  C
  C47      1.0000 0.55430  0.16890  0.67040  Biso   1.000  C
  C48      1.0000 0.54860  0.11460  0.64090  Biso   1.000  C
  C49      1.0000 0.52150  0.12480  0.59360  Biso   1.000  C
  C50      1.0000 0.49920  0.18830  0.57610  Biso   1.000  C
  C51      1.0000 0.50930  0.24230  0.60560  Biso   1.000  C
  C52      1.0000 0.53650  0.23400  0.65330  Biso   1.000  C
  C53      1.0000 0.51190  0.06410  0.56250  Biso   1.000  C
  C54      1.0000 0.49220  0.31150  0.58800  Biso   1.000  C
  C55      1.0000 0.72790  0.40420  0.98990  Biso   1.000  C
  C56      1.0000 0.84640  0.40380  0.98960  Biso   1.000  C
  C57      1.0000 0.89280  0.42470  0.95100  Biso   1.000  C
  C58      1.0000 0.80820  0.44630  0.91350  Biso   1.000  C
  C59      1.0000 0.69190  0.44570  0.91650  Biso   1.000  C
  C60      1.0000 0.02040  0.42220  0.94900  Biso   1.000  C
  C61      1.0000 0.09880  0.37780  0.97500  Biso   1.000  C
  C62      1.0000 0.21750  0.38030  0.97360  Biso   1.000  C
  C63      1.0000 0.19410  0.46550  0.92170  Biso   1.000  C
  C64      1.0000 0.07570  0.46700  0.92210  Biso   1.000  C
  C65      1.0000 0.73740  0.04120  0.07490  Biso   1.000  C
  C66      1.0000 0.85580  0.03870  0.07510  Biso   1.000  C
  C67      1.0000 0.90550  0.07840  0.04520  Biso   1.000  C
  C68      1.0000 0.82820  0.11870  0.01460  Biso   1.000  C
  C69      1.0000 0.70730  0.11890  0.01700  Biso   1.000  C
  C70      1.0000 0.03770  0.07590  0.04400  Biso   1.000  C
  C71      1.0000 0.10370  0.02300  0.05870  Biso   1.000  C
  C72      1.0000 0.22800  0.02570  0.05800  Biso   1.000  C
  C73      1.0000 0.21700  0.12730  0.02810  Biso   1.000  C
  C74      1.0000 0.09180  0.12800  0.02610  Biso   1.000  C
  C75      1.0000 0.47090  0.18720  0.40980  Biso   1.000  C
  C76      1.0000 0.48790  0.25710  0.39410  Biso   1.000  C
  C77      1.0000 0.47480  0.31180  0.42250  Biso   1.000  C
  C78      1.0000 0.49800  0.37450  0.40810  Biso   1.000  C
  C79      1.0000 0.52820  0.38630  0.36460  Biso   1.000  C
  C80      1.0000 0.54010  0.33180  0.33540  Biso   1.000  C
  C81      1.0000 0.51560  0.26590  0.34980  Biso   1.000  C
  C82      1.0000 0.48470  0.43490  0.43800  Biso   1.000  C
  C83      1.0000 0.55100  0.31240  0.25340  Biso   1.000  C
  C84      1.0000 0.55430  0.33110  0.17040  Biso   1.000  C
  C85      1.0000 0.54860  0.38540  0.14090  Biso   1.000  C
  C86      1.0000 0.52150  0.37520  0.09360  Biso   1.000  C
  C87      1.0000 0.49920  0.31170  0.07610  Biso   1.000  C
  C88      1.0000 0.50930  0.25770  0.10560  Biso   1.000  C
  C89      1.0000 0.53650  0.26600  0.15330  Biso   1.000  C
  C90      1.0000 0.51190  0.43590  0.06250  Biso   1.000  C
  C91      1.0000 0.49220  0.18850  0.08800  Biso   1.000  C
  C92      1.0000 0.72790  0.09580  0.48990  Biso   1.000  C
  C93      1.0000 0.84640  0.09620  0.48960  Biso   1.000  C
  C94      1.0000 0.89280  0.07530  0.45100  Biso   1.000  C
  C95      1.0000 0.80820  0.05370  0.41350  Biso   1.000  C
  C96      1.0000 0.69190  0.05430  0.41650  Biso   1.000  C
  C97      1.0000 0.02040  0.07780  0.44900  Biso   1.000  C
  C98      1.0000 0.09880  0.12220  0.47500  Biso   1.000  C
  C99      1.0000 0.21750  0.11970  0.47360  Biso   1.000  C
  C100     1.0000 0.19410  0.03450  0.42170  Biso   1.000  C
  C101     1.0000 0.07570  0.03300  0.42210  Biso   1.000  C
  C102     1.0000 0.73740  0.45880  0.57490  Biso   1.000  C
  C103     1.0000 0.85580  0.46130  0.57510  Biso   1.000  C
  C104     1.0000 0.90550  0.42160  0.54520  Biso   1.000  C
  C105     1.0000 0.82820  0.38130  0.51460  Biso   1.000  C
  C106     1.0000 0.70730  0.38110  0.51700  Biso   1.000  C
  C107     1.0000 0.03770  0.42410  0.54400  Biso   1.000  C
  C108     1.0000 0.10370  0.47700  0.55870  Biso   1.000  C
  C109     1.0000 0.22800  0.47430  0.55800  Biso   1.000  C
  C110     1.0000 0.21700  0.37270  0.52810  Biso   1.000  C
  C111     1.0000 0.09180  0.37200  0.52610  Biso   1.000  C
  C112     1.0000 0.52910  0.68720  0.09020  Biso   1.000  C
  C113     1.0000 0.51210  0.75710  0.10590  Biso   1.000  C
  C114     1.0000 0.52520  0.81180  0.07750  Biso   1.000  C
  C115     1.0000 0.50200  0.87450  0.09190  Biso   1.000  C
  C116     1.0000 0.47180  0.88630  0.13540  Biso   1.000  C
  C117     1.0000 0.45990  0.83180  0.16460  Biso   1.000  C
  C118     1.0000 0.48440  0.76590  0.15020  Biso   1.000  C
  C119     1.0000 0.51530  0.93490  0.06200  Biso   1.000  C
  C120     1.0000 0.44900  0.81240  0.24660  Biso   1.000  C
  C121     1.0000 0.44570  0.83110  0.32960  Biso   1.000  C
  C122     1.0000 0.45140  0.88540  0.35910  Biso   1.000  C
  C123     1.0000 0.47850  0.87520  0.40640  Biso   1.000  C
  C124     1.0000 0.50080  0.81170  0.42390  Biso   1.000  C
  C125     1.0000 0.49070  0.75770  0.39440  Biso   1.000  C
  C126     1.0000 0.46350  0.76600  0.34670  Biso   1.000  C
  C127     1.0000 0.48810  0.93590  0.43750  Biso   1.000  C
  C128     1.0000 0.50780  0.68850  0.41200  Biso   1.000  C
  C129     1.0000 0.27210  0.59580  0.01010  Biso   1.000  C
  C130     1.0000 0.15360  0.59620  0.01040  Biso   1.000  C
  C131     1.0000 0.10720  0.57530  0.04900  Biso   1.000  C
  C132     1.0000 0.19180  0.55370  0.08650  Biso   1.000  C
  C133     1.0000 0.30810  0.55430  0.08350  Biso   1.000  C
  C134     1.0000 0.97960  0.57780  0.05100  Biso   1.000  C
  C135     1.0000 0.90120  0.62220  0.02500  Biso   1.000  C
  C136     1.0000 0.78250  0.61970  0.02640  Biso   1.000  C
  C137     1.0000 0.80590  0.53450  0.07830  Biso   1.000  C
  C138     1.0000 0.92430  0.53300  0.07790  Biso   1.000  C
  C139     1.0000 0.26260  0.95880  0.92510  Biso   1.000  C
  C140     1.0000 0.14420  0.96130  0.92490  Biso   1.000  C
  C141     1.0000 0.09450  0.92160  0.95480  Biso   1.000  C
  C142     1.0000 0.17180  0.88130  0.98540  Biso   1.000  C
  C143     1.0000 0.29270  0.88110  0.98300  Biso   1.000  C
  C144     1.0000 0.96230  0.92410  0.95600  Biso   1.000  C
  C145     1.0000 0.89630  0.97700  0.94130  Biso   1.000  C
  C146     1.0000 0.77200  0.97430  0.94200  Biso   1.000  C
  C147     1.0000 0.78300  0.87270  0.97190  Biso   1.000  C
  C148     1.0000 0.90820  0.87200  0.97390  Biso   1.000  C
  N1       1.0000 0.42620  0.65240  0.70660  Biso   1.000  N
  N2       1.0000 0.41030  0.65480  0.78220  Biso   1.000  N
  N3       1.0000 0.35200  0.92700  0.54520  Biso   1.000  N
  N4       1.0000 0.73060  0.92320  0.55290  Biso   1.000  N
  N5       1.0000 0.33960  0.58020  0.45430  Biso   1.000  N
  N6       1.0000 0.71130  0.57590  0.45720  Biso   1.000  N
  N7       1.0000 0.57380  0.15240  0.79340  Biso   1.000  N
  N8       1.0000 0.58970  0.15480  0.71780  Biso   1.000  N
  N9       1.0000 0.64800  0.42700  0.95480  Biso   1.000  N
  N10      1.0000 0.26940  0.42320  0.94710  Biso   1.000  N
  N11      1.0000 0.66040  0.08020  0.04570  Biso   1.000  N
  N12      1.0000 0.28870  0.07590  0.04280  Biso   1.000  N
  N13      1.0000 0.57380  0.34760  0.29340  Biso   1.000  N
  N14      1.0000 0.58970  0.34520  0.21780  Biso   1.000  N
  N15      1.0000 0.64800  0.07300  0.45480  Biso   1.000  N
  N16      1.0000 0.26940  0.07680  0.44710  Biso   1.000  N
  N17      1.0000 0.66040  0.41980  0.54570  Biso   1.000  N
  N18      1.0000 0.28870  0.42410  0.54280  Biso   1.000  N
  N19      1.0000 0.42620  0.84760  0.20660  Biso   1.000  N
  N20      1.0000 0.41030  0.84520  0.28220  Biso   1.000  N
  N21      1.0000 0.35200  0.57300  0.04520  Biso   1.000  N
  N22      1.0000 0.73060  0.57680  0.05290  Biso   1.000  N
  N23      1.0000 0.33960  0.91980  0.95430  Biso   1.000  N
  N24      1.0000 0.71130  0.92410  0.95720  Biso   1.000  N
  O1       1.0000 0.53690  0.86000  0.61780  Biso   1.000  O
  O2       1.0000 0.53750  0.82050  0.54730  Biso   1.000  O
  O3       1.0000 0.53560  0.57190  0.97810  Biso   1.000  O
  O4       1.0000 0.44540  0.51090  0.91910  Biso   1.000  O
  O5       1.0000 0.55870  0.57410  0.52570  Biso   1.000  O
  O6       1.0000 0.47930  0.51030  0.57570  Biso   1.000  O
  O7       1.0000 0.52860  0.81930  0.95640  Biso   1.000  O
  O8       1.0000 0.50000  0.86010  0.88570  Biso   1.000  O
  O9       1.0000 0.49680  0.74100  0.74990  Biso   1.000  O
  O10      1.0000 0.46310  0.36000  0.88220  Biso   1.000  O
  O11      1.0000 0.46250  0.32050  0.95270  Biso   1.000  O
  O12      1.0000 0.46440  0.07190  0.52190  Biso   1.000  O
  O13      1.0000 0.55460  0.01090  0.58090  Biso   1.000  O
  O14      1.0000 0.44130  0.07410  0.97430  Biso   1.000  O
  O15      1.0000 0.52070  0.01030  0.92430  Biso   1.000  O
  O16      1.0000 0.47140  0.31930  0.54360  Biso   1.000  O
  O17      1.0000 0.50000  0.36010  0.61430  Biso   1.000  O
  O18      1.0000 0.50320  0.24100  0.75010  Biso   1.000  O
  O19      1.0000 0.46310  0.14000  0.38220  Biso   1.000  O
  O20      1.0000 0.46250  0.17950  0.45270  Biso   1.000  O
  O21      1.0000 0.46440  0.42810  0.02190  Biso   1.000  O
  O22      1.0000 0.55460  0.48910  0.08090  Biso   1.000  O
  O23      1.0000 0.44130  0.42590  0.47430  Biso   1.000  O
  O24      1.0000 0.52070  0.48970  0.42430  Biso   1.000  O
  O25      1.0000 0.47140  0.18070  0.04360  Biso   1.000  O
  O26      1.0000 0.50000  0.13990  0.11430  Biso   1.000  O
  O27      1.0000 0.50320  0.25900  0.25010  Biso   1.000  O
  O28      1.0000 0.53690  0.64000  0.11780  Biso   1.000  O
  O29      1.0000 0.53750  0.67950  0.04730  Biso   1.000  O
  O30      1.0000 0.53560  0.92810  0.47810  Biso   1.000  O
  O31      1.0000 0.44540  0.98910  0.41910  Biso   1.000  O
  O32      1.0000 0.55870  0.92590  0.02570  Biso   1.000  O
  O33      1.0000 0.47930  0.98970  0.07570  Biso   1.000  O
  O34      1.0000 0.52860  0.68070  0.45640  Biso   1.000  O
  O35      1.0000 0.50000  0.63990  0.38570  Biso   1.000  O
  O36      1.0000 0.49680  0.75900  0.24990  Biso   1.000  O
