data_image0
_cell_length_a       11.6182
_cell_length_b       15.5887
_cell_length_c       13.1134
_cell_angle_alpha    90
_cell_angle_beta     90
_cell_angle_gamma    90

_symmetry_space_group_name_H-M    P 1
_symmetry_int_tables_number       1

loop_
  _symmetry_equiv_pos_as_xyz
  'x, y, z'

loop_
  _atom_site_label
  _atom_site_occupancy
  _atom_site_fract_x
  _atom_site_fract_y
  _atom_site_fract_z
  _atom_site_thermal_displace_type
  _atom_site_B_iso_or_equiv
  _atom_site_type_symbol
  Ce1      1.0000 0.75000  0.71365  0.06121  Biso   1.000  Ce
  Ce2      1.0000 0.25000  0.78635  0.56121  Biso   1.000  Ce
  Ce3      1.0000 0.25000  0.28635  0.93879  Biso   1.000  Ce
  Ce4      1.0000 0.75000  0.21365  0.43879  Biso   1.000  Ce
  U1       1.0000 0.75000  0.75300  0.34295  Biso   1.000  U
  U2       1.0000 0.25000  0.74700  0.84295  Biso   1.000  U
  U3       1.0000 0.25000  0.24700  0.65705  Biso   1.000  U
  U4       1.0000 0.75000  0.25300  0.15705  Biso   1.000  U
  U5       1.0000 0.00000  0.00000  0.00000  Biso   1.000  U
  U6       1.0000 0.00000  0.50000  0.50000  Biso   1.000  U
  U7       1.0000 0.50000  0.00000  0.00000  Biso   1.000  U
  U8       1.0000 0.50000  0.50000  0.50000  Biso   1.000  U
  C1       1.0000 0.87020  0.76860  0.71890  Biso   1.000  C
  C2       1.0000 0.00080  0.76610  0.71950  Biso   1.000  C
  C3       1.0000 0.81020  0.80920  0.79710  Biso   1.000  C
  C4       1.0000 0.87340  0.85500  0.88120  Biso   1.000  C
  C5       1.0000 0.87410  0.67280  0.56630  Biso   1.000  C
  C6       1.0000 0.80980  0.72770  0.64040  Biso   1.000  C
  C7       1.0000 0.12980  0.73140  0.21890  Biso   1.000  C
  C8       1.0000 0.99920  0.73390  0.21950  Biso   1.000  C
  C9       1.0000 0.18980  0.69080  0.29710  Biso   1.000  C
  C10      1.0000 0.12660  0.64500  0.38120  Biso   1.000  C
  C11      1.0000 0.12590  0.82720  0.06630  Biso   1.000  C
  C12      1.0000 0.19020  0.77230  0.14040  Biso   1.000  C
  C13      1.0000 0.37020  0.23140  0.28110  Biso   1.000  C
  C14      1.0000 0.50080  0.23390  0.28050  Biso   1.000  C
  C15      1.0000 0.31020  0.19080  0.20290  Biso   1.000  C
  C16      1.0000 0.37340  0.14500  0.11880  Biso   1.000  C
  C17      1.0000 0.37410  0.32720  0.43370  Biso   1.000  C
  C18      1.0000 0.30980  0.27230  0.35960  Biso   1.000  C
  C19      1.0000 0.62980  0.26860  0.78110  Biso   1.000  C
  C20      1.0000 0.49920  0.26610  0.78050  Biso   1.000  C
  C21      1.0000 0.68980  0.30920  0.70290  Biso   1.000  C
  C22      1.0000 0.62660  0.35500  0.61880  Biso   1.000  C
  C23      1.0000 0.62590  0.17280  0.93370  Biso   1.000  C
  C24      1.0000 0.69020  0.22770  0.85960  Biso   1.000  C
  C25      1.0000 0.12980  0.23140  0.28110  Biso   1.000  C
  C26      1.0000 0.99920  0.23390  0.28050  Biso   1.000  C
  C27      1.0000 0.18980  0.19080  0.20290  Biso   1.000  C
  C28      1.0000 0.12660  0.14500  0.11880  Biso   1.000  C
  C29      1.0000 0.12590  0.32720  0.43370  Biso   1.000  C
  C30      1.0000 0.19020  0.27230  0.35960  Biso   1.000  C
  C31      1.0000 0.87020  0.26860  0.78110  Biso   1.000  C
  C32      1.0000 0.00080  0.26610  0.78050  Biso   1.000  C
  C33      1.0000 0.81020  0.30920  0.70290  Biso   1.000  C
  C34      1.0000 0.87340  0.35500  0.61880  Biso   1.000  C
  C35      1.0000 0.87410  0.17280  0.93370  Biso   1.000  C
  C36      1.0000 0.80980  0.22770  0.85960  Biso   1.000  C
  C37      1.0000 0.62980  0.76860  0.71890  Biso   1.000  C
  C38      1.0000 0.49920  0.76610  0.71950  Biso   1.000  C
  C39      1.0000 0.68980  0.80920  0.79710  Biso   1.000  C
  C40      1.0000 0.62660  0.85500  0.88120  Biso   1.000  C
  C41      1.0000 0.62590  0.67280  0.56630  Biso   1.000  C
  C42      1.0000 0.69020  0.72770  0.64040  Biso   1.000  C
  C43      1.0000 0.37020  0.73140  0.21890  Biso   1.000  C
  C44      1.0000 0.50080  0.73390  0.21950  Biso   1.000  C
  C45      1.0000 0.31020  0.69080  0.29710  Biso   1.000  C
  C46      1.0000 0.37340  0.64500  0.38120  Biso   1.000  C
  C47      1.0000 0.37410  0.82720  0.06630  Biso   1.000  C
  C48      1.0000 0.30980  0.77230  0.14040  Biso   1.000  C
  O1       1.0000 0.92530  0.92320  0.85740  Biso   1.000  O
  O2       1.0000 0.87080  0.82620  0.96970  Biso   1.000  O
  O3       1.0000 0.87040  0.99650  0.06880  Biso   1.000  O
  O4       1.0000 0.93110  0.61230  0.60480  Biso   1.000  O
  O5       1.0000 0.86810  0.68550  0.47240  Biso   1.000  O
  O6       1.0000 0.88590  0.64570  0.93110  Biso   1.000  O
  O7       1.0000 0.04700  0.73860  0.80070  Biso   1.000  O
  O8       1.0000 0.05140  0.79100  0.64100  Biso   1.000  O
  O9       1.0000 0.07470  0.57680  0.35740  Biso   1.000  O
  O10      1.0000 0.12920  0.67380  0.46970  Biso   1.000  O
  O11      1.0000 0.12960  0.50350  0.56880  Biso   1.000  O
  O12      1.0000 0.06890  0.88770  0.10480  Biso   1.000  O
  O13      1.0000 0.13190  0.81450  0.97240  Biso   1.000  O
  O14      1.0000 0.11410  0.85430  0.43110  Biso   1.000  O
  O15      1.0000 0.95300  0.76140  0.30070  Biso   1.000  O
  O16      1.0000 0.94860  0.70900  0.14100  Biso   1.000  O
  O17      1.0000 0.42530  0.07680  0.14260  Biso   1.000  O
  O18      1.0000 0.37080  0.17380  0.03030  Biso   1.000  O
  O19      1.0000 0.37040  0.00350  0.93120  Biso   1.000  O
  O20      1.0000 0.43110  0.38770  0.39520  Biso   1.000  O
  O21      1.0000 0.36810  0.31450  0.52760  Biso   1.000  O
  O22      1.0000 0.38590  0.35430  0.06890  Biso   1.000  O
  O23      1.0000 0.54700  0.26140  0.19930  Biso   1.000  O
  O24      1.0000 0.55140  0.20900  0.35900  Biso   1.000  O
  O25      1.0000 0.57470  0.42320  0.64260  Biso   1.000  O
  O26      1.0000 0.62920  0.32620  0.53030  Biso   1.000  O
  O27      1.0000 0.62960  0.49650  0.43120  Biso   1.000  O
  O28      1.0000 0.56890  0.11230  0.89520  Biso   1.000  O
  O29      1.0000 0.63190  0.18550  0.02760  Biso   1.000  O
  O30      1.0000 0.61410  0.14570  0.56890  Biso   1.000  O
  O31      1.0000 0.45300  0.23860  0.69930  Biso   1.000  O
  O32      1.0000 0.44860  0.29100  0.85900  Biso   1.000  O
  O33      1.0000 0.07470  0.07680  0.14260  Biso   1.000  O
  O34      1.0000 0.12920  0.17380  0.03030  Biso   1.000  O
  O35      1.0000 0.12960  0.00350  0.93120  Biso   1.000  O
  O36      1.0000 0.06890  0.38770  0.39520  Biso   1.000  O
  O37      1.0000 0.13190  0.31450  0.52760  Biso   1.000  O
  O38      1.0000 0.11410  0.35430  0.06890  Biso   1.000  O
  O39      1.0000 0.95300  0.26140  0.19930  Biso   1.000  O
  O40      1.0000 0.94860  0.20900  0.35900  Biso   1.000  O
  O41      1.0000 0.92530  0.42320  0.64260  Biso   1.000  O
  O42      1.0000 0.87080  0.32620  0.53030  Biso   1.000  O
  O43      1.0000 0.87040  0.49650  0.43120  Biso   1.000  O
  O44      1.0000 0.93110  0.11230  0.89520  Biso   1.000  O
  O45      1.0000 0.86810  0.18550  0.02760  Biso   1.000  O
  O46      1.0000 0.88590  0.14570  0.56890  Biso   1.000  O
  O47      1.0000 0.04700  0.23860  0.69930  Biso   1.000  O
  O48      1.0000 0.05140  0.29100  0.85900  Biso   1.000  O
  O49      1.0000 0.57470  0.92320  0.85740  Biso   1.000  O
  O50      1.0000 0.62920  0.82620  0.96970  Biso   1.000  O
  O51      1.0000 0.62960  0.99650  0.06880  Biso   1.000  O
  O52      1.0000 0.56890  0.61230  0.60480  Biso   1.000  O
  O53      1.0000 0.63190  0.68550  0.47240  Biso   1.000  O
  O54      1.0000 0.61410  0.64570  0.93110  Biso   1.000  O
  O55      1.0000 0.45300  0.73860  0.80070  Biso   1.000  O
  O56      1.0000 0.44860  0.79100  0.64100  Biso   1.000  O
  O57      1.0000 0.42530  0.57680  0.35740  Biso   1.000  O
  O58      1.0000 0.37080  0.67380  0.46970  Biso   1.000  O
  O59      1.0000 0.37040  0.50350  0.56880  Biso   1.000  O
  O60      1.0000 0.43110  0.88770  0.10480  Biso   1.000  O
  O61      1.0000 0.36810  0.81450  0.97240  Biso   1.000  O
  O62      1.0000 0.38590  0.85430  0.43110  Biso   1.000  O
  O63      1.0000 0.54700  0.76140  0.30070  Biso   1.000  O
  O64      1.0000 0.55140  0.70900  0.14100  Biso   1.000  O
  O65      1.0000 0.75000  0.65890  0.26640  Biso   1.000  O
  O66      1.0000 0.75000  0.82210  0.19230  Biso   1.000  O
  O67      1.0000 0.75000  0.55460  0.08240  Biso   1.000  O
  O68      1.0000 0.75000  0.84890  0.41410  Biso   1.000  O
  O69      1.0000 0.25000  0.84110  0.76640  Biso   1.000  O
  O70      1.0000 0.25000  0.67790  0.69230  Biso   1.000  O
  O71      1.0000 0.25000  0.94540  0.58240  Biso   1.000  O
  O72      1.0000 0.25000  0.65110  0.91410  Biso   1.000  O
  O73      1.0000 0.25000  0.34110  0.73360  Biso   1.000  O
  O74      1.0000 0.25000  0.17790  0.80770  Biso   1.000  O
  O75      1.0000 0.25000  0.44540  0.91760  Biso   1.000  O
  O76      1.0000 0.25000  0.15110  0.58590  Biso   1.000  O
  O77      1.0000 0.75000  0.15890  0.23360  Biso   1.000  O
  O78      1.0000 0.75000  0.32210  0.30770  Biso   1.000  O
  O79      1.0000 0.75000  0.05460  0.41760  Biso   1.000  O
  O80      1.0000 0.75000  0.34890  0.08590  Biso   1.000  O
