data_image0
_cell_length_a       11.628
_cell_length_b       15.578
_cell_length_c       13.065
_cell_angle_alpha    90
_cell_angle_beta     90
_cell_angle_gamma    90

_symmetry_space_group_name_H-M    P 1
_symmetry_int_tables_number       1

loop_
  _symmetry_equiv_pos_as_xyz
  'x, y, z'

loop_
  _atom_site_label
  _atom_site_occupancy
  _atom_site_fract_x
  _atom_site_fract_y
  _atom_site_fract_z
  _atom_site_thermal_displace_type
  _atom_site_B_iso_or_equiv
  _atom_site_type_symbol
  Nd1      1.0000 0.75000  0.71430  0.06014  Biso   1.000  Nd
  Nd2      1.0000 0.25000  0.78570  0.56014  Biso   1.000  Nd
  Nd3      1.0000 0.25000  0.28570  0.93986  Biso   1.000  Nd
  Nd4      1.0000 0.75000  0.21430  0.43986  Biso   1.000  Nd
  U1       1.0000 0.75000  0.75393  0.34056  Biso   1.000  U
  U2       1.0000 0.25000  0.74607  0.84056  Biso   1.000  U
  U3       1.0000 0.25000  0.24607  0.65944  Biso   1.000  U
  U4       1.0000 0.75000  0.25393  0.15944  Biso   1.000  U
  U5       1.0000 0.00000  0.00000  0.00000  Biso   1.000  U
  U6       1.0000 0.00000  0.50000  0.50000  Biso   1.000  U
  U7       1.0000 0.50000  0.00000  0.00000  Biso   1.000  U
  U8       1.0000 0.50000  0.50000  0.50000  Biso   1.000  U
  C1       1.0000 0.87050  0.76950  0.71700  Biso   1.000  C
  C2       1.0000 0.00120  0.76620  0.71710  Biso   1.000  C
  C3       1.0000 0.81010  0.80940  0.79530  Biso   1.000  C
  C4       1.0000 0.87300  0.85440  0.88110  Biso   1.000  C
  C5       1.0000 0.87480  0.67320  0.56360  Biso   1.000  C
  C6       1.0000 0.80980  0.72860  0.63830  Biso   1.000  C
  C7       1.0000 0.12950  0.73050  0.21700  Biso   1.000  C
  C8       1.0000 0.99880  0.73380  0.21710  Biso   1.000  C
  C9       1.0000 0.18990  0.69060  0.29530  Biso   1.000  C
  C10      1.0000 0.12700  0.64560  0.38110  Biso   1.000  C
  C11      1.0000 0.12520  0.82680  0.06360  Biso   1.000  C
  C12      1.0000 0.19020  0.77140  0.13830  Biso   1.000  C
  C13      1.0000 0.37050  0.23050  0.28300  Biso   1.000  C
  C14      1.0000 0.50120  0.23380  0.28290  Biso   1.000  C
  C15      1.0000 0.31010  0.19060  0.20470  Biso   1.000  C
  C16      1.0000 0.37300  0.14560  0.11890  Biso   1.000  C
  C17      1.0000 0.37480  0.32680  0.43640  Biso   1.000  C
  C18      1.0000 0.30980  0.27140  0.36170  Biso   1.000  C
  C19      1.0000 0.62950  0.26950  0.78300  Biso   1.000  C
  C20      1.0000 0.49880  0.26620  0.78290  Biso   1.000  C
  C21      1.0000 0.68990  0.30940  0.70470  Biso   1.000  C
  C22      1.0000 0.62700  0.35440  0.61890  Biso   1.000  C
  C23      1.0000 0.62520  0.17320  0.93640  Biso   1.000  C
  C24      1.0000 0.69020  0.22860  0.86170  Biso   1.000  C
  C25      1.0000 0.12950  0.23050  0.28300  Biso   1.000  C
  C26      1.0000 0.99880  0.23380  0.28290  Biso   1.000  C
  C27      1.0000 0.18990  0.19060  0.20470  Biso   1.000  C
  C28      1.0000 0.12700  0.14560  0.11890  Biso   1.000  C
  C29      1.0000 0.12520  0.32680  0.43640  Biso   1.000  C
  C30      1.0000 0.19020  0.27140  0.36170  Biso   1.000  C
  C31      1.0000 0.87050  0.26950  0.78300  Biso   1.000  C
  C32      1.0000 0.00120  0.26620  0.78290  Biso   1.000  C
  C33      1.0000 0.81010  0.30940  0.70470  Biso   1.000  C
  C34      1.0000 0.87300  0.35440  0.61890  Biso   1.000  C
  C35      1.0000 0.87480  0.17320  0.93640  Biso   1.000  C
  C36      1.0000 0.80980  0.22860  0.86170  Biso   1.000  C
  C37      1.0000 0.62950  0.76950  0.71700  Biso   1.000  C
  C38      1.0000 0.49880  0.76620  0.71710  Biso   1.000  C
  C39      1.0000 0.68990  0.80940  0.79530  Biso   1.000  C
  C40      1.0000 0.62700  0.85440  0.88110  Biso   1.000  C
  C41      1.0000 0.62520  0.67320  0.56360  Biso   1.000  C
  C42      1.0000 0.69020  0.72860  0.63830  Biso   1.000  C
  C43      1.0000 0.37050  0.73050  0.21700  Biso   1.000  C
  C44      1.0000 0.50120  0.73380  0.21710  Biso   1.000  C
  C45      1.0000 0.31010  0.69060  0.29530  Biso   1.000  C
  C46      1.0000 0.37300  0.64560  0.38110  Biso   1.000  C
  C47      1.0000 0.37480  0.82680  0.06360  Biso   1.000  C
  C48      1.0000 0.30980  0.77140  0.13830  Biso   1.000  C
  O1       1.0000 0.92610  0.92240  0.85780  Biso   1.000  O
  O2       1.0000 0.86950  0.82510  0.96900  Biso   1.000  O
  O3       1.0000 0.87060  0.99510  0.07010  Biso   1.000  O
  O4       1.0000 0.93030  0.61280  0.60370  Biso   1.000  O
  O5       1.0000 0.86820  0.68540  0.46990  Biso   1.000  O
  O6       1.0000 0.88330  0.64670  0.93080  Biso   1.000  O
  O7       1.0000 0.04700  0.73800  0.79860  Biso   1.000  O
  O8       1.0000 0.05210  0.79110  0.63880  Biso   1.000  O
  O9       1.0000 0.07390  0.57760  0.35780  Biso   1.000  O
  O10      1.0000 0.13050  0.67490  0.46900  Biso   1.000  O
  O11      1.0000 0.12940  0.50490  0.57010  Biso   1.000  O
  O12      1.0000 0.06970  0.88720  0.10370  Biso   1.000  O
  O13      1.0000 0.13180  0.81460  0.96990  Biso   1.000  O
  O14      1.0000 0.11670  0.85330  0.43080  Biso   1.000  O
  O15      1.0000 0.95300  0.76200  0.29860  Biso   1.000  O
  O16      1.0000 0.94790  0.70890  0.13880  Biso   1.000  O
  O17      1.0000 0.42610  0.07760  0.14220  Biso   1.000  O
  O18      1.0000 0.36950  0.17490  0.03100  Biso   1.000  O
  O19      1.0000 0.37060  0.00490  0.92990  Biso   1.000  O
  O20      1.0000 0.43030  0.38720  0.39630  Biso   1.000  O
  O21      1.0000 0.36820  0.31460  0.53010  Biso   1.000  O
  O22      1.0000 0.38330  0.35330  0.06920  Biso   1.000  O
  O23      1.0000 0.54700  0.26200  0.20140  Biso   1.000  O
  O24      1.0000 0.55210  0.20890  0.36120  Biso   1.000  O
  O25      1.0000 0.57390  0.42240  0.64220  Biso   1.000  O
  O26      1.0000 0.63050  0.32510  0.53100  Biso   1.000  O
  O27      1.0000 0.62940  0.49510  0.42990  Biso   1.000  O
  O28      1.0000 0.56970  0.11280  0.89630  Biso   1.000  O
  O29      1.0000 0.63180  0.18540  0.03010  Biso   1.000  O
  O30      1.0000 0.61670  0.14670  0.56920  Biso   1.000  O
  O31      1.0000 0.45300  0.23800  0.70140  Biso   1.000  O
  O32      1.0000 0.44790  0.29110  0.86120  Biso   1.000  O
  O33      1.0000 0.07390  0.07760  0.14220  Biso   1.000  O
  O34      1.0000 0.13050  0.17490  0.03100  Biso   1.000  O
  O35      1.0000 0.12940  0.00490  0.92990  Biso   1.000  O
  O36      1.0000 0.06970  0.38720  0.39630  Biso   1.000  O
  O37      1.0000 0.13180  0.31460  0.53010  Biso   1.000  O
  O38      1.0000 0.11670  0.35330  0.06920  Biso   1.000  O
  O39      1.0000 0.95300  0.26200  0.20140  Biso   1.000  O
  O40      1.0000 0.94790  0.20890  0.36120  Biso   1.000  O
  O41      1.0000 0.92610  0.42240  0.64220  Biso   1.000  O
  O42      1.0000 0.86950  0.32510  0.53100  Biso   1.000  O
  O43      1.0000 0.87060  0.49510  0.42990  Biso   1.000  O
  O44      1.0000 0.93030  0.11280  0.89630  Biso   1.000  O
  O45      1.0000 0.86820  0.18540  0.03010  Biso   1.000  O
  O46      1.0000 0.88330  0.14670  0.56920  Biso   1.000  O
  O47      1.0000 0.04700  0.23800  0.70140  Biso   1.000  O
  O48      1.0000 0.05210  0.29110  0.86120  Biso   1.000  O
  O49      1.0000 0.57390  0.92240  0.85780  Biso   1.000  O
  O50      1.0000 0.63050  0.82510  0.96900  Biso   1.000  O
  O51      1.0000 0.62940  0.99510  0.07010  Biso   1.000  O
  O52      1.0000 0.56970  0.61280  0.60370  Biso   1.000  O
  O53      1.0000 0.63180  0.68540  0.46990  Biso   1.000  O
  O54      1.0000 0.61670  0.64670  0.93080  Biso   1.000  O
  O55      1.0000 0.45300  0.73800  0.79860  Biso   1.000  O
  O56      1.0000 0.44790  0.79110  0.63880  Biso   1.000  O
  O57      1.0000 0.42610  0.57760  0.35780  Biso   1.000  O
  O58      1.0000 0.36950  0.67490  0.46900  Biso   1.000  O
  O59      1.0000 0.37060  0.50490  0.57010  Biso   1.000  O
  O60      1.0000 0.43030  0.88720  0.10370  Biso   1.000  O
  O61      1.0000 0.36820  0.81460  0.96990  Biso   1.000  O
  O62      1.0000 0.38330  0.85330  0.43080  Biso   1.000  O
  O63      1.0000 0.54700  0.76200  0.29860  Biso   1.000  O
  O64      1.0000 0.55210  0.70890  0.13880  Biso   1.000  O
  O65      1.0000 0.75000  0.65970  0.26370  Biso   1.000  O
  O66      1.0000 0.75000  0.82260  0.18840  Biso   1.000  O
  O67      1.0000 0.75000  0.55720  0.08380  Biso   1.000  O
  O68      1.0000 0.75000  0.84900  0.41200  Biso   1.000  O
  O69      1.0000 0.25000  0.84030  0.76370  Biso   1.000  O
  O70      1.0000 0.25000  0.67740  0.68840  Biso   1.000  O
  O71      1.0000 0.25000  0.94280  0.58380  Biso   1.000  O
  O72      1.0000 0.25000  0.65100  0.91200  Biso   1.000  O
  O73      1.0000 0.25000  0.34030  0.73630  Biso   1.000  O
  O74      1.0000 0.25000  0.17740  0.81160  Biso   1.000  O
  O75      1.0000 0.25000  0.44280  0.91620  Biso   1.000  O
  O76      1.0000 0.25000  0.15100  0.58800  Biso   1.000  O
  O77      1.0000 0.75000  0.15970  0.23630  Biso   1.000  O
  O78      1.0000 0.75000  0.32260  0.31160  Biso   1.000  O
  O79      1.0000 0.75000  0.05720  0.41620  Biso   1.000  O
  O80      1.0000 0.75000  0.34900  0.08800  Biso   1.000  O
