data_image0
_cell_length_a       12.3215
_cell_length_b       30.711
_cell_length_c       22.7224
_cell_angle_alpha    90
_cell_angle_beta     94.229
_cell_angle_gamma    90

_symmetry_space_group_name_H-M    "P 1"
_symmetry_int_tables_number       1

loop_
  _symmetry_equiv_pos_as_xyz
  'x, y, z'

loop_
  _atom_site_label
  _atom_site_occupancy
  _atom_site_fract_x
  _atom_site_fract_y
  _atom_site_fract_z
  _atom_site_thermal_displace_type
  _atom_site_B_iso_or_equiv
  _atom_site_type_symbol
  Zn1      1.0000 0.74016  0.91717  0.66102  Biso   1.000  Zn
  Zn2      1.0000 0.80535  0.63082  0.48792  Biso   1.000  Zn
  O1       1.0000 0.44770  0.10650  0.47561  Biso   1.000  O
  O2       1.0000 0.40140  0.09769  0.38137  Biso   1.000  O
  O3       1.0000 0.67480  0.08083  0.23754  Biso   1.000  O
  O4       1.0000 0.84170  0.07690  0.26643  Biso   1.000  O
  O5       1.0000 0.17420  0.09824  0.49172  Biso   1.000  O
  O6       1.0000 0.22340  0.06107  0.57188  Biso   1.000  O
  O7       1.0000 0.94490  0.96293  0.65541  Biso   1.000  O
  O8       1.0000 0.77430  0.97000  0.62153  Biso   1.000  O
  O9       1.0000 0.82080  0.86344  0.65315  Biso   1.000  O
  O10      1.0000 0.74300  0.82754  0.57606  Biso   1.000  O
  O11      1.0000 0.82800  0.67482  0.54896  Biso   1.000  O
  O12      1.0000 0.93000  0.63838  0.61442  Biso   1.000  O
  C1       1.0000 0.47070  0.09827  0.42388  Biso   1.000  C
  C2       1.0000 0.58480  0.08911  0.41131  Biso   1.000  C
  C3       1.0000 0.66460  0.08117  0.45614  Biso   1.000  C
  H1       1.0000 0.64700  0.08290  0.49520  Biso   1.000  H
  C4       1.0000 0.77130  0.07058  0.44395  Biso   1.000  C
  C5       1.0000 0.79570  0.07015  0.38570  Biso   1.000  C
  H2       1.0000 0.86670  0.06420  0.37680  Biso   1.000  H
  C6       1.0000 0.71760  0.07829  0.34022  Biso   1.000  C
  C7       1.0000 0.61220  0.08742  0.35279  Biso   1.000  C
  H3       1.0000 0.55930  0.09250  0.32220  Biso   1.000  H
  C8       1.0000 0.74840  0.07770  0.27720  Biso   1.000  C
  C9       1.0000 0.85360  0.05767  0.49202  Biso   1.000  C
  C10      1.0000 0.82540  0.02917  0.53570  Biso   1.000  C
  H4       1.0000 0.75380  0.01980  0.53650  Biso   1.000  H
  C11      1.0000 0.90350  0.01454  0.57828  Biso   1.000  C
  C12      1.0000 0.87390  0.98005  0.62243  Biso   1.000  C
  C13      1.0000 0.00930  0.02876  0.57787  Biso   1.000  C
  H5       1.0000 0.06110  0.01910  0.60680  Biso   1.000  H
  C14      1.0000 0.03990  0.05755  0.53462  Biso   1.000  C
  C15      1.0000 0.96090  0.07168  0.49139  Biso   1.000  C
  H6       1.0000 0.98030  0.09060  0.46200  Biso   1.000  H
  C16      1.0000 0.15500  0.07303  0.53310  Biso   1.000  C
  C17      1.0000 0.80270  0.82992  0.62321  Biso   1.000  C
  C18      1.0000 0.85390  0.78835  0.64536  Biso   1.000  C
  C19      1.0000 0.91570  0.78774  0.70020  Biso   1.000  C
  H7       1.0000 0.92210  0.81300  0.72270  Biso   1.000  H
  C20      1.0000 0.96680  0.75017  0.72087  Biso   1.000  C
  C21      1.0000 0.95500  0.71275  0.68722  Biso   1.000  C
  H8       1.0000 0.98850  0.68720  0.70080  Biso   1.000  H
  C22      1.0000 0.89350  0.71278  0.63316  Biso   1.000  C
  C23      1.0000 0.84400  0.75038  0.61316  Biso   1.000  C
  H9       1.0000 0.80280  0.75030  0.57720  Biso   1.000  H
  C24      1.0000 0.88320  0.67132  0.59678  Biso   1.000  C
  Zn3      1.0000 0.24016  0.41717  0.66102  Biso   1.000  Zn
  Zn4      1.0000 0.30535  0.13082  0.48792  Biso   1.000  Zn
  O13      1.0000 0.94770  0.60650  0.47561  Biso   1.000  O
  O14      1.0000 0.90140  0.59769  0.38137  Biso   1.000  O
  O15      1.0000 0.17480  0.58083  0.23754  Biso   1.000  O
  O16      1.0000 0.34170  0.57690  0.26643  Biso   1.000  O
  O17      1.0000 0.67420  0.59824  0.49172  Biso   1.000  O
  O18      1.0000 0.72340  0.56107  0.57188  Biso   1.000  O
  O19      1.0000 0.44490  0.46293  0.65541  Biso   1.000  O
  O20      1.0000 0.27430  0.47000  0.62153  Biso   1.000  O
  O21      1.0000 0.32080  0.36344  0.65315  Biso   1.000  O
  O22      1.0000 0.24300  0.32754  0.57606  Biso   1.000  O
  O23      1.0000 0.32800  0.17482  0.54896  Biso   1.000  O
  O24      1.0000 0.43000  0.13838  0.61442  Biso   1.000  O
  C25      1.0000 0.97070  0.59827  0.42388  Biso   1.000  C
  C26      1.0000 0.08480  0.58911  0.41131  Biso   1.000  C
  C27      1.0000 0.16460  0.58117  0.45614  Biso   1.000  C
  H10      1.0000 0.14700  0.58290  0.49520  Biso   1.000  H
  C28      1.0000 0.27130  0.57058  0.44395  Biso   1.000  C
  C29      1.0000 0.29570  0.57015  0.38570  Biso   1.000  C
  H11      1.0000 0.36670  0.56420  0.37680  Biso   1.000  H
  C30      1.0000 0.21760  0.57829  0.34022  Biso   1.000  C
  C31      1.0000 0.11220  0.58742  0.35279  Biso   1.000  C
  H12      1.0000 0.05930  0.59250  0.32220  Biso   1.000  H
  C32      1.0000 0.24840  0.57770  0.27720  Biso   1.000  C
  C33      1.0000 0.35360  0.55767  0.49202  Biso   1.000  C
  C34      1.0000 0.32540  0.52917  0.53570  Biso   1.000  C
  H13      1.0000 0.25380  0.51980  0.53650  Biso   1.000  H
  C35      1.0000 0.40350  0.51454  0.57828  Biso   1.000  C
  C36      1.0000 0.37390  0.48005  0.62243  Biso   1.000  C
  C37      1.0000 0.50930  0.52876  0.57787  Biso   1.000  C
  H14      1.0000 0.56110  0.51910  0.60680  Biso   1.000  H
  C38      1.0000 0.53990  0.55755  0.53462  Biso   1.000  C
  C39      1.0000 0.46090  0.57168  0.49139  Biso   1.000  C
  H15      1.0000 0.48030  0.59060  0.46200  Biso   1.000  H
  C40      1.0000 0.65500  0.57303  0.53310  Biso   1.000  C
  C41      1.0000 0.30270  0.32992  0.62321  Biso   1.000  C
  C42      1.0000 0.35390  0.28835  0.64536  Biso   1.000  C
  C43      1.0000 0.41570  0.28774  0.70020  Biso   1.000  C
  H16      1.0000 0.42210  0.31300  0.72270  Biso   1.000  H
  C44      1.0000 0.46680  0.25017  0.72087  Biso   1.000  C
  C45      1.0000 0.45500  0.21275  0.68722  Biso   1.000  C
  H17      1.0000 0.48850  0.18720  0.70080  Biso   1.000  H
  C46      1.0000 0.39350  0.21278  0.63316  Biso   1.000  C
  C47      1.0000 0.34400  0.25038  0.61316  Biso   1.000  C
  H18      1.0000 0.30280  0.25030  0.57720  Biso   1.000  H
  C48      1.0000 0.38320  0.17132  0.59678  Biso   1.000  C
  Zn5      1.0000 0.25984  0.91717  0.83898  Biso   1.000  Zn
  Zn6      1.0000 0.19465  0.63082  0.01208  Biso   1.000  Zn
  O25      1.0000 0.55230  0.10650  0.02439  Biso   1.000  O
  O26      1.0000 0.59860  0.09769  0.11863  Biso   1.000  O
  O27      1.0000 0.32520  0.08083  0.26246  Biso   1.000  O
  O28      1.0000 0.15830  0.07690  0.23357  Biso   1.000  O
  O29      1.0000 0.82580  0.09824  0.00828  Biso   1.000  O
  O30      1.0000 0.77660  0.06107  0.92812  Biso   1.000  O
  O31      1.0000 0.05510  0.96293  0.84459  Biso   1.000  O
  O32      1.0000 0.22570  0.97000  0.87847  Biso   1.000  O
  O33      1.0000 0.17920  0.86344  0.84685  Biso   1.000  O
  O34      1.0000 0.25700  0.82754  0.92394  Biso   1.000  O
  O35      1.0000 0.17200  0.67482  0.95104  Biso   1.000  O
  O36      1.0000 0.07000  0.63838  0.88558  Biso   1.000  O
  C49      1.0000 0.52930  0.09827  0.07612  Biso   1.000  C
  C50      1.0000 0.41520  0.08911  0.08869  Biso   1.000  C
  C51      1.0000 0.33540  0.08117  0.04386  Biso   1.000  C
  H19      1.0000 0.35300  0.08290  0.00480  Biso   1.000  H
  C52      1.0000 0.22870  0.07058  0.05605  Biso   1.000  C
  C53      1.0000 0.20430  0.07015  0.11430  Biso   1.000  C
  H20      1.0000 0.13330  0.06420  0.12320  Biso   1.000  H
  C54      1.0000 0.28240  0.07829  0.15978  Biso   1.000  C
  C55      1.0000 0.38780  0.08742  0.14721  Biso   1.000  C
  H21      1.0000 0.44070  0.09250  0.17780  Biso   1.000  H
  C56      1.0000 0.25160  0.07770  0.22280  Biso   1.000  C
  C57      1.0000 0.14640  0.05767  0.00798  Biso   1.000  C
  C58      1.0000 0.17460  0.02917  0.96430  Biso   1.000  C
  H22      1.0000 0.24620  0.01980  0.96350  Biso   1.000  H
  C59      1.0000 0.09650  0.01454  0.92172  Biso   1.000  C
  C60      1.0000 0.12610  0.98005  0.87757  Biso   1.000  C
  C61      1.0000 0.99070  0.02876  0.92213  Biso   1.000  C
  H23      1.0000 0.93890  0.01910  0.89320  Biso   1.000  H
  C62      1.0000 0.96010  0.05755  0.96538  Biso   1.000  C
  C63      1.0000 0.03910  0.07168  0.00861  Biso   1.000  C
  H24      1.0000 0.01970  0.09060  0.03800  Biso   1.000  H
  C64      1.0000 0.84500  0.07303  0.96690  Biso   1.000  C
  C65      1.0000 0.19730  0.82992  0.87679  Biso   1.000  C
  C66      1.0000 0.14610  0.78835  0.85464  Biso   1.000  C
  C67      1.0000 0.08430  0.78774  0.79980  Biso   1.000  C
  H25      1.0000 0.07790  0.81300  0.77730  Biso   1.000  H
  C68      1.0000 0.03320  0.75017  0.77913  Biso   1.000  C
  C69      1.0000 0.04500  0.71275  0.81278  Biso   1.000  C
  H26      1.0000 0.01150  0.68720  0.79920  Biso   1.000  H
  C70      1.0000 0.10650  0.71278  0.86684  Biso   1.000  C
  C71      1.0000 0.15600  0.75038  0.88684  Biso   1.000  C
  H27      1.0000 0.19720  0.75030  0.92280  Biso   1.000  H
  C72      1.0000 0.11680  0.67132  0.90322  Biso   1.000  C
  Zn7      1.0000 0.75984  0.41717  0.83898  Biso   1.000  Zn
  Zn8      1.0000 0.69465  0.13082  0.01208  Biso   1.000  Zn
  O37      1.0000 0.05230  0.60650  0.02439  Biso   1.000  O
  O38      1.0000 0.09860  0.59769  0.11863  Biso   1.000  O
  O39      1.0000 0.82520  0.58083  0.26246  Biso   1.000  O
  O40      1.0000 0.65830  0.57690  0.23357  Biso   1.000  O
  O41      1.0000 0.32580  0.59824  0.00828  Biso   1.000  O
  O42      1.0000 0.27660  0.56107  0.92812  Biso   1.000  O
  O43      1.0000 0.55510  0.46293  0.84459  Biso   1.000  O
  O44      1.0000 0.72570  0.47000  0.87847  Biso   1.000  O
  O45      1.0000 0.67920  0.36344  0.84685  Biso   1.000  O
  O46      1.0000 0.75700  0.32754  0.92394  Biso   1.000  O
  O47      1.0000 0.67200  0.17482  0.95104  Biso   1.000  O
  O48      1.0000 0.57000  0.13838  0.88558  Biso   1.000  O
  C73      1.0000 0.02930  0.59827  0.07612  Biso   1.000  C
  C74      1.0000 0.91520  0.58911  0.08869  Biso   1.000  C
  C75      1.0000 0.83540  0.58117  0.04386  Biso   1.000  C
  H28      1.0000 0.85300  0.58290  0.00480  Biso   1.000  H
  C76      1.0000 0.72870  0.57058  0.05605  Biso   1.000  C
  C77      1.0000 0.70430  0.57015  0.11430  Biso   1.000  C
  H29      1.0000 0.63330  0.56420  0.12320  Biso   1.000  H
  C78      1.0000 0.78240  0.57829  0.15978  Biso   1.000  C
  C79      1.0000 0.88780  0.58742  0.14721  Biso   1.000  C
  H30      1.0000 0.94070  0.59250  0.17780  Biso   1.000  H
  C80      1.0000 0.75160  0.57770  0.22280  Biso   1.000  C
  C81      1.0000 0.64640  0.55767  0.00798  Biso   1.000  C
  C82      1.0000 0.67460  0.52917  0.96430  Biso   1.000  C
  H31      1.0000 0.74620  0.51980  0.96350  Biso   1.000  H
  C83      1.0000 0.59650  0.51454  0.92172  Biso   1.000  C
  C84      1.0000 0.62610  0.48005  0.87757  Biso   1.000  C
  C85      1.0000 0.49070  0.52876  0.92213  Biso   1.000  C
  H32      1.0000 0.43890  0.51910  0.89320  Biso   1.000  H
  C86      1.0000 0.46010  0.55755  0.96538  Biso   1.000  C
  C87      1.0000 0.53910  0.57168  0.00861  Biso   1.000  C
  H33      1.0000 0.51970  0.59060  0.03800  Biso   1.000  H
  C88      1.0000 0.34500  0.57303  0.96690  Biso   1.000  C
  C89      1.0000 0.69730  0.32992  0.87679  Biso   1.000  C
  C90      1.0000 0.64610  0.28835  0.85464  Biso   1.000  C
  C91      1.0000 0.58430  0.28774  0.79980  Biso   1.000  C
  H34      1.0000 0.57790  0.31300  0.77730  Biso   1.000  H
  C92      1.0000 0.53320  0.25017  0.77913  Biso   1.000  C
  C93      1.0000 0.54500  0.21275  0.81278  Biso   1.000  C
  H35      1.0000 0.51150  0.18720  0.79920  Biso   1.000  H
  C94      1.0000 0.60650  0.21278  0.86684  Biso   1.000  C
  C95      1.0000 0.65600  0.25038  0.88684  Biso   1.000  C
  H36      1.0000 0.69720  0.25030  0.92280  Biso   1.000  H
  C96      1.0000 0.61680  0.17132  0.90322  Biso   1.000  C
  Zn9      1.0000 0.25984  0.08283  0.33898  Biso   1.000  Zn
  Zn10     1.0000 0.19465  0.36918  0.51208  Biso   1.000  Zn
  O49      1.0000 0.55230  0.89350  0.52439  Biso   1.000  O
  O50      1.0000 0.59860  0.90231  0.61863  Biso   1.000  O
  O51      1.0000 0.32520  0.91917  0.76246  Biso   1.000  O
  O52      1.0000 0.15830  0.92310  0.73357  Biso   1.000  O
  O53      1.0000 0.82580  0.90176  0.50828  Biso   1.000  O
  O54      1.0000 0.77660  0.93893  0.42812  Biso   1.000  O
  O55      1.0000 0.05510  0.03707  0.34459  Biso   1.000  O
  O56      1.0000 0.22570  0.03000  0.37847  Biso   1.000  O
  O57      1.0000 0.17920  0.13656  0.34685  Biso   1.000  O
  O58      1.0000 0.25700  0.17246  0.42394  Biso   1.000  O
  O59      1.0000 0.17200  0.32518  0.45104  Biso   1.000  O
  O60      1.0000 0.07000  0.36162  0.38558  Biso   1.000  O
  C97      1.0000 0.52930  0.90173  0.57612  Biso   1.000  C
  C98      1.0000 0.41520  0.91089  0.58869  Biso   1.000  C
  C99      1.0000 0.33540  0.91883  0.54386  Biso   1.000  C
  H37      1.0000 0.35300  0.91710  0.50480  Biso   1.000  H
  C100     1.0000 0.22870  0.92942  0.55605  Biso   1.000  C
  C101     1.0000 0.20430  0.92985  0.61430  Biso   1.000  C
  H38      1.0000 0.13330  0.93580  0.62320  Biso   1.000  H
  C102     1.0000 0.28240  0.92171  0.65978  Biso   1.000  C
  C103     1.0000 0.38780  0.91258  0.64721  Biso   1.000  C
  H39      1.0000 0.44070  0.90750  0.67780  Biso   1.000  H
  C104     1.0000 0.25160  0.92230  0.72280  Biso   1.000  C
  C105     1.0000 0.14640  0.94233  0.50798  Biso   1.000  C
  C106     1.0000 0.17460  0.97083  0.46430  Biso   1.000  C
  H40      1.0000 0.24620  0.98020  0.46350  Biso   1.000  H
  C107     1.0000 0.09650  0.98546  0.42172  Biso   1.000  C
  C108     1.0000 0.12610  0.01995  0.37757  Biso   1.000  C
  C109     1.0000 0.99070  0.97124  0.42213  Biso   1.000  C
  H41      1.0000 0.93890  0.98090  0.39320  Biso   1.000  H
  C110     1.0000 0.96010  0.94245  0.46538  Biso   1.000  C
  C111     1.0000 0.03910  0.92832  0.50861  Biso   1.000  C
  H42      1.0000 0.01970  0.90940  0.53800  Biso   1.000  H
  C112     1.0000 0.84500  0.92697  0.46690  Biso   1.000  C
  C113     1.0000 0.19730  0.17008  0.37679  Biso   1.000  C
  C114     1.0000 0.14610  0.21165  0.35464  Biso   1.000  C
  C115     1.0000 0.08430  0.21226  0.29980  Biso   1.000  C
  H43      1.0000 0.07790  0.18700  0.27730  Biso   1.000  H
  C116     1.0000 0.03320  0.24983  0.27913  Biso   1.000  C
  C117     1.0000 0.04500  0.28725  0.31278  Biso   1.000  C
  H44      1.0000 0.01150  0.31280  0.29920  Biso   1.000  H
  C118     1.0000 0.10650  0.28722  0.36684  Biso   1.000  C
  C119     1.0000 0.15600  0.24962  0.38684  Biso   1.000  C
  H45      1.0000 0.19720  0.24970  0.42280  Biso   1.000  H
  C120     1.0000 0.11680  0.32868  0.40322  Biso   1.000  C
  Zn11     1.0000 0.75984  0.58283  0.33898  Biso   1.000  Zn
  Zn12     1.0000 0.69465  0.86918  0.51208  Biso   1.000  Zn
  O61      1.0000 0.05230  0.39350  0.52439  Biso   1.000  O
  O62      1.0000 0.09860  0.40231  0.61863  Biso   1.000  O
  O63      1.0000 0.82520  0.41917  0.76246  Biso   1.000  O
  O64      1.0000 0.65830  0.42310  0.73357  Biso   1.000  O
  O65      1.0000 0.32580  0.40176  0.50828  Biso   1.000  O
  O66      1.0000 0.27660  0.43893  0.42812  Biso   1.000  O
  O67      1.0000 0.55510  0.53707  0.34459  Biso   1.000  O
  O68      1.0000 0.72570  0.53000  0.37847  Biso   1.000  O
  O69      1.0000 0.67920  0.63656  0.34685  Biso   1.000  O
  O70      1.0000 0.75700  0.67246  0.42394  Biso   1.000  O
  O71      1.0000 0.67200  0.82518  0.45104  Biso   1.000  O
  O72      1.0000 0.57000  0.86162  0.38558  Biso   1.000  O
  C121     1.0000 0.02930  0.40173  0.57612  Biso   1.000  C
  C122     1.0000 0.91520  0.41089  0.58869  Biso   1.000  C
  C123     1.0000 0.83540  0.41883  0.54386  Biso   1.000  C
  H46      1.0000 0.85300  0.41710  0.50480  Biso   1.000  H
  C124     1.0000 0.72870  0.42942  0.55605  Biso   1.000  C
  C125     1.0000 0.70430  0.42985  0.61430  Biso   1.000  C
  H47      1.0000 0.63330  0.43580  0.62320  Biso   1.000  H
  C126     1.0000 0.78240  0.42171  0.65978  Biso   1.000  C
  C127     1.0000 0.88780  0.41258  0.64721  Biso   1.000  C
  H48      1.0000 0.94070  0.40750  0.67780  Biso   1.000  H
  C128     1.0000 0.75160  0.42230  0.72280  Biso   1.000  C
  C129     1.0000 0.64640  0.44233  0.50798  Biso   1.000  C
  C130     1.0000 0.67460  0.47083  0.46430  Biso   1.000  C
  H49      1.0000 0.74620  0.48020  0.46350  Biso   1.000  H
  C131     1.0000 0.59650  0.48546  0.42172  Biso   1.000  C
  C132     1.0000 0.62610  0.51995  0.37757  Biso   1.000  C
  C133     1.0000 0.49070  0.47124  0.42213  Biso   1.000  C
  H50      1.0000 0.43890  0.48090  0.39320  Biso   1.000  H
  C134     1.0000 0.46010  0.44245  0.46538  Biso   1.000  C
  C135     1.0000 0.53910  0.42832  0.50861  Biso   1.000  C
  H51      1.0000 0.51970  0.40940  0.53800  Biso   1.000  H
  C136     1.0000 0.34500  0.42697  0.46690  Biso   1.000  C
  C137     1.0000 0.69730  0.67008  0.37679  Biso   1.000  C
  C138     1.0000 0.64610  0.71165  0.35464  Biso   1.000  C
  C139     1.0000 0.58430  0.71226  0.29980  Biso   1.000  C
  H52      1.0000 0.57790  0.68700  0.27730  Biso   1.000  H
  C140     1.0000 0.53320  0.74983  0.27913  Biso   1.000  C
  C141     1.0000 0.54500  0.78725  0.31278  Biso   1.000  C
  H53      1.0000 0.51150  0.81280  0.29920  Biso   1.000  H
  C142     1.0000 0.60650  0.78722  0.36684  Biso   1.000  C
  C143     1.0000 0.65600  0.74962  0.38684  Biso   1.000  C
  H54      1.0000 0.69720  0.74970  0.42280  Biso   1.000  H
  C144     1.0000 0.61680  0.82868  0.40322  Biso   1.000  C
  Zn13     1.0000 0.74016  0.08283  0.16102  Biso   1.000  Zn
  Zn14     1.0000 0.80535  0.36918  0.98792  Biso   1.000  Zn
  O73      1.0000 0.44770  0.89350  0.97561  Biso   1.000  O
  O74      1.0000 0.40140  0.90231  0.88137  Biso   1.000  O
  O75      1.0000 0.67480  0.91917  0.73754  Biso   1.000  O
  O76      1.0000 0.84170  0.92310  0.76643  Biso   1.000  O
  O77      1.0000 0.17420  0.90176  0.99172  Biso   1.000  O
  O78      1.0000 0.22340  0.93893  0.07188  Biso   1.000  O
  O79      1.0000 0.94490  0.03707  0.15541  Biso   1.000  O
  O80      1.0000 0.77430  0.03000  0.12153  Biso   1.000  O
  O81      1.0000 0.82080  0.13656  0.15315  Biso   1.000  O
  O82      1.0000 0.74300  0.17246  0.07606  Biso   1.000  O
  O83      1.0000 0.82800  0.32518  0.04896  Biso   1.000  O
  O84      1.0000 0.93000  0.36162  0.11442  Biso   1.000  O
  C145     1.0000 0.47070  0.90173  0.92388  Biso   1.000  C
  C146     1.0000 0.58480  0.91089  0.91131  Biso   1.000  C
  C147     1.0000 0.66460  0.91883  0.95614  Biso   1.000  C
  H55      1.0000 0.64700  0.91710  0.99520  Biso   1.000  H
  C148     1.0000 0.77130  0.92942  0.94395  Biso   1.000  C
  C149     1.0000 0.79570  0.92985  0.88570  Biso   1.000  C
  H56      1.0000 0.86670  0.93580  0.87680  Biso   1.000  H
  C150     1.0000 0.71760  0.92171  0.84022  Biso   1.000  C
  C151     1.0000 0.61220  0.91258  0.85279  Biso   1.000  C
  H57      1.0000 0.55930  0.90750  0.82220  Biso   1.000  H
  C152     1.0000 0.74840  0.92230  0.77720  Biso   1.000  C
  C153     1.0000 0.85360  0.94233  0.99202  Biso   1.000  C
  C154     1.0000 0.82540  0.97083  0.03570  Biso   1.000  C
  H58      1.0000 0.75380  0.98020  0.03650  Biso   1.000  H
  C155     1.0000 0.90350  0.98546  0.07828  Biso   1.000  C
  C156     1.0000 0.87390  0.01995  0.12243  Biso   1.000  C
  C157     1.0000 0.00930  0.97124  0.07787  Biso   1.000  C
  H59      1.0000 0.06110  0.98090  0.10680  Biso   1.000  H
  C158     1.0000 0.03990  0.94245  0.03462  Biso   1.000  C
  C159     1.0000 0.96090  0.92832  0.99139  Biso   1.000  C
  H60      1.0000 0.98030  0.90940  0.96200  Biso   1.000  H
  C160     1.0000 0.15500  0.92697  0.03310  Biso   1.000  C
  C161     1.0000 0.80270  0.17008  0.12321  Biso   1.000  C
  C162     1.0000 0.85390  0.21165  0.14536  Biso   1.000  C
  C163     1.0000 0.91570  0.21226  0.20020  Biso   1.000  C
  H61      1.0000 0.92210  0.18700  0.22270  Biso   1.000  H
  C164     1.0000 0.96680  0.24983  0.22087  Biso   1.000  C
  C165     1.0000 0.95500  0.28725  0.18722  Biso   1.000  C
  H62      1.0000 0.98850  0.31280  0.20080  Biso   1.000  H
  C166     1.0000 0.89350  0.28722  0.13316  Biso   1.000  C
  C167     1.0000 0.84400  0.24962  0.11316  Biso   1.000  C
  H63      1.0000 0.80280  0.24970  0.07720  Biso   1.000  H
  C168     1.0000 0.88320  0.32868  0.09678  Biso   1.000  C
  Zn15     1.0000 0.24016  0.58283  0.16102  Biso   1.000  Zn
  Zn16     1.0000 0.30535  0.86918  0.98792  Biso   1.000  Zn
  O85      1.0000 0.94770  0.39350  0.97561  Biso   1.000  O
  O86      1.0000 0.90140  0.40231  0.88137  Biso   1.000  O
  O87      1.0000 0.17480  0.41917  0.73754  Biso   1.000  O
  O88      1.0000 0.34170  0.42310  0.76643  Biso   1.000  O
  O89      1.0000 0.67420  0.40176  0.99172  Biso   1.000  O
  O90      1.0000 0.72340  0.43893  0.07188  Biso   1.000  O
  O91      1.0000 0.44490  0.53707  0.15541  Biso   1.000  O
  O92      1.0000 0.27430  0.53000  0.12153  Biso   1.000  O
  O93      1.0000 0.32080  0.63656  0.15315  Biso   1.000  O
  O94      1.0000 0.24300  0.67246  0.07606  Biso   1.000  O
  O95      1.0000 0.32800  0.82518  0.04896  Biso   1.000  O
  O96      1.0000 0.43000  0.86162  0.11442  Biso   1.000  O
  C169     1.0000 0.97070  0.40173  0.92388  Biso   1.000  C
  C170     1.0000 0.08480  0.41089  0.91131  Biso   1.000  C
  C171     1.0000 0.16460  0.41883  0.95614  Biso   1.000  C
  H64      1.0000 0.14700  0.41710  0.99520  Biso   1.000  H
  C172     1.0000 0.27130  0.42942  0.94395  Biso   1.000  C
  C173     1.0000 0.29570  0.42985  0.88570  Biso   1.000  C
  H65      1.0000 0.36670  0.43580  0.87680  Biso   1.000  H
  C174     1.0000 0.21760  0.42171  0.84022  Biso   1.000  C
  C175     1.0000 0.11220  0.41258  0.85279  Biso   1.000  C
  H66      1.0000 0.05930  0.40750  0.82220  Biso   1.000  H
  C176     1.0000 0.24840  0.42230  0.77720  Biso   1.000  C
  C177     1.0000 0.35360  0.44233  0.99202  Biso   1.000  C
  C178     1.0000 0.32540  0.47083  0.03570  Biso   1.000  C
  H67      1.0000 0.25380  0.48020  0.03650  Biso   1.000  H
  C179     1.0000 0.40350  0.48546  0.07828  Biso   1.000  C
  C180     1.0000 0.37390  0.51995  0.12243  Biso   1.000  C
  C181     1.0000 0.50930  0.47124  0.07787  Biso   1.000  C
  H68      1.0000 0.56110  0.48090  0.10680  Biso   1.000  H
  C182     1.0000 0.53990  0.44245  0.03462  Biso   1.000  C
  C183     1.0000 0.46090  0.42832  0.99139  Biso   1.000  C
  H69      1.0000 0.48030  0.40940  0.96200  Biso   1.000  H
  C184     1.0000 0.65500  0.42697  0.03310  Biso   1.000  C
  C185     1.0000 0.30270  0.67008  0.12321  Biso   1.000  C
  C186     1.0000 0.35390  0.71165  0.14536  Biso   1.000  C
  C187     1.0000 0.41570  0.71226  0.20020  Biso   1.000  C
  H70      1.0000 0.42210  0.68700  0.22270  Biso   1.000  H
  C188     1.0000 0.46680  0.74983  0.22087  Biso   1.000  C
  C189     1.0000 0.45500  0.78725  0.18722  Biso   1.000  C
  H71      1.0000 0.48850  0.81280  0.20080  Biso   1.000  H
  C190     1.0000 0.39350  0.78722  0.13316  Biso   1.000  C
  C191     1.0000 0.34400  0.74962  0.11316  Biso   1.000  C
  H72      1.0000 0.30280  0.74970  0.07720  Biso   1.000  H
  C192     1.0000 0.38320  0.82868  0.09678  Biso   1.000  C
  Zn17     1.0000 0.00000  0.94840  0.75000  Biso   1.000  Zn
  Zn18     1.0000 0.50000  0.44840  0.75000  Biso   1.000  Zn
  Zn19     1.0000 0.00000  0.05160  0.25000  Biso   1.000  Zn
  Zn20     1.0000 0.50000  0.55160  0.25000  Biso   1.000  Zn
