data_image0
_cell_length_a       12.3937
_cell_length_b       17.2992
_cell_length_c       19.33
_cell_angle_alpha    90
_cell_angle_beta     90
_cell_angle_gamma    95.75

_symmetry_space_group_name_H-M    P 1
_symmetry_int_tables_number       1

loop_
  _symmetry_equiv_pos_as_xyz
  'x, y, z'

loop_
  _atom_site_label
  _atom_site_occupancy
  _atom_site_fract_x
  _atom_site_fract_y
  _atom_site_fract_z
  _atom_site_thermal_displace_type
  _atom_site_B_iso_or_equiv
  _atom_site_type_symbol
  Ag1      1.0000 0.21684  0.01669  0.30161  Biso   1.000  Ag
  Ag2      1.0000 0.25234  0.00409  0.45417  Biso   1.000  Ag
  Ag3      1.0000 0.74983  0.50669  0.49818  Biso   1.000  Ag
  Ag4      1.0000 0.28316  0.48331  0.80161  Biso   1.000  Ag
  Ag5      1.0000 0.24766  0.49591  0.95417  Biso   1.000  Ag
  Ag6      1.0000 0.75017  0.99331  0.99818  Biso   1.000  Ag
  Ag7      1.0000 0.78316  0.98331  0.69839  Biso   1.000  Ag
  Ag8      1.0000 0.74766  0.99591  0.54583  Biso   1.000  Ag
  Ag9      1.0000 0.25017  0.49331  0.50182  Biso   1.000  Ag
  Ag10     1.0000 0.71684  0.51669  0.19839  Biso   1.000  Ag
  Ag11     1.0000 0.75234  0.50409  0.04583  Biso   1.000  Ag
  Ag12     1.0000 0.24983  0.00669  0.00182  Biso   1.000  Ag
  Ag13     1.0000 0.50000  0.50000  0.50000  Biso   1.000  Ag
  Ag14     1.0000 0.00000  0.00000  0.00000  Biso   1.000  Ag
  Ag15     1.0000 0.00000  0.50000  0.50000  Biso   1.000  Ag
  Ag16     1.0000 0.50000  0.00000  0.00000  Biso   1.000  Ag
  H1       1.0000 0.44940  0.98300  0.27800  Biso   1.000  H
  H2       1.0000 0.55060  0.88260  0.25440  Biso   1.000  H
  H3       1.0000 0.29340  0.73100  0.30210  Biso   1.000  H
  H4       1.0000 0.19620  0.83560  0.32450  Biso   1.000  H
  H5       1.0000 0.63190  0.10300  0.47790  Biso   1.000  H
  H6       1.0000 0.60860  0.19720  0.56930  Biso   1.000  H
  H7       1.0000 0.76030  0.21860  0.48730  Biso   1.000  H
  H8       1.0000 0.72540  0.24960  0.37920  Biso   1.000  H
  H9       1.0000 0.53700  0.26160  0.34530  Biso   1.000  H
  H10      1.0000 0.59740  0.13360  0.36980  Biso   1.000  H
  H11      1.0000 0.46700  0.27950  0.54860  Biso   1.000  H
  H12      1.0000 0.43050  0.31030  0.43480  Biso   1.000  H
  H13      1.0000 0.43700  0.50800  0.62200  Biso   1.000  H
  H14      1.0000 0.53300  0.47400  0.62800  Biso   1.000  H
  H15      1.0000 0.90800  0.44200  0.60700  Biso   1.000  H
  H16      1.0000 0.94400  0.51700  0.62400  Biso   1.000  H
  H17      1.0000 0.74440  0.68620  0.24180  Biso   1.000  H
  H18      1.0000 0.64810  0.78720  0.27430  Biso   1.000  H
  H19      1.0000 0.36960  0.64930  0.24000  Biso   1.000  H
  H20      1.0000 0.47510  0.55050  0.20800  Biso   1.000  H
  H21      1.0000 0.86560  0.90670  0.46040  Biso   1.000  H
  H22      1.0000 0.87310  0.79430  0.38320  Biso   1.000  H
  H23      1.0000 0.73660  0.79460  0.47580  Biso   1.000  H
  H24      1.0000 0.78730  0.78080  0.58530  Biso   1.000  H
  H25      1.0000 0.98000  0.77540  0.60840  Biso   1.000  H
  H26      1.0000 0.92140  0.89790  0.56900  Biso   1.000  H
  H27      1.0000 0.01710  0.71650  0.40750  Biso   1.000  H
  H28      1.0000 0.07000  0.70590  0.52280  Biso   1.000  H
  H29      1.0000 0.05060  0.51700  0.77800  Biso   1.000  H
  H30      1.0000 0.94940  0.61740  0.75440  Biso   1.000  H
  H31      1.0000 0.20660  0.76900  0.80210  Biso   1.000  H
  H32      1.0000 0.30380  0.66440  0.82450  Biso   1.000  H
  H33      1.0000 0.86810  0.39700  0.97790  Biso   1.000  H
  H34      1.0000 0.89140  0.30280  0.06930  Biso   1.000  H
  H35      1.0000 0.73970  0.28140  0.98730  Biso   1.000  H
  H36      1.0000 0.77460  0.25040  0.87920  Biso   1.000  H
  H37      1.0000 0.96300  0.23840  0.84530  Biso   1.000  H
  H38      1.0000 0.90260  0.36640  0.86980  Biso   1.000  H
  H39      1.0000 0.03300  0.22050  0.04860  Biso   1.000  H
  H40      1.0000 0.06950  0.18970  0.93480  Biso   1.000  H
  H41      1.0000 0.06300  0.99200  0.12200  Biso   1.000  H
  H42      1.0000 0.96700  0.02600  0.12800  Biso   1.000  H
  H43      1.0000 0.59200  0.05800  0.10700  Biso   1.000  H
  H44      1.0000 0.55600  0.98300  0.12400  Biso   1.000  H
  H45      1.0000 0.75560  0.81380  0.74180  Biso   1.000  H
  H46      1.0000 0.85190  0.71280  0.77430  Biso   1.000  H
  H47      1.0000 0.13040  0.85070  0.74000  Biso   1.000  H
  H48      1.0000 0.02490  0.94950  0.70800  Biso   1.000  H
  H49      1.0000 0.63440  0.59330  0.96040  Biso   1.000  H
  H50      1.0000 0.62690  0.70570  0.88320  Biso   1.000  H
  H51      1.0000 0.76340  0.70540  0.97580  Biso   1.000  H
  H52      1.0000 0.71270  0.71920  0.08530  Biso   1.000  H
  H53      1.0000 0.52000  0.72460  0.10840  Biso   1.000  H
  H54      1.0000 0.57860  0.60210  0.06900  Biso   1.000  H
  H55      1.0000 0.48290  0.78350  0.90750  Biso   1.000  H
  H56      1.0000 0.43000  0.79410  0.02280  Biso   1.000  H
  H57      1.0000 0.55060  0.01700  0.72200  Biso   1.000  H
  H58      1.0000 0.44940  0.11740  0.74560  Biso   1.000  H
  H59      1.0000 0.70660  0.26900  0.69790  Biso   1.000  H
  H60      1.0000 0.80380  0.16440  0.67550  Biso   1.000  H
  H61      1.0000 0.36810  0.89700  0.52210  Biso   1.000  H
  H62      1.0000 0.39140  0.80280  0.43070  Biso   1.000  H
  H63      1.0000 0.23970  0.78140  0.51270  Biso   1.000  H
  H64      1.0000 0.27460  0.75040  0.62080  Biso   1.000  H
  H65      1.0000 0.46300  0.73840  0.65470  Biso   1.000  H
  H66      1.0000 0.40260  0.86640  0.63020  Biso   1.000  H
  H67      1.0000 0.53300  0.72050  0.45140  Biso   1.000  H
  H68      1.0000 0.56950  0.68970  0.56520  Biso   1.000  H
  H69      1.0000 0.56300  0.49200  0.37800  Biso   1.000  H
  H70      1.0000 0.46700  0.52600  0.37200  Biso   1.000  H
  H71      1.0000 0.09200  0.55800  0.39300  Biso   1.000  H
  H72      1.0000 0.05600  0.48300  0.37600  Biso   1.000  H
  H73      1.0000 0.25560  0.31380  0.75820  Biso   1.000  H
  H74      1.0000 0.35190  0.21280  0.72570  Biso   1.000  H
  H75      1.0000 0.63040  0.35070  0.76000  Biso   1.000  H
  H76      1.0000 0.52490  0.44950  0.79200  Biso   1.000  H
  H77      1.0000 0.13440  0.09330  0.53960  Biso   1.000  H
  H78      1.0000 0.12690  0.20570  0.61680  Biso   1.000  H
  H79      1.0000 0.26340  0.20540  0.52420  Biso   1.000  H
  H80      1.0000 0.21270  0.21920  0.41470  Biso   1.000  H
  H81      1.0000 0.02000  0.22460  0.39160  Biso   1.000  H
  H82      1.0000 0.07860  0.10210  0.43100  Biso   1.000  H
  H83      1.0000 0.98290  0.28350  0.59250  Biso   1.000  H
  H84      1.0000 0.93000  0.29410  0.47720  Biso   1.000  H
  H85      1.0000 0.94940  0.48300  0.22200  Biso   1.000  H
  H86      1.0000 0.05060  0.38260  0.24560  Biso   1.000  H
  H87      1.0000 0.79340  0.23100  0.19790  Biso   1.000  H
  H88      1.0000 0.69620  0.33560  0.17550  Biso   1.000  H
  H89      1.0000 0.13190  0.60300  0.02210  Biso   1.000  H
  H90      1.0000 0.10860  0.69720  0.93070  Biso   1.000  H
  H91      1.0000 0.26030  0.71860  0.01270  Biso   1.000  H
  H92      1.0000 0.22540  0.74960  0.12080  Biso   1.000  H
  H93      1.0000 0.03700  0.76160  0.15470  Biso   1.000  H
  H94      1.0000 0.09740  0.63360  0.13020  Biso   1.000  H
  H95      1.0000 0.96700  0.77950  0.95140  Biso   1.000  H
  H96      1.0000 0.93050  0.81030  0.06520  Biso   1.000  H
  H97      1.0000 0.93700  0.00800  0.87800  Biso   1.000  H
  H98      1.0000 0.03300  0.97400  0.87200  Biso   1.000  H
  H99      1.0000 0.40800  0.94200  0.89300  Biso   1.000  H
  H100     1.0000 0.44400  0.01700  0.87600  Biso   1.000  H
  H101     1.0000 0.24440  0.18620  0.25820  Biso   1.000  H
  H102     1.0000 0.14810  0.28720  0.22570  Biso   1.000  H
  H103     1.0000 0.86960  0.14930  0.26000  Biso   1.000  H
  H104     1.0000 0.97510  0.05050  0.29200  Biso   1.000  H
  H105     1.0000 0.36560  0.40670  0.03960  Biso   1.000  H
  H106     1.0000 0.37310  0.29430  0.11680  Biso   1.000  H
  H107     1.0000 0.23660  0.29460  0.02420  Biso   1.000  H
  H108     1.0000 0.28730  0.28080  0.91470  Biso   1.000  H
  H109     1.0000 0.48000  0.27540  0.89160  Biso   1.000  H
  H110     1.0000 0.42140  0.39790  0.93100  Biso   1.000  H
  H111     1.0000 0.51710  0.21650  0.09250  Biso   1.000  H
  H112     1.0000 0.57000  0.20590  0.97720  Biso   1.000  H
  C1       1.0000 0.41670  0.93130  0.28280  Biso   1.000  C
  C2       1.0000 0.47730  0.87160  0.26870  Biso   1.000  C
  C3       1.0000 0.43320  0.79560  0.27500  Biso   1.000  C
  C4       1.0000 0.32670  0.78250  0.29650  Biso   1.000  C
  C5       1.0000 0.26950  0.84540  0.30990  Biso   1.000  C
  C6       1.0000 0.46730  0.08970  0.49960  Biso   1.000  C
  C7       1.0000 0.57010  0.13590  0.47630  Biso   1.000  C
  C8       1.0000 0.59660  0.20960  0.51950  Biso   1.000  C
  C9       1.0000 0.69960  0.25250  0.48610  Biso   1.000  C
  C10      1.0000 0.73480  0.32960  0.51940  Biso   1.000  C
  C11      1.0000 0.69690  0.36180  0.41010  Biso   1.000  C
  C12      1.0000 0.67500  0.27340  0.41150  Biso   1.000  C
  C13      1.0000 0.55620  0.24580  0.39320  Biso   1.000  C
  C14      1.0000 0.54570  0.15660  0.40170  Biso   1.000  C
  C15      1.0000 0.43200  0.11820  0.39010  Biso   1.000  C
  C16      1.0000 0.50610  0.26130  0.51060  Biso   1.000  C
  C17      1.0000 0.48610  0.27870  0.44680  Biso   1.000  C
  C18      1.0000 0.66740  0.67850  0.24150  Biso   1.000  C
  C19      1.0000 0.61060  0.73910  0.26040  Biso   1.000  C
  C20      1.0000 0.49850  0.73020  0.25910  Biso   1.000  C
  C21      1.0000 0.44650  0.65820  0.24030  Biso   1.000  C
  C22      1.0000 0.51050  0.59930  0.22170  Biso   1.000  C
  C23      1.0000 0.02620  0.91590  0.42670  Biso   1.000  C
  C24      1.0000 0.92800  0.87430  0.46260  Biso   1.000  C
  C25      1.0000 0.89380  0.79210  0.43310  Biso   1.000  C
  C26      1.0000 0.79650  0.76010  0.47880  Biso   1.000  C
  C27      1.0000 0.75570  0.67710  0.45840  Biso   1.000  C
  C28      1.0000 0.81550  0.66500  0.56670  Biso   1.000  C
  C29      1.0000 0.83260  0.75200  0.55330  Biso   1.000  C
  C30      1.0000 0.95330  0.78170  0.56010  Biso   1.000  C
  C31      1.0000 0.96530  0.86710  0.53790  Biso   1.000  C
  C32      1.0000 0.08120  0.90280  0.53640  Biso   1.000  C
  C33      1.0000 0.98420  0.74210  0.44430  Biso   1.000  C
  C34      1.0000 0.01410  0.73640  0.50900  Biso   1.000  C
  C35      1.0000 0.08330  0.56870  0.78280  Biso   1.000  C
  C36      1.0000 0.02270  0.62840  0.76870  Biso   1.000  C
  C37      1.0000 0.06680  0.70440  0.77500  Biso   1.000  C
  C38      1.0000 0.17330  0.71750  0.79650  Biso   1.000  C
  C39      1.0000 0.23050  0.65460  0.80990  Biso   1.000  C
  C40      1.0000 0.03270  0.41030  0.99960  Biso   1.000  C
  C41      1.0000 0.92990  0.36410  0.97630  Biso   1.000  C
  C42      1.0000 0.90340  0.29040  0.01950  Biso   1.000  C
  C43      1.0000 0.80040  0.24750  0.98610  Biso   1.000  C
  C44      1.0000 0.76520  0.17040  0.01940  Biso   1.000  C
  C45      1.0000 0.80310  0.13820  0.91010  Biso   1.000  C
  C46      1.0000 0.82500  0.22660  0.91150  Biso   1.000  C
  C47      1.0000 0.94380  0.25420  0.89320  Biso   1.000  C
  C48      1.0000 0.95430  0.34340  0.90170  Biso   1.000  C
  C49      1.0000 0.06800  0.38180  0.89010  Biso   1.000  C
  C50      1.0000 0.99390  0.23870  0.01060  Biso   1.000  C
  C51      1.0000 0.01390  0.22130  0.94680  Biso   1.000  C
  C52      1.0000 0.83260  0.82150  0.74150  Biso   1.000  C
  C53      1.0000 0.88940  0.76090  0.76040  Biso   1.000  C
  C54      1.0000 0.00150  0.76980  0.75910  Biso   1.000  C
  C55      1.0000 0.05350  0.84180  0.74030  Biso   1.000  C
  C56      1.0000 0.98950  0.90070  0.72170  Biso   1.000  C
  C57      1.0000 0.47380  0.58410  0.92670  Biso   1.000  C
  C58      1.0000 0.57200  0.62570  0.96260  Biso   1.000  C
  C59      1.0000 0.60620  0.70790  0.93310  Biso   1.000  C
  C60      1.0000 0.70350  0.73990  0.97880  Biso   1.000  C
  C61      1.0000 0.74430  0.82290  0.95840  Biso   1.000  C
  C62      1.0000 0.68450  0.83500  0.06670  Biso   1.000  C
  C63      1.0000 0.66740  0.74800  0.05330  Biso   1.000  C
  C64      1.0000 0.54670  0.71830  0.06010  Biso   1.000  C
  C65      1.0000 0.53470  0.63290  0.03790  Biso   1.000  C
  C66      1.0000 0.41880  0.59720  0.03640  Biso   1.000  C
  C67      1.0000 0.51580  0.75790  0.94430  Biso   1.000  C
  C68      1.0000 0.48590  0.76360  0.00900  Biso   1.000  C
  C69      1.0000 0.58330  0.06870  0.71720  Biso   1.000  C
  C70      1.0000 0.52270  0.12840  0.73130  Biso   1.000  C
  C71      1.0000 0.56680  0.20440  0.72500  Biso   1.000  C
  C72      1.0000 0.67330  0.21750  0.70350  Biso   1.000  C
  C73      1.0000 0.73050  0.15460  0.69010  Biso   1.000  C
  C74      1.0000 0.53270  0.91030  0.50040  Biso   1.000  C
  C75      1.0000 0.42990  0.86410  0.52370  Biso   1.000  C
  C76      1.0000 0.40340  0.79040  0.48050  Biso   1.000  C
  C77      1.0000 0.30040  0.74750  0.51390  Biso   1.000  C
  C78      1.0000 0.26520  0.67040  0.48060  Biso   1.000  C
  C79      1.0000 0.30310  0.63820  0.58990  Biso   1.000  C
  C80      1.0000 0.32500  0.72660  0.58850  Biso   1.000  C
  C81      1.0000 0.44380  0.75420  0.60680  Biso   1.000  C
  C82      1.0000 0.45430  0.84340  0.59830  Biso   1.000  C
  C83      1.0000 0.56800  0.88180  0.60990  Biso   1.000  C
  C84      1.0000 0.49390  0.73870  0.48940  Biso   1.000  C
  C85      1.0000 0.51390  0.72130  0.55320  Biso   1.000  C
  C86      1.0000 0.33260  0.32150  0.75850  Biso   1.000  C
  C87      1.0000 0.38940  0.26090  0.73960  Biso   1.000  C
  C88      1.0000 0.50150  0.26980  0.74090  Biso   1.000  C
  C89      1.0000 0.55350  0.34180  0.75970  Biso   1.000  C
  C90      1.0000 0.48950  0.40070  0.77830  Biso   1.000  C
  C91      1.0000 0.97380  0.08410  0.57330  Biso   1.000  C
  C92      1.0000 0.07200  0.12570  0.53740  Biso   1.000  C
  C93      1.0000 0.10620  0.20790  0.56690  Biso   1.000  C
  C94      1.0000 0.20350  0.23990  0.52120  Biso   1.000  C
  C95      1.0000 0.24430  0.32290  0.54160  Biso   1.000  C
  C96      1.0000 0.18450  0.33500  0.43330  Biso   1.000  C
  C97      1.0000 0.16740  0.24800  0.44670  Biso   1.000  C
  C98      1.0000 0.04670  0.21830  0.43990  Biso   1.000  C
  C99      1.0000 0.03470  0.13290  0.46210  Biso   1.000  C
  C100     1.0000 0.91880  0.09720  0.46360  Biso   1.000  C
  C101     1.0000 0.01580  0.25790  0.55570  Biso   1.000  C
  C102     1.0000 0.98590  0.26360  0.49100  Biso   1.000  C
  C103     1.0000 0.91670  0.43130  0.21720  Biso   1.000  C
  C104     1.0000 0.97730  0.37160  0.23130  Biso   1.000  C
  C105     1.0000 0.93320  0.29560  0.22500  Biso   1.000  C
  C106     1.0000 0.82670  0.28250  0.20350  Biso   1.000  C
  C107     1.0000 0.76950  0.34540  0.19010  Biso   1.000  C
  C108     1.0000 0.96730  0.58970  0.00040  Biso   1.000  C
  C109     1.0000 0.07010  0.63590  0.02370  Biso   1.000  C
  C110     1.0000 0.09660  0.70960  0.98050  Biso   1.000  C
  C111     1.0000 0.19960  0.75250  0.01390  Biso   1.000  C
  C112     1.0000 0.23480  0.82960  0.98060  Biso   1.000  C
  C113     1.0000 0.19690  0.86180  0.08990  Biso   1.000  C
  C114     1.0000 0.17500  0.77340  0.08850  Biso   1.000  C
  C115     1.0000 0.05620  0.74580  0.10680  Biso   1.000  C
  C116     1.0000 0.04570  0.65660  0.09830  Biso   1.000  C
  C117     1.0000 0.93200  0.61820  0.10990  Biso   1.000  C
  C118     1.0000 0.00610  0.76130  0.98940  Biso   1.000  C
  C119     1.0000 0.98610  0.77870  0.05320  Biso   1.000  C
  C120     1.0000 0.16740  0.17850  0.25850  Biso   1.000  C
  C121     1.0000 0.11060  0.23910  0.23960  Biso   1.000  C
  C122     1.0000 0.99850  0.23020  0.24090  Biso   1.000  C
  C123     1.0000 0.94650  0.15820  0.25970  Biso   1.000  C
  C124     1.0000 0.01050  0.09930  0.27830  Biso   1.000  C
  C125     1.0000 0.52620  0.41590  0.07330  Biso   1.000  C
  C126     1.0000 0.42800  0.37430  0.03740  Biso   1.000  C
  C127     1.0000 0.39380  0.29210  0.06690  Biso   1.000  C
  C128     1.0000 0.29650  0.26010  0.02120  Biso   1.000  C
  C129     1.0000 0.25570  0.17710  0.04160  Biso   1.000  C
  C130     1.0000 0.31550  0.16500  0.93330  Biso   1.000  C
  C131     1.0000 0.33260  0.25200  0.94670  Biso   1.000  C
  C132     1.0000 0.45330  0.28170  0.93990  Biso   1.000  C
  C133     1.0000 0.46530  0.36710  0.96210  Biso   1.000  C
  C134     1.0000 0.58120  0.40280  0.96360  Biso   1.000  C
  C135     1.0000 0.48420  0.24210  0.05570  Biso   1.000  C
  C136     1.0000 0.51410  0.23640  0.99100  Biso   1.000  C
  N1       1.0000 0.31200  0.91980  0.30340  Biso   1.000  N
  N2       1.0000 0.39250  0.08030  0.44740  Biso   1.000  N
  N3       1.0000 0.72930  0.38970  0.47300  Biso   1.000  N
  N4       1.0000 0.61890  0.60830  0.22240  Biso   1.000  N
  N5       1.0000 0.10920  0.93300  0.47270  Biso   1.000  N
  N6       1.0000 0.76950  0.62700  0.51080  Biso   1.000  N
  N7       1.0000 0.18800  0.58020  0.80340  Biso   1.000  N
  N8       1.0000 0.10750  0.41970  0.94740  Biso   1.000  N
  N9       1.0000 0.77070  0.11030  0.97300  Biso   1.000  N
  N10      1.0000 0.88110  0.89170  0.72240  Biso   1.000  N
  N11      1.0000 0.39080  0.56700  0.97270  Biso   1.000  N
  N12      1.0000 0.73050  0.87300  0.01080  Biso   1.000  N
  N13      1.0000 0.68800  0.08020  0.69660  Biso   1.000  N
  N14      1.0000 0.60750  0.91970  0.55260  Biso   1.000  N
  N15      1.0000 0.27070  0.61030  0.52700  Biso   1.000  N
  N16      1.0000 0.38110  0.39170  0.77760  Biso   1.000  N
  N17      1.0000 0.89080  0.06700  0.52730  Biso   1.000  N
  N18      1.0000 0.23050  0.37300  0.48920  Biso   1.000  N
  N19      1.0000 0.81200  0.41980  0.19660  Biso   1.000  N
  N20      1.0000 0.89250  0.58030  0.05260  Biso   1.000  N
  N21      1.0000 0.22930  0.88970  0.02700  Biso   1.000  N
  N22      1.0000 0.11890  0.10830  0.27760  Biso   1.000  N
  N23      1.0000 0.60920  0.43300  0.02730  Biso   1.000  N
  N24      1.0000 0.26950  0.12700  0.98920  Biso   1.000  N
  O1       1.0000 0.96310  0.47620  0.60430  Biso   1.000  O
  O2       1.0000 0.47340  0.47300  0.60520  Biso   1.000  O
  O3       1.0000 0.68110  0.40160  0.35900  Biso   1.000  O
  O4       1.0000 0.76540  0.33890  0.57860  Biso   1.000  O
  O5       1.0000 0.45280  0.06200  0.55750  Biso   1.000  O
  O6       1.0000 0.38290  0.12130  0.33530  Biso   1.000  O
  O7       1.0000 0.14290  0.90480  0.58580  Biso   1.000  O
  O8       1.0000 0.03140  0.93390  0.36550  Biso   1.000  O
  O9       1.0000 0.71800  0.65810  0.40160  Biso   1.000  O
  O10      1.0000 0.84080  0.63450  0.62060  Biso   1.000  O
  O11      1.0000 0.53690  0.02380  0.10430  Biso   1.000  O
  O12      1.0000 0.02660  0.02700  0.10520  Biso   1.000  O
  O13      1.0000 0.81890  0.09840  0.85900  Biso   1.000  O
  O14      1.0000 0.73460  0.16110  0.07860  Biso   1.000  O
  O15      1.0000 0.04720  0.43800  0.05750  Biso   1.000  O
  O16      1.0000 0.11710  0.37870  0.83530  Biso   1.000  O
  O17      1.0000 0.35710  0.59520  0.08580  Biso   1.000  O
  O18      1.0000 0.46860  0.56610  0.86550  Biso   1.000  O
  O19      1.0000 0.78200  0.84190  0.90160  Biso   1.000  O
  O20      1.0000 0.65920  0.86550  0.12060  Biso   1.000  O
  O21      1.0000 0.03690  0.52380  0.39570  Biso   1.000  O
  O22      1.0000 0.52660  0.52700  0.39480  Biso   1.000  O
  O23      1.0000 0.31890  0.59840  0.64100  Biso   1.000  O
  O24      1.0000 0.23460  0.66110  0.42140  Biso   1.000  O
  O25      1.0000 0.54720  0.93800  0.44250  Biso   1.000  O
  O26      1.0000 0.61710  0.87870  0.66470  Biso   1.000  O
  O27      1.0000 0.85710  0.09520  0.41420  Biso   1.000  O
  O28      1.0000 0.96860  0.06610  0.63450  Biso   1.000  O
  O29      1.0000 0.28200  0.34190  0.59840  Biso   1.000  O
  O30      1.0000 0.15920  0.36550  0.37940  Biso   1.000  O
  O31      1.0000 0.46310  0.97620  0.89570  Biso   1.000  O
  O32      1.0000 0.97340  0.97300  0.89480  Biso   1.000  O
  O33      1.0000 0.18110  0.90160  0.14100  Biso   1.000  O
  O34      1.0000 0.26540  0.83890  0.92140  Biso   1.000  O
  O35      1.0000 0.95280  0.56200  0.94250  Biso   1.000  O
  O36      1.0000 0.88290  0.62130  0.16470  Biso   1.000  O
  O37      1.0000 0.64290  0.40480  0.91420  Biso   1.000  O
  O38      1.0000 0.53140  0.43390  0.13450  Biso   1.000  O
  O39      1.0000 0.21800  0.15810  0.09840  Biso   1.000  O
  O40      1.0000 0.34080  0.13450  0.87940  Biso   1.000  O
