data_image0
_cell_length_a       11.3737
_cell_length_b       17.6013
_cell_length_c       17.9058
_cell_angle_alpha    90
_cell_angle_beta     90
_cell_angle_gamma    99.234

_symmetry_space_group_name_H-M    P 1
_symmetry_int_tables_number       1

loop_
  _symmetry_equiv_pos_as_xyz
  'x, y, z'

loop_
  _atom_site_label
  _atom_site_occupancy
  _atom_site_fract_x
  _atom_site_fract_y
  _atom_site_fract_z
  _atom_site_thermal_displace_type
  _atom_site_B_iso_or_equiv
  _atom_site_type_symbol
  Co1      1.0000 0.96566  0.07561  0.92205  Biso   1.000  Co
  Co2      1.0000 0.03434  0.42439  0.42205  Biso   1.000  Co
  Co3      1.0000 0.03434  0.92439  0.07795  Biso   1.000  Co
  Co4      1.0000 0.96566  0.57561  0.57795  Biso   1.000  Co
  H1       1.0000 0.99850  0.78090  0.98120  Biso   1.000  H
  H2       1.0000 0.01130  0.70020  0.95510  Biso   1.000  H
  H3       1.0000 0.94670  0.90100  0.75470  Biso   1.000  H
  H4       1.0000 0.99730  0.66360  0.82650  Biso   1.000  H
  H5       1.0000 0.95140  0.82360  0.66990  Biso   1.000  H
  H6       1.0000 0.52880  0.98430  0.85090  Biso   1.000  H
  H7       1.0000 0.73070  0.98250  0.85360  Biso   1.000  H
  H8       1.0000 0.77920  0.16280  0.99340  Biso   1.000  H
  H9       1.0000 0.57890  0.16510  0.99230  Biso   1.000  H
  H10      1.0000 0.35510  0.00070  0.83560  Biso   1.000  H
  H11      1.0000 0.15240  0.99960  0.83900  Biso   1.000  H
  H12      1.0000 0.19460  0.15750  0.00040  Biso   1.000  H
  H13      1.0000 0.39640  0.15120  0.00570  Biso   1.000  H
  H14      1.0000 0.00150  0.71910  0.48120  Biso   1.000  H
  H15      1.0000 0.98870  0.79980  0.45510  Biso   1.000  H
  H16      1.0000 0.05330  0.59900  0.25470  Biso   1.000  H
  H17      1.0000 0.00270  0.83640  0.32650  Biso   1.000  H
  H18      1.0000 0.04860  0.67640  0.16990  Biso   1.000  H
  H19      1.0000 0.47120  0.51570  0.35090  Biso   1.000  H
  H20      1.0000 0.26930  0.51750  0.35360  Biso   1.000  H
  H21      1.0000 0.22080  0.33720  0.49340  Biso   1.000  H
  H22      1.0000 0.42110  0.33490  0.49230  Biso   1.000  H
  H23      1.0000 0.64490  0.49930  0.33560  Biso   1.000  H
  H24      1.0000 0.84760  0.50040  0.33900  Biso   1.000  H
  H25      1.0000 0.80540  0.34250  0.50040  Biso   1.000  H
  H26      1.0000 0.60360  0.34880  0.50570  Biso   1.000  H
  H27      1.0000 0.00150  0.21910  0.01880  Biso   1.000  H
  H28      1.0000 0.98870  0.29980  0.04490  Biso   1.000  H
  H29      1.0000 0.05330  0.09900  0.24530  Biso   1.000  H
  H30      1.0000 0.00270  0.33640  0.17350  Biso   1.000  H
  H31      1.0000 0.04860  0.17640  0.33010  Biso   1.000  H
  H32      1.0000 0.47120  0.01570  0.14910  Biso   1.000  H
  H33      1.0000 0.26930  0.01750  0.14640  Biso   1.000  H
  H34      1.0000 0.22080  0.83720  0.00660  Biso   1.000  H
  H35      1.0000 0.42110  0.83490  0.00770  Biso   1.000  H
  H36      1.0000 0.64490  0.99930  0.16440  Biso   1.000  H
  H37      1.0000 0.84760  0.00040  0.16100  Biso   1.000  H
  H38      1.0000 0.80540  0.84250  0.99960  Biso   1.000  H
  H39      1.0000 0.60360  0.84880  0.99430  Biso   1.000  H
  H40      1.0000 0.99850  0.28090  0.51880  Biso   1.000  H
  H41      1.0000 0.01130  0.20020  0.54490  Biso   1.000  H
  H42      1.0000 0.94670  0.40100  0.74530  Biso   1.000  H
  H43      1.0000 0.99730  0.16360  0.67350  Biso   1.000  H
  H44      1.0000 0.95140  0.32360  0.83010  Biso   1.000  H
  H45      1.0000 0.52880  0.48430  0.64910  Biso   1.000  H
  H46      1.0000 0.73070  0.48250  0.64640  Biso   1.000  H
  H47      1.0000 0.77920  0.66280  0.50660  Biso   1.000  H
  H48      1.0000 0.57890  0.66510  0.50770  Biso   1.000  H
  H49      1.0000 0.35510  0.50070  0.66440  Biso   1.000  H
  H50      1.0000 0.15240  0.49960  0.66100  Biso   1.000  H
  H51      1.0000 0.19460  0.65750  0.49960  Biso   1.000  H
  H52      1.0000 0.39640  0.65120  0.49430  Biso   1.000  H
  C1       1.0000 0.99260  0.84690  0.84870  Biso   1.000  C
  C2       1.0000 0.00290  0.77380  0.86670  Biso   1.000  C
  C3       1.0000 0.99510  0.71560  0.81310  Biso   1.000  C
  C4       1.0000 0.98380  0.73730  0.73940  Biso   1.000  C
  C5       1.0000 0.96530  0.81100  0.72040  Biso   1.000  C
  C6       1.0000 0.96720  0.86490  0.77520  Biso   1.000  C
  C7       1.0000 0.98460  0.90370  0.91450  Biso   1.000  C
  C8       1.0000 0.98080  0.67320  0.67700  Biso   1.000  C
  C9       1.0000 0.53020  0.07420  0.92200  Biso   1.000  C
  C10      1.0000 0.57900  0.02080  0.88050  Biso   1.000  C
  C11      1.0000 0.69910  0.02020  0.88190  Biso   1.000  C
  C12      1.0000 0.72850  0.12620  0.96420  Biso   1.000  C
  C13      1.0000 0.60950  0.12730  0.96360  Biso   1.000  C
  C14      1.0000 0.40880  0.07600  0.92060  Biso   1.000  C
  C15      1.0000 0.32490  0.03240  0.87150  Biso   1.000  C
  C16      1.0000 0.20320  0.03240  0.87180  Biso   1.000  C
  C17      1.0000 0.22840  0.12430  0.96780  Biso   1.000  C
  C18      1.0000 0.34950  0.12090  0.96920  Biso   1.000  C
  C19      1.0000 0.00740  0.65310  0.34870  Biso   1.000  C
  C20      1.0000 0.99710  0.72620  0.36670  Biso   1.000  C
  C21      1.0000 0.00490  0.78440  0.31310  Biso   1.000  C
  C22      1.0000 0.01620  0.76270  0.23940  Biso   1.000  C
  C23      1.0000 0.03470  0.68900  0.22040  Biso   1.000  C
  C24      1.0000 0.03280  0.63510  0.27520  Biso   1.000  C
  C25      1.0000 0.01540  0.59630  0.41450  Biso   1.000  C
  C26      1.0000 0.01920  0.82680  0.17700  Biso   1.000  C
  C27      1.0000 0.46980  0.42580  0.42200  Biso   1.000  C
  C28      1.0000 0.42100  0.47920  0.38050  Biso   1.000  C
  C29      1.0000 0.30090  0.47980  0.38190  Biso   1.000  C
  C30      1.0000 0.27150  0.37380  0.46420  Biso   1.000  C
  C31      1.0000 0.39050  0.37270  0.46360  Biso   1.000  C
  C32      1.0000 0.59120  0.42400  0.42060  Biso   1.000  C
  C33      1.0000 0.67510  0.46760  0.37150  Biso   1.000  C
  C34      1.0000 0.79680  0.46760  0.37180  Biso   1.000  C
  C35      1.0000 0.77160  0.37570  0.46780  Biso   1.000  C
  C36      1.0000 0.65050  0.37910  0.46920  Biso   1.000  C
  C37      1.0000 0.00740  0.15310  0.15130  Biso   1.000  C
  C38      1.0000 0.99710  0.22620  0.13330  Biso   1.000  C
  C39      1.0000 0.00490  0.28440  0.18690  Biso   1.000  C
  C40      1.0000 0.01620  0.26270  0.26060  Biso   1.000  C
  C41      1.0000 0.03470  0.18900  0.27960  Biso   1.000  C
  C42      1.0000 0.03280  0.13510  0.22480  Biso   1.000  C
  C43      1.0000 0.01540  0.09630  0.08550  Biso   1.000  C
  C44      1.0000 0.01920  0.32680  0.32300  Biso   1.000  C
  C45      1.0000 0.46980  0.92580  0.07800  Biso   1.000  C
  C46      1.0000 0.42100  0.97920  0.11950  Biso   1.000  C
  C47      1.0000 0.30090  0.97980  0.11810  Biso   1.000  C
  C48      1.0000 0.27150  0.87380  0.03580  Biso   1.000  C
  C49      1.0000 0.39050  0.87270  0.03640  Biso   1.000  C
  C50      1.0000 0.59120  0.92400  0.07940  Biso   1.000  C
  C51      1.0000 0.67510  0.96760  0.12850  Biso   1.000  C
  C52      1.0000 0.79680  0.96760  0.12820  Biso   1.000  C
  C53      1.0000 0.77160  0.87570  0.03220  Biso   1.000  C
  C54      1.0000 0.65050  0.87910  0.03080  Biso   1.000  C
  C55      1.0000 0.99260  0.34690  0.65130  Biso   1.000  C
  C56      1.0000 0.00290  0.27380  0.63330  Biso   1.000  C
  C57      1.0000 0.99510  0.21560  0.68690  Biso   1.000  C
  C58      1.0000 0.98380  0.23730  0.76060  Biso   1.000  C
  C59      1.0000 0.96530  0.31100  0.77960  Biso   1.000  C
  C60      1.0000 0.96720  0.36490  0.72480  Biso   1.000  C
  C61      1.0000 0.98460  0.40370  0.58550  Biso   1.000  C
  C62      1.0000 0.98080  0.17320  0.82300  Biso   1.000  C
  C63      1.0000 0.53020  0.57420  0.57800  Biso   1.000  C
  C64      1.0000 0.57900  0.52080  0.61950  Biso   1.000  C
  C65      1.0000 0.69910  0.52020  0.61810  Biso   1.000  C
  C66      1.0000 0.72850  0.62620  0.53580  Biso   1.000  C
  C67      1.0000 0.60950  0.62730  0.53640  Biso   1.000  C
  C68      1.0000 0.40880  0.57600  0.57940  Biso   1.000  C
  C69      1.0000 0.32490  0.53240  0.62850  Biso   1.000  C
  C70      1.0000 0.20320  0.53240  0.62820  Biso   1.000  C
  C71      1.0000 0.22840  0.62430  0.53220  Biso   1.000  C
  C72      1.0000 0.34950  0.62090  0.53080  Biso   1.000  C
  N1       1.0000 0.00400  0.74820  0.94480  Biso   1.000  N
  N2       1.0000 0.77630  0.07330  0.92360  Biso   1.000  N
  N3       1.0000 0.15920  0.07810  0.91780  Biso   1.000  N
  N4       1.0000 0.99600  0.75180  0.44480  Biso   1.000  N
  N5       1.0000 0.22370  0.42670  0.42360  Biso   1.000  N
  N6       1.0000 0.84080  0.42190  0.41780  Biso   1.000  N
  N7       1.0000 0.99600  0.25180  0.05520  Biso   1.000  N
  N8       1.0000 0.22370  0.92670  0.07640  Biso   1.000  N
  N9       1.0000 0.84080  0.92190  0.08220  Biso   1.000  N
  N10      1.0000 0.00400  0.24820  0.55520  Biso   1.000  N
  N11      1.0000 0.77630  0.57330  0.57640  Biso   1.000  N
  N12      1.0000 0.15920  0.57810  0.58220  Biso   1.000  N
  O1       1.0000 0.93750  0.96410  0.89550  Biso   1.000  O
  O2       1.0000 0.03340  0.89380  0.97070  Biso   1.000  O
  O3       1.0000 0.96820  0.60450  0.69730  Biso   1.000  O
  O4       1.0000 0.98890  0.69660  0.61120  Biso   1.000  O
  O5       1.0000 0.06250  0.53590  0.39550  Biso   1.000  O
  O6       1.0000 0.96660  0.60620  0.47070  Biso   1.000  O
  O7       1.0000 0.03180  0.89550  0.19730  Biso   1.000  O
  O8       1.0000 0.01110  0.80340  0.11120  Biso   1.000  O
  O9       1.0000 0.06250  0.03590  0.10450  Biso   1.000  O
  O10      1.0000 0.96660  0.10620  0.02930  Biso   1.000  O
  O11      1.0000 0.03180  0.39550  0.30270  Biso   1.000  O
  O12      1.0000 0.01110  0.30340  0.38880  Biso   1.000  O
  O13      1.0000 0.93750  0.46410  0.60450  Biso   1.000  O
  O14      1.0000 0.03340  0.39380  0.52930  Biso   1.000  O
  O15      1.0000 0.96820  0.10450  0.80270  Biso   1.000  O
  O16      1.0000 0.98890  0.19660  0.88880  Biso   1.000  O
