data_image0
_cell_length_a       16.4835
_cell_length_b       21.1293
_cell_length_c       24.969
_cell_angle_alpha    92.76
_cell_angle_beta     90
_cell_angle_gamma    90

_symmetry_space_group_name_H-M    P 1
_symmetry_int_tables_number       1

loop_
  _symmetry_equiv_pos_as_xyz
  'x, y, z'

loop_
  _atom_site_label
  _atom_site_occupancy
  _atom_site_fract_x
  _atom_site_fract_y
  _atom_site_fract_z
  _atom_site_thermal_displace_type
  _atom_site_B_iso_or_equiv
  _atom_site_type_symbol
  Zn1      1.0000 0.01280  0.33930  0.30741  Biso   1.000  Zn
  Zn2      1.0000 0.45850  0.33716  0.24552  Biso   1.000  Zn
  Zn3      1.0000 0.07129  0.65863  0.81354  Biso   1.000  Zn
  Zn4      1.0000 0.01984  0.34914  0.00407  Biso   1.000  Zn
  Zn5      1.0000 0.46656  0.84313  0.01023  Biso   1.000  Zn
  Zn6      1.0000 0.01280  0.16070  0.19259  Biso   1.000  Zn
  Zn7      1.0000 0.45850  0.16284  0.25448  Biso   1.000  Zn
  Zn8      1.0000 0.07129  0.84137  0.68646  Biso   1.000  Zn
  Zn9      1.0000 0.01984  0.15086  0.49593  Biso   1.000  Zn
  Zn10     1.0000 0.46656  0.65687  0.48977  Biso   1.000  Zn
  Zn11     1.0000 0.98720  0.66070  0.69259  Biso   1.000  Zn
  Zn12     1.0000 0.54150  0.66284  0.75448  Biso   1.000  Zn
  Zn13     1.0000 0.92871  0.34137  0.18646  Biso   1.000  Zn
  Zn14     1.0000 0.98016  0.65086  0.99593  Biso   1.000  Zn
  Zn15     1.0000 0.53344  0.15687  0.98977  Biso   1.000  Zn
  Zn16     1.0000 0.98720  0.83930  0.80741  Biso   1.000  Zn
  Zn17     1.0000 0.54150  0.83716  0.74552  Biso   1.000  Zn
  Zn18     1.0000 0.92871  0.15863  0.31354  Biso   1.000  Zn
  Zn19     1.0000 0.98016  0.84914  0.50407  Biso   1.000  Zn
  Zn20     1.0000 0.53344  0.34313  0.51023  Biso   1.000  Zn
  H1       1.0000 0.86170  0.51670  0.63840  Biso   1.000  H
  H2       1.0000 0.77190  0.57810  0.69090  Biso   1.000  H
  H3       1.0000 0.63310  0.60400  0.56070  Biso   1.000  H
  H4       1.0000 0.93780  0.46100  0.58410  Biso   1.000  H
  H5       1.0000 0.01740  0.40560  0.52050  Biso   1.000  H
  H6       1.0000 0.85530  0.44440  0.40550  Biso   1.000  H
  H7       1.0000 0.82910  0.64690  0.31550  Biso   1.000  H
  H8       1.0000 0.89670  0.72520  0.36710  Biso   1.000  H
  H9       1.0000 0.81760  0.64740  0.50200  Biso   1.000  H
  H10      1.0000 0.74220  0.58340  0.27550  Biso   1.000  H
  H11      1.0000 0.66150  0.50380  0.23580  Biso   1.000  H
  H12      1.0000 0.63400  0.42650  0.37930  Biso   1.000  H
  H13      1.0000 0.22930  0.59660  0.24020  Biso   1.000  H
  H14      1.0000 0.14230  0.52120  0.27370  Biso   1.000  H
  H15      1.0000 0.11860  0.43920  0.12520  Biso   1.000  H
  H16      1.0000 0.30450  0.66780  0.20240  Biso   1.000  H
  H17      1.0000 0.37860  0.74000  0.15450  Biso   1.000  H
  H18      1.0000 0.33500  0.63640  0.01750  Biso   1.000  H
  H19      1.0000 0.47320  0.42560  0.96460  Biso   1.000  H
  H20      1.0000 0.51730  0.36730  0.03590  Biso   1.000  H
  H21      1.0000 0.32930  0.43420  0.12540  Biso   1.000  H
  H22      1.0000 0.43540  0.49180  0.90590  Biso   1.000  H
  H23      1.0000 0.37230  0.55010  0.84080  Biso   1.000  H
  H24      1.0000 0.18200  0.58270  0.94000  Biso   1.000  H
  H25      1.0000 0.86170  0.98330  0.86160  Biso   1.000  H
  H26      1.0000 0.77190  0.92190  0.80910  Biso   1.000  H
  H27      1.0000 0.63310  0.89600  0.93930  Biso   1.000  H
  H28      1.0000 0.93780  0.03900  0.91590  Biso   1.000  H
  H29      1.0000 0.01740  0.09440  0.97950  Biso   1.000  H
  H30      1.0000 0.85530  0.05560  0.09450  Biso   1.000  H
  H31      1.0000 0.82910  0.85310  0.18450  Biso   1.000  H
  H32      1.0000 0.89670  0.77480  0.13290  Biso   1.000  H
  H33      1.0000 0.81760  0.85260  0.99800  Biso   1.000  H
  H34      1.0000 0.74220  0.91660  0.22450  Biso   1.000  H
  H35      1.0000 0.66150  0.99620  0.26420  Biso   1.000  H
  H36      1.0000 0.63400  0.07350  0.12070  Biso   1.000  H
  H37      1.0000 0.22930  0.90340  0.25980  Biso   1.000  H
  H38      1.0000 0.14230  0.97880  0.22630  Biso   1.000  H
  H39      1.0000 0.11860  0.06080  0.37480  Biso   1.000  H
  H40      1.0000 0.30450  0.83220  0.29760  Biso   1.000  H
  H41      1.0000 0.37860  0.76000  0.34550  Biso   1.000  H
  H42      1.0000 0.33500  0.86360  0.48250  Biso   1.000  H
  H43      1.0000 0.47320  0.07440  0.53540  Biso   1.000  H
  H44      1.0000 0.51730  0.13270  0.46410  Biso   1.000  H
  H45      1.0000 0.32930  0.06580  0.37460  Biso   1.000  H
  H46      1.0000 0.43540  0.00820  0.59410  Biso   1.000  H
  H47      1.0000 0.37230  0.94990  0.65920  Biso   1.000  H
  H48      1.0000 0.18200  0.91730  0.56000  Biso   1.000  H
  H49      1.0000 0.13830  0.48330  0.36160  Biso   1.000  H
  H50      1.0000 0.22810  0.42190  0.30910  Biso   1.000  H
  H51      1.0000 0.36690  0.39600  0.43930  Biso   1.000  H
  H52      1.0000 0.06220  0.53900  0.41590  Biso   1.000  H
  H53      1.0000 0.98260  0.59440  0.47950  Biso   1.000  H
  H54      1.0000 0.14470  0.55560  0.59450  Biso   1.000  H
  H55      1.0000 0.17090  0.35310  0.68450  Biso   1.000  H
  H56      1.0000 0.10330  0.27480  0.63290  Biso   1.000  H
  H57      1.0000 0.18240  0.35260  0.49800  Biso   1.000  H
  H58      1.0000 0.25780  0.41660  0.72450  Biso   1.000  H
  H59      1.0000 0.33850  0.49620  0.76420  Biso   1.000  H
  H60      1.0000 0.36600  0.57350  0.62070  Biso   1.000  H
  H61      1.0000 0.77070  0.40340  0.75980  Biso   1.000  H
  H62      1.0000 0.85770  0.47880  0.72630  Biso   1.000  H
  H63      1.0000 0.88140  0.56080  0.87480  Biso   1.000  H
  H64      1.0000 0.69550  0.33220  0.79760  Biso   1.000  H
  H65      1.0000 0.62140  0.26000  0.84550  Biso   1.000  H
  H66      1.0000 0.66500  0.36360  0.98250  Biso   1.000  H
  H67      1.0000 0.52680  0.57440  0.03540  Biso   1.000  H
  H68      1.0000 0.48270  0.63270  0.96410  Biso   1.000  H
  H69      1.0000 0.67070  0.56580  0.87460  Biso   1.000  H
  H70      1.0000 0.56460  0.50820  0.09410  Biso   1.000  H
  H71      1.0000 0.62770  0.44990  0.15920  Biso   1.000  H
  H72      1.0000 0.81800  0.41730  0.06000  Biso   1.000  H
  H73      1.0000 0.13830  0.01670  0.13840  Biso   1.000  H
  H74      1.0000 0.22810  0.07810  0.19090  Biso   1.000  H
  H75      1.0000 0.36690  0.10400  0.06070  Biso   1.000  H
  H76      1.0000 0.06220  0.96100  0.08410  Biso   1.000  H
  H77      1.0000 0.98260  0.90560  0.02050  Biso   1.000  H
  H78      1.0000 0.14470  0.94440  0.90550  Biso   1.000  H
  H79      1.0000 0.17090  0.14690  0.81550  Biso   1.000  H
  H80      1.0000 0.10330  0.22520  0.86710  Biso   1.000  H
  H81      1.0000 0.18240  0.14740  0.00200  Biso   1.000  H
  H82      1.0000 0.25780  0.08340  0.77550  Biso   1.000  H
  H83      1.0000 0.33850  0.00380  0.73580  Biso   1.000  H
  H84      1.0000 0.36600  0.92650  0.87930  Biso   1.000  H
  H85      1.0000 0.77070  0.09660  0.74020  Biso   1.000  H
  H86      1.0000 0.85770  0.02120  0.77370  Biso   1.000  H
  H87      1.0000 0.88140  0.93920  0.62520  Biso   1.000  H
  H88      1.0000 0.69550  0.16780  0.70240  Biso   1.000  H
  H89      1.0000 0.62140  0.24000  0.65450  Biso   1.000  H
  H90      1.0000 0.66500  0.13640  0.51750  Biso   1.000  H
  H91      1.0000 0.52680  0.92560  0.46460  Biso   1.000  H
  H92      1.0000 0.48270  0.86730  0.53590  Biso   1.000  H
  H93      1.0000 0.67070  0.93420  0.62540  Biso   1.000  H
  H94      1.0000 0.56460  0.99180  0.40590  Biso   1.000  H
  H95      1.0000 0.62770  0.05010  0.34080  Biso   1.000  H
  H96      1.0000 0.81800  0.08270  0.44000  Biso   1.000  H
  Ru1      1.0000 0.22418  0.52131  0.04851  Biso   1.000  Ru
  Ru2      1.0000 0.71316  0.52561  0.46409  Biso   1.000  Ru
  Ru3      1.0000 0.22418  0.97869  0.45149  Biso   1.000  Ru
  Ru4      1.0000 0.71316  0.97439  0.03591  Biso   1.000  Ru
  Ru5      1.0000 0.77582  0.47869  0.95149  Biso   1.000  Ru
  Ru6      1.0000 0.28684  0.47439  0.53591  Biso   1.000  Ru
  Ru7      1.0000 0.77582  0.02131  0.54851  Biso   1.000  Ru
  Ru8      1.0000 0.28684  0.02561  0.96409  Biso   1.000  Ru
  C1       1.0000 0.58960  0.40380  0.28420  Biso   1.000  C
  C2       1.0000 0.63090  0.63380  0.66220  Biso   1.000  C
  C3       1.0000 0.89650  0.74510  0.47580  Biso   1.000  C
  C4       1.0000 0.40200  0.74470  0.04810  Biso   1.000  C
  C5       1.0000 0.80090  0.52370  0.56820  Biso   1.000  C
  C6       1.0000 0.81560  0.53430  0.62270  Biso   1.000  C
  C7       1.0000 0.76200  0.57090  0.65410  Biso   1.000  C
  C8       1.0000 0.69380  0.59700  0.63090  Biso   1.000  C
  C9       1.0000 0.67920  0.58640  0.57640  Biso   1.000  C
  C10      1.0000 0.84910  0.48580  0.53270  Biso   1.000  C
  C11      1.0000 0.92120  0.45770  0.54810  Biso   1.000  C
  C12      1.0000 0.96860  0.42460  0.51020  Biso   1.000  C
  C13      1.0000 0.94400  0.41970  0.45690  Biso   1.000  C
  C14      1.0000 0.87190  0.44780  0.44150  Biso   1.000  C
  C15      1.0000 0.78300  0.60050  0.37800  Biso   1.000  C
  C16      1.0000 0.82680  0.64700  0.35320  Biso   1.000  C
  C17      1.0000 0.86710  0.69370  0.38390  Biso   1.000  C
  C18      1.0000 0.86370  0.69380  0.43960  Biso   1.000  C
  C19      1.0000 0.81990  0.64730  0.46440  Biso   1.000  C
  C20      1.0000 0.73630  0.55250  0.35120  Biso   1.000  C
  C21      1.0000 0.72040  0.55170  0.29650  Biso   1.000  C
  C22      1.0000 0.67220  0.50420  0.27270  Biso   1.000  C
  C23      1.0000 0.63990  0.45750  0.30370  Biso   1.000  C
  C24      1.0000 0.65580  0.45820  0.35840  Biso   1.000  C
  C25      1.0000 0.22590  0.56290  0.16270  Biso   1.000  C
  C26      1.0000 0.20700  0.56490  0.21700  Biso   1.000  C
  C27      1.0000 0.15510  0.51980  0.23700  Biso   1.000  C
  C28      1.0000 0.12200  0.47290  0.20270  Biso   1.000  C
  C29      1.0000 0.14090  0.47100  0.14840  Biso   1.000  C
  C30      1.0000 0.27550  0.60900  0.13850  Biso   1.000  C
  C31      1.0000 0.31060  0.66150  0.16510  Biso   1.000  C
  C32      1.0000 0.35480  0.70460  0.13650  Biso   1.000  C
  C33      1.0000 0.36400  0.69520  0.08140  Biso   1.000  C
  C34      1.0000 0.32890  0.64280  0.05480  Biso   1.000  C
  C35      1.0000 0.37490  0.46460  0.00240  Biso   1.000  C
  C36      1.0000 0.44420  0.42730  0.99700  Biso   1.000  C
  C37      1.0000 0.47050  0.39260  0.03960  Biso   1.000  C
  C38      1.0000 0.42760  0.39510  0.08760  Biso   1.000  C
  C39      1.0000 0.35830  0.43240  0.09300  Biso   1.000  C
  C40      1.0000 0.34640  0.50250  0.96180  Biso   1.000  C
  C41      1.0000 0.38430  0.51010  0.91280  Biso   1.000  C
  C42      1.0000 0.34660  0.54490  0.87400  Biso   1.000  C
  C43      1.0000 0.27100  0.57200  0.88410  Biso   1.000  C
  C44      1.0000 0.23310  0.56440  0.93310  Biso   1.000  C
  C45      1.0000 0.13120  0.57540  0.03670  Biso   1.000  C
  C46      1.0000 0.99540  0.38890  0.41480  Biso   1.000  C
  C47      1.0000 0.61240  0.92430  0.03990  Biso   1.000  C
  C48      1.0000 0.15740  0.45010  0.02350  Biso   1.000  C
  C49      1.0000 0.02370  0.72740  0.90730  Biso   1.000  C
  C50      1.0000 0.34940  0.95120  0.98440  Biso   1.000  C
  C51      1.0000 0.06490  0.42400  0.22200  Biso   1.000  C
  C52      1.0000 0.45440  0.35790  0.13440  Biso   1.000  C
  C53      1.0000 0.22810  0.19290  0.30080  Biso   1.000  C
  C54      1.0000 0.15290  0.27720  0.35070  Biso   1.000  C
  C55      1.0000 0.26390  0.22510  0.39550  Biso   1.000  C
  C56      1.0000 0.22640  0.60660  0.84420  Biso   1.000  C
  C57      1.0000 0.58960  0.09620  0.21580  Biso   1.000  C
  C58      1.0000 0.63090  0.86620  0.83780  Biso   1.000  C
  C59      1.0000 0.89650  0.75490  0.02420  Biso   1.000  C
  C60      1.0000 0.40200  0.75530  0.45190  Biso   1.000  C
  C61      1.0000 0.80090  0.97630  0.93180  Biso   1.000  C
  C62      1.0000 0.81560  0.96570  0.87730  Biso   1.000  C
  C63      1.0000 0.76200  0.92910  0.84590  Biso   1.000  C
  C64      1.0000 0.69380  0.90300  0.86910  Biso   1.000  C
  C65      1.0000 0.67920  0.91360  0.92360  Biso   1.000  C
  C66      1.0000 0.84910  0.01420  0.96730  Biso   1.000  C
  C67      1.0000 0.92120  0.04230  0.95190  Biso   1.000  C
  C68      1.0000 0.96860  0.07540  0.98980  Biso   1.000  C
  C69      1.0000 0.94400  0.08030  0.04310  Biso   1.000  C
  C70      1.0000 0.87190  0.05220  0.05850  Biso   1.000  C
  C71      1.0000 0.78300  0.89950  0.12200  Biso   1.000  C
  C72      1.0000 0.82680  0.85300  0.14680  Biso   1.000  C
  C73      1.0000 0.86710  0.80630  0.11610  Biso   1.000  C
  C74      1.0000 0.86370  0.80620  0.06040  Biso   1.000  C
  C75      1.0000 0.81990  0.85270  0.03560  Biso   1.000  C
  C76      1.0000 0.73630  0.94750  0.14880  Biso   1.000  C
  C77      1.0000 0.72040  0.94830  0.20350  Biso   1.000  C
  C78      1.0000 0.67220  0.99580  0.22730  Biso   1.000  C
  C79      1.0000 0.63990  0.04250  0.19630  Biso   1.000  C
  C80      1.0000 0.65580  0.04180  0.14160  Biso   1.000  C
  C81      1.0000 0.22590  0.93710  0.33730  Biso   1.000  C
  C82      1.0000 0.20700  0.93510  0.28300  Biso   1.000  C
  C83      1.0000 0.15510  0.98020  0.26300  Biso   1.000  C
  C84      1.0000 0.12200  0.02710  0.29730  Biso   1.000  C
  C85      1.0000 0.14090  0.02900  0.35160  Biso   1.000  C
  C86      1.0000 0.27550  0.89100  0.36150  Biso   1.000  C
  C87      1.0000 0.31060  0.83850  0.33490  Biso   1.000  C
  C88      1.0000 0.35480  0.79540  0.36350  Biso   1.000  C
  C89      1.0000 0.36400  0.80480  0.41860  Biso   1.000  C
  C90      1.0000 0.32890  0.85720  0.44520  Biso   1.000  C
  C91      1.0000 0.37490  0.03540  0.49760  Biso   1.000  C
  C92      1.0000 0.44420  0.07270  0.50300  Biso   1.000  C
  C93      1.0000 0.47050  0.10740  0.46040  Biso   1.000  C
  C94      1.0000 0.42760  0.10490  0.41240  Biso   1.000  C
  C95      1.0000 0.35830  0.06760  0.40700  Biso   1.000  C
  C96      1.0000 0.34640  0.99750  0.53820  Biso   1.000  C
  C97      1.0000 0.38430  0.98990  0.58720  Biso   1.000  C
  C98      1.0000 0.34660  0.95510  0.62600  Biso   1.000  C
  C99      1.0000 0.27100  0.92800  0.61590  Biso   1.000  C
  C100     1.0000 0.23310  0.93560  0.56690  Biso   1.000  C
  C101     1.0000 0.13120  0.92460  0.46330  Biso   1.000  C
  C102     1.0000 0.99540  0.11110  0.08520  Biso   1.000  C
  C103     1.0000 0.61240  0.57570  0.46010  Biso   1.000  C
  C104     1.0000 0.15740  0.04990  0.47650  Biso   1.000  C
  C105     1.0000 0.02370  0.77260  0.59270  Biso   1.000  C
  C106     1.0000 0.34940  0.54880  0.51560  Biso   1.000  C
  C107     1.0000 0.06490  0.07600  0.27800  Biso   1.000  C
  C108     1.0000 0.45440  0.14210  0.36560  Biso   1.000  C
  C109     1.0000 0.22810  0.30710  0.19920  Biso   1.000  C
  C110     1.0000 0.15290  0.22280  0.14930  Biso   1.000  C
  C111     1.0000 0.26390  0.27490  0.10450  Biso   1.000  C
  C112     1.0000 0.22640  0.89340  0.65580  Biso   1.000  C
  C113     1.0000 0.41040  0.59620  0.71580  Biso   1.000  C
  C114     1.0000 0.36910  0.36620  0.33780  Biso   1.000  C
  C115     1.0000 0.10350  0.25490  0.52420  Biso   1.000  C
  C116     1.0000 0.59800  0.25530  0.95190  Biso   1.000  C
  C117     1.0000 0.19910  0.47630  0.43180  Biso   1.000  C
  C118     1.0000 0.18440  0.46570  0.37730  Biso   1.000  C
  C119     1.0000 0.23800  0.42910  0.34590  Biso   1.000  C
  C120     1.0000 0.30620  0.40300  0.36910  Biso   1.000  C
  C121     1.0000 0.32080  0.41360  0.42360  Biso   1.000  C
  C122     1.0000 0.15090  0.51420  0.46730  Biso   1.000  C
  C123     1.0000 0.07880  0.54230  0.45190  Biso   1.000  C
  C124     1.0000 0.03140  0.57540  0.48980  Biso   1.000  C
  C125     1.0000 0.05600  0.58030  0.54310  Biso   1.000  C
  C126     1.0000 0.12810  0.55220  0.55850  Biso   1.000  C
  C127     1.0000 0.21700  0.39950  0.62200  Biso   1.000  C
  C128     1.0000 0.17320  0.35300  0.64680  Biso   1.000  C
  C129     1.0000 0.13290  0.30630  0.61610  Biso   1.000  C
  C130     1.0000 0.13630  0.30620  0.56040  Biso   1.000  C
  C131     1.0000 0.18010  0.35270  0.53560  Biso   1.000  C
  C132     1.0000 0.26370  0.44750  0.64880  Biso   1.000  C
  C133     1.0000 0.27960  0.44830  0.70350  Biso   1.000  C
  C134     1.0000 0.32780  0.49580  0.72730  Biso   1.000  C
  C135     1.0000 0.36010  0.54250  0.69630  Biso   1.000  C
  C136     1.0000 0.34420  0.54180  0.64160  Biso   1.000  C
  C137     1.0000 0.77410  0.43710  0.83730  Biso   1.000  C
  C138     1.0000 0.79300  0.43510  0.78300  Biso   1.000  C
  C139     1.0000 0.84490  0.48020  0.76300  Biso   1.000  C
  C140     1.0000 0.87800  0.52710  0.79730  Biso   1.000  C
  C141     1.0000 0.85910  0.52900  0.85160  Biso   1.000  C
  C142     1.0000 0.72450  0.39100  0.86150  Biso   1.000  C
  C143     1.0000 0.68940  0.33850  0.83490  Biso   1.000  C
  C144     1.0000 0.64520  0.29540  0.86350  Biso   1.000  C
  C145     1.0000 0.63600  0.30480  0.91860  Biso   1.000  C
  C146     1.0000 0.67110  0.35720  0.94520  Biso   1.000  C
  C147     1.0000 0.62510  0.53540  0.99760  Biso   1.000  C
  C148     1.0000 0.55580  0.57270  0.00300  Biso   1.000  C
  C149     1.0000 0.52950  0.60740  0.96040  Biso   1.000  C
  C150     1.0000 0.57240  0.60490  0.91240  Biso   1.000  C
  C151     1.0000 0.64170  0.56760  0.90700  Biso   1.000  C
  C152     1.0000 0.65360  0.49750  0.03820  Biso   1.000  C
  C153     1.0000 0.61570  0.48990  0.08720  Biso   1.000  C
  C154     1.0000 0.65340  0.45510  0.12600  Biso   1.000  C
  C155     1.0000 0.72900  0.42800  0.11590  Biso   1.000  C
  C156     1.0000 0.76690  0.43560  0.06690  Biso   1.000  C
  C157     1.0000 0.86880  0.42460  0.96330  Biso   1.000  C
  C158     1.0000 0.00460  0.61110  0.58520  Biso   1.000  C
  C159     1.0000 0.38760  0.07570  0.96010  Biso   1.000  C
  C160     1.0000 0.84260  0.54990  0.97650  Biso   1.000  C
  C161     1.0000 0.97630  0.27260  0.09270  Biso   1.000  C
  C162     1.0000 0.65060  0.04880  0.01560  Biso   1.000  C
  C163     1.0000 0.93510  0.57600  0.77800  Biso   1.000  C
  C164     1.0000 0.54560  0.64210  0.86560  Biso   1.000  C
  C165     1.0000 0.77190  0.80710  0.69920  Biso   1.000  C
  C166     1.0000 0.84710  0.72280  0.64930  Biso   1.000  C
  C167     1.0000 0.73610  0.77490  0.60450  Biso   1.000  C
  C168     1.0000 0.77360  0.39340  0.15580  Biso   1.000  C
  C169     1.0000 0.41040  0.90380  0.78420  Biso   1.000  C
  C170     1.0000 0.36910  0.13380  0.16220  Biso   1.000  C
  C171     1.0000 0.10350  0.24510  0.97580  Biso   1.000  C
  C172     1.0000 0.59800  0.24470  0.54810  Biso   1.000  C
  C173     1.0000 0.19910  0.02370  0.06820  Biso   1.000  C
  C174     1.0000 0.18440  0.03430  0.12270  Biso   1.000  C
  C175     1.0000 0.23800  0.07090  0.15410  Biso   1.000  C
  C176     1.0000 0.30620  0.09700  0.13090  Biso   1.000  C
  C177     1.0000 0.32080  0.08640  0.07640  Biso   1.000  C
  C178     1.0000 0.15090  0.98580  0.03270  Biso   1.000  C
  C179     1.0000 0.07880  0.95770  0.04810  Biso   1.000  C
  C180     1.0000 0.03140  0.92460  0.01020  Biso   1.000  C
  C181     1.0000 0.05600  0.91970  0.95690  Biso   1.000  C
  C182     1.0000 0.12810  0.94780  0.94150  Biso   1.000  C
  C183     1.0000 0.21700  0.10050  0.87800  Biso   1.000  C
  C184     1.0000 0.17320  0.14700  0.85320  Biso   1.000  C
  C185     1.0000 0.13290  0.19370  0.88390  Biso   1.000  C
  C186     1.0000 0.13630  0.19380  0.93960  Biso   1.000  C
  C187     1.0000 0.18010  0.14730  0.96440  Biso   1.000  C
  C188     1.0000 0.26370  0.05250  0.85120  Biso   1.000  C
  C189     1.0000 0.27960  0.05170  0.79650  Biso   1.000  C
  C190     1.0000 0.32780  0.00420  0.77270  Biso   1.000  C
  C191     1.0000 0.36010  0.95750  0.80370  Biso   1.000  C
  C192     1.0000 0.34420  0.95820  0.85840  Biso   1.000  C
  C193     1.0000 0.77410  0.06290  0.66270  Biso   1.000  C
  C194     1.0000 0.79300  0.06490  0.71700  Biso   1.000  C
  C195     1.0000 0.84490  0.01980  0.73700  Biso   1.000  C
  C196     1.0000 0.87800  0.97290  0.70270  Biso   1.000  C
  C197     1.0000 0.85910  0.97100  0.64840  Biso   1.000  C
  C198     1.0000 0.72450  0.10900  0.63850  Biso   1.000  C
  C199     1.0000 0.68940  0.16150  0.66510  Biso   1.000  C
  C200     1.0000 0.64520  0.20460  0.63650  Biso   1.000  C
  C201     1.0000 0.63600  0.19520  0.58140  Biso   1.000  C
  C202     1.0000 0.67110  0.14280  0.55480  Biso   1.000  C
  C203     1.0000 0.62510  0.96460  0.50240  Biso   1.000  C
  C204     1.0000 0.55580  0.92730  0.49700  Biso   1.000  C
  C205     1.0000 0.52950  0.89260  0.53960  Biso   1.000  C
  C206     1.0000 0.57240  0.89510  0.58760  Biso   1.000  C
  C207     1.0000 0.64170  0.93240  0.59300  Biso   1.000  C
  C208     1.0000 0.65360  0.00250  0.46180  Biso   1.000  C
  C209     1.0000 0.61570  0.01010  0.41280  Biso   1.000  C
  C210     1.0000 0.65340  0.04490  0.37400  Biso   1.000  C
  C211     1.0000 0.72900  0.07200  0.38410  Biso   1.000  C
  C212     1.0000 0.76690  0.06440  0.43310  Biso   1.000  C
  C213     1.0000 0.86880  0.07540  0.53670  Biso   1.000  C
  C214     1.0000 0.00460  0.88890  0.91480  Biso   1.000  C
  C215     1.0000 0.38760  0.42430  0.53990  Biso   1.000  C
  C216     1.0000 0.84260  0.95010  0.52350  Biso   1.000  C
  C217     1.0000 0.97630  0.22740  0.40730  Biso   1.000  C
  C218     1.0000 0.65060  0.45120  0.48440  Biso   1.000  C
  C219     1.0000 0.93510  0.92400  0.72200  Biso   1.000  C
  C220     1.0000 0.54560  0.85790  0.63440  Biso   1.000  C
  C221     1.0000 0.77190  0.69290  0.80080  Biso   1.000  C
  C222     1.0000 0.84710  0.77720  0.85070  Biso   1.000  C
  C223     1.0000 0.73610  0.72510  0.89550  Biso   1.000  C
  C224     1.0000 0.77360  0.10660  0.34420  Biso   1.000  C
  N1       1.0000 0.38290  0.90490  0.99400  Biso   1.000  N
  N2       1.0000 0.11230  0.40800  0.01330  Biso   1.000  N
  N3       1.0000 0.73270  0.54970  0.54500  Biso   1.000  N
  N4       1.0000 0.82450  0.48080  0.47950  Biso   1.000  N
  N5       1.0000 0.77950  0.60060  0.43360  Biso   1.000  N
  N6       1.0000 0.70400  0.50570  0.38210  Biso   1.000  N
  N7       1.0000 0.19290  0.51600  0.12840  Biso   1.000  N
  N8       1.0000 0.28470  0.59970  0.08340  Biso   1.000  N
  N9       1.0000 0.33200  0.46720  0.05040  Biso   1.000  N
  N10      1.0000 0.27070  0.52960  0.97190  Biso   1.000  N
  N11      1.0000 0.07430  0.60660  0.02690  Biso   1.000  N
  N12      1.0000 0.55780  0.89270  0.04040  Biso   1.000  N
  N13      1.0000 0.21210  0.23390  0.34890  Biso   1.000  N
  N14      1.0000 0.38290  0.59510  0.50600  Biso   1.000  N
  N15      1.0000 0.11230  0.09200  0.48670  Biso   1.000  N
  N16      1.0000 0.73270  0.95030  0.95500  Biso   1.000  N
  N17      1.0000 0.82450  0.01920  0.02050  Biso   1.000  N
  N18      1.0000 0.77950  0.89940  0.06640  Biso   1.000  N
  N19      1.0000 0.70400  0.99430  0.11790  Biso   1.000  N
  N20      1.0000 0.19290  0.98400  0.37160  Biso   1.000  N
  N21      1.0000 0.28470  0.90030  0.41660  Biso   1.000  N
  N22      1.0000 0.33200  0.03280  0.44960  Biso   1.000  N
  N23      1.0000 0.27070  0.97040  0.52810  Biso   1.000  N
  N24      1.0000 0.07430  0.89340  0.47310  Biso   1.000  N
  N25      1.0000 0.55780  0.60730  0.45960  Biso   1.000  N
  N26      1.0000 0.21210  0.26610  0.15110  Biso   1.000  N
  N27      1.0000 0.61710  0.09510  0.00600  Biso   1.000  N
  N28      1.0000 0.88770  0.59200  0.98670  Biso   1.000  N
  N29      1.0000 0.26730  0.45030  0.45500  Biso   1.000  N
  N30      1.0000 0.17550  0.51920  0.52050  Biso   1.000  N
  N31      1.0000 0.22050  0.39940  0.56640  Biso   1.000  N
  N32      1.0000 0.29600  0.49430  0.61790  Biso   1.000  N
  N33      1.0000 0.80710  0.48400  0.87160  Biso   1.000  N
  N34      1.0000 0.71530  0.40030  0.91660  Biso   1.000  N
  N35      1.0000 0.66800  0.53280  0.94960  Biso   1.000  N
  N36      1.0000 0.72930  0.47040  0.02810  Biso   1.000  N
  N37      1.0000 0.92570  0.39340  0.97310  Biso   1.000  N
  N38      1.0000 0.44220  0.10730  0.95960  Biso   1.000  N
  N39      1.0000 0.78790  0.76610  0.65110  Biso   1.000  N
  N40      1.0000 0.61710  0.40490  0.49400  Biso   1.000  N
  N41      1.0000 0.88770  0.90800  0.51330  Biso   1.000  N
  N42      1.0000 0.26730  0.04970  0.04500  Biso   1.000  N
  N43      1.0000 0.17550  0.98080  0.97950  Biso   1.000  N
  N44      1.0000 0.22050  0.10060  0.93360  Biso   1.000  N
  N45      1.0000 0.29600  0.00570  0.88210  Biso   1.000  N
  N46      1.0000 0.80710  0.01600  0.62840  Biso   1.000  N
  N47      1.0000 0.71530  0.09970  0.58340  Biso   1.000  N
  N48      1.0000 0.66800  0.96720  0.55040  Biso   1.000  N
  N49      1.0000 0.72930  0.02960  0.47190  Biso   1.000  N
  N50      1.0000 0.92570  0.10660  0.52690  Biso   1.000  N
  N51      1.0000 0.44220  0.39270  0.54040  Biso   1.000  N
  N52      1.0000 0.78790  0.73390  0.84890  Biso   1.000  N
  O1       1.0000 0.60080  0.35040  0.30600  Biso   1.000  O
  O2       1.0000 0.54390  0.40470  0.24910  Biso   1.000  O
  O3       1.0000 0.63820  0.63360  0.71210  Biso   1.000  O
  O4       1.0000 0.95460  0.77680  0.45550  Biso   1.000  O
  O5       1.0000 0.42850  0.79190  0.07310  Biso   1.000  O
  O6       1.0000 0.15310  0.61520  0.84900  Biso   1.000  O
  O7       1.0000 0.10790  0.28470  0.31180  Biso   1.000  O
  O8       1.0000 0.02050  0.39870  0.18570  Biso   1.000  O
  O9       1.0000 0.04280  0.73660  0.85950  Biso   1.000  O
  O10      1.0000 0.06980  0.41150  0.26820  Biso   1.000  O
  O11      1.0000 0.41330  0.36550  0.17640  Biso   1.000  O
  O12      1.0000 0.06230  0.37070  0.42670  Biso   1.000  O
  O13      1.0000 0.86960  0.75570  0.52060  Biso   1.000  O
  O14      1.0000 0.50920  0.31980  0.12840  Biso   1.000  O
  O15      1.0000 0.96560  0.38780  0.36760  Biso   1.000  O
  O16      1.0000 0.92800  0.31270  0.25770  Biso   1.000  O
  O17      1.0000 0.51550  0.79790  0.94390  Biso   1.000  O
  O18      1.0000 0.02230  0.67270  0.92480  Biso   1.000  O
  O19      1.0000 0.25770  0.61630  0.79930  Biso   1.000  O
  O20      1.0000 0.40400  0.73370  0.99980  Biso   1.000  O
  O21      1.0000 0.58020  0.66380  0.63950  Biso   1.000  O
  O22      1.0000 0.60080  0.14960  0.19400  Biso   1.000  O
  O23      1.0000 0.54390  0.09530  0.25090  Biso   1.000  O
  O24      1.0000 0.63820  0.86640  0.78790  Biso   1.000  O
  O25      1.0000 0.95460  0.72320  0.04450  Biso   1.000  O
  O26      1.0000 0.42850  0.70810  0.42690  Biso   1.000  O
  O27      1.0000 0.15310  0.88480  0.65100  Biso   1.000  O
  O28      1.0000 0.10790  0.21530  0.18820  Biso   1.000  O
  O29      1.0000 0.02050  0.10130  0.31430  Biso   1.000  O
  O30      1.0000 0.04280  0.76340  0.64050  Biso   1.000  O
  O31      1.0000 0.06980  0.08850  0.23180  Biso   1.000  O
  O32      1.0000 0.41330  0.13450  0.32360  Biso   1.000  O
  O33      1.0000 0.06230  0.12930  0.07330  Biso   1.000  O
  O34      1.0000 0.86960  0.74430  0.97940  Biso   1.000  O
  O35      1.0000 0.50920  0.18020  0.37160  Biso   1.000  O
  O36      1.0000 0.96560  0.11220  0.13240  Biso   1.000  O
  O37      1.0000 0.92800  0.18730  0.24230  Biso   1.000  O
  O38      1.0000 0.51550  0.70210  0.55610  Biso   1.000  O
  O39      1.0000 0.02230  0.82730  0.57520  Biso   1.000  O
  O40      1.0000 0.25770  0.88370  0.70070  Biso   1.000  O
  O41      1.0000 0.40400  0.76630  0.50020  Biso   1.000  O
  O42      1.0000 0.58020  0.83620  0.86050  Biso   1.000  O
  O43      1.0000 0.39920  0.64960  0.69400  Biso   1.000  O
  O44      1.0000 0.45610  0.59530  0.75090  Biso   1.000  O
  O45      1.0000 0.36180  0.36640  0.28790  Biso   1.000  O
  O46      1.0000 0.04540  0.22320  0.54450  Biso   1.000  O
  O47      1.0000 0.57150  0.20810  0.92690  Biso   1.000  O
  O48      1.0000 0.84690  0.38480  0.15100  Biso   1.000  O
  O49      1.0000 0.89210  0.71530  0.68820  Biso   1.000  O
  O50      1.0000 0.97950  0.60130  0.81430  Biso   1.000  O
  O51      1.0000 0.95720  0.26340  0.14050  Biso   1.000  O
  O52      1.0000 0.93020  0.58850  0.73180  Biso   1.000  O
  O53      1.0000 0.58670  0.63450  0.82360  Biso   1.000  O
  O54      1.0000 0.93770  0.62930  0.57330  Biso   1.000  O
  O55      1.0000 0.13040  0.24430  0.47940  Biso   1.000  O
  O56      1.0000 0.49080  0.68020  0.87160  Biso   1.000  O
  O57      1.0000 0.03440  0.61220  0.63240  Biso   1.000  O
  O58      1.0000 0.07200  0.68730  0.74230  Biso   1.000  O
  O59      1.0000 0.48450  0.20210  0.05610  Biso   1.000  O
  O60      1.0000 0.97770  0.32730  0.07520  Biso   1.000  O
  O61      1.0000 0.74230  0.38370  0.20070  Biso   1.000  O
  O62      1.0000 0.59600  0.26630  0.00020  Biso   1.000  O
  O63      1.0000 0.41980  0.33620  0.36050  Biso   1.000  O
  O64      1.0000 0.39920  0.85040  0.80600  Biso   1.000  O
  O65      1.0000 0.45610  0.90470  0.74910  Biso   1.000  O
  O66      1.0000 0.36180  0.13360  0.21210  Biso   1.000  O
  O67      1.0000 0.04540  0.27680  0.95550  Biso   1.000  O
  O68      1.0000 0.57150  0.29190  0.57310  Biso   1.000  O
  O69      1.0000 0.84690  0.11520  0.34900  Biso   1.000  O
  O70      1.0000 0.89210  0.78470  0.81180  Biso   1.000  O
  O71      1.0000 0.97950  0.89870  0.68570  Biso   1.000  O
  O72      1.0000 0.95720  0.23660  0.35950  Biso   1.000  O
  O73      1.0000 0.93020  0.91150  0.76820  Biso   1.000  O
  O74      1.0000 0.58670  0.86550  0.67640  Biso   1.000  O
  O75      1.0000 0.93770  0.87070  0.92670  Biso   1.000  O
  O76      1.0000 0.13040  0.25570  0.02060  Biso   1.000  O
  O77      1.0000 0.49080  0.81980  0.62840  Biso   1.000  O
  O78      1.0000 0.03440  0.88780  0.86760  Biso   1.000  O
  O79      1.0000 0.07200  0.81270  0.75770  Biso   1.000  O
  O80      1.0000 0.48450  0.29790  0.44390  Biso   1.000  O
  O81      1.0000 0.97770  0.17270  0.42480  Biso   1.000  O
  O82      1.0000 0.74230  0.11630  0.29930  Biso   1.000  O
  O83      1.0000 0.59600  0.23370  0.49980  Biso   1.000  O
  O84      1.0000 0.41980  0.16380  0.13950  Biso   1.000  O
  O85      1.0000 0.48360  0.25000  0.25000  Biso   1.000  O
  O86      1.0000 0.51640  0.75000  0.75000  Biso   1.000  O
