data_image0
_cell_length_a       15.1316
_cell_length_b       24.7369
_cell_length_c       15.3613
_cell_angle_alpha    90
_cell_angle_beta     110.847
_cell_angle_gamma    90

_symmetry_space_group_name_H-M    "P 1"
_symmetry_int_tables_number       1

loop_
  _symmetry_equiv_pos_as_xyz
  'x, y, z'

loop_
  _atom_site_label
  _atom_site_occupancy
  _atom_site_fract_x
  _atom_site_fract_y
  _atom_site_fract_z
  _atom_site_thermal_displace_type
  _atom_site_B_iso_or_equiv
  _atom_site_type_symbol
  Co1      1.0000 0.89788  0.52065  0.11014  Biso   1.000  Co
  N1       1.0000 0.94260  0.52130  0.26250  Biso   1.000  N
  O1       1.0000 0.03950  0.50910  0.12220  Biso   1.000  O
  N2       1.0000 0.74780  0.51450  0.07170  Biso   1.000  N
  N3       1.0000 0.89840  0.60600  0.11160  Biso   1.000  N
  O2       1.0000 0.11870  0.48410  0.02970  Biso   1.000  O
  O3       1.0000 0.88920  0.43400  0.11010  Biso   1.000  O
  C1       1.0000 0.02380  0.47140  0.40010  Biso   1.000  C
  H1       1.0000 0.06080  0.44180  0.42810  Biso   1.000  H
  C2       1.0000 0.99280  0.50580  0.45120  Biso   1.000  C
  C3       1.0000 0.04410  0.49830  0.04360  Biso   1.000  C
  C4       1.0000 0.59570  0.52100  0.95840  Biso   1.000  C
  H2       1.0000 0.56010  0.52970  0.89700  Biso   1.000  H
  C5       1.0000 0.55190  0.50190  0.01500  Biso   1.000  C
  C6       1.0000 0.00110  0.48020  0.31000  Biso   1.000  C
  H3       1.0000 0.02610  0.45730  0.27670  Biso   1.000  H
  C7       1.0000 0.90300  0.72200  0.11600  Biso   1.000  C
  C8       1.0000 0.71060  0.49790  0.13470  Biso   1.000  C
  H4       1.0000 0.74790  0.49170  0.19670  Biso   1.000  H
  C9       1.0000 0.93760  0.54900  0.40780  Biso   1.000  C
  H5       1.0000 0.91300  0.57230  0.44100  Biso   1.000  H
  C10      1.0000 0.68760  0.52740  0.98890  Biso   1.000  C
  H6       1.0000 0.71290  0.54260  0.94750  Biso   1.000  H
  C11      1.0000 0.91880  0.55750  0.31090  Biso   1.000  C
  H7       1.0000 0.88940  0.58920  0.28250  Biso   1.000  H
  C12      1.0000 0.61160  0.49040  0.10140  Biso   1.000  C
  H8       1.0000 0.58540  0.47630  0.14280  Biso   1.000  H
  C13      1.0000 0.97500  0.63260  0.14650  Biso   1.000  C
  H9       1.0000 0.03080  0.61290  0.17030  Biso   1.000  H
  C14      1.0000 0.98270  0.69110  0.15230  Biso   1.000  C
  H10      1.0000 0.04140  0.70740  0.18050  Biso   1.000  H
  C15      1.0000 0.82170  0.69190  0.08130  Biso   1.000  C
  H11      1.0000 0.76390  0.70980  0.05900  Biso   1.000  H
  C16      1.0000 0.82220  0.63570  0.07800  Biso   1.000  C
  H12      1.0000 0.76470  0.61810  0.05020  Biso   1.000  H
  Co2      1.0000 0.10212  0.02065  0.88986  Biso   1.000  Co
  N4       1.0000 0.05740  0.02130  0.73750  Biso   1.000  N
  O4       1.0000 0.96050  0.00910  0.87780  Biso   1.000  O
  N5       1.0000 0.25220  0.01450  0.92830  Biso   1.000  N
  N6       1.0000 0.10160  0.10600  0.88840  Biso   1.000  N
  O5       1.0000 0.88130  0.98410  0.97030  Biso   1.000  O
  O6       1.0000 0.11080  0.93400  0.88990  Biso   1.000  O
  C17      1.0000 0.97620  0.97140  0.59990  Biso   1.000  C
  H13      1.0000 0.93920  0.94180  0.57190  Biso   1.000  H
  C18      1.0000 0.00720  0.00580  0.54880  Biso   1.000  C
  C19      1.0000 0.95590  0.99830  0.95640  Biso   1.000  C
  C20      1.0000 0.40430  0.02100  0.04160  Biso   1.000  C
  H14      1.0000 0.43990  0.02970  0.10300  Biso   1.000  H
  C21      1.0000 0.44810  0.00190  0.98500  Biso   1.000  C
  C22      1.0000 0.99890  0.98020  0.69000  Biso   1.000  C
  H15      1.0000 0.97390  0.95730  0.72330  Biso   1.000  H
  C23      1.0000 0.09700  0.22200  0.88400  Biso   1.000  C
  C24      1.0000 0.28940  0.99790  0.86530  Biso   1.000  C
  H16      1.0000 0.25210  0.99170  0.80330  Biso   1.000  H
  C25      1.0000 0.06240  0.04900  0.59220  Biso   1.000  C
  H17      1.0000 0.08700  0.07230  0.55900  Biso   1.000  H
  C26      1.0000 0.31240  0.02740  0.01110  Biso   1.000  C
  H18      1.0000 0.28710  0.04260  0.05250  Biso   1.000  H
  C27      1.0000 0.08120  0.05750  0.68910  Biso   1.000  C
  H19      1.0000 0.11060  0.08920  0.71750  Biso   1.000  H
  C28      1.0000 0.38840  0.99040  0.89860  Biso   1.000  C
  H20      1.0000 0.41460  0.97630  0.85720  Biso   1.000  H
  C29      1.0000 0.02500  0.13260  0.85350  Biso   1.000  C
  H21      1.0000 0.96920  0.11290  0.82970  Biso   1.000  H
  C30      1.0000 0.01730  0.19110  0.84770  Biso   1.000  C
  H22      1.0000 0.95860  0.20740  0.81950  Biso   1.000  H
  C31      1.0000 0.17830  0.19190  0.91870  Biso   1.000  C
  H23      1.0000 0.23610  0.20980  0.94100  Biso   1.000  H
  C32      1.0000 0.17780  0.13570  0.92200  Biso   1.000  C
  H24      1.0000 0.23530  0.11810  0.94980  Biso   1.000  H
  Co3      1.0000 0.10212  0.47935  0.88986  Biso   1.000  Co
  N7       1.0000 0.05740  0.47870  0.73750  Biso   1.000  N
  O7       1.0000 0.96050  0.49090  0.87780  Biso   1.000  O
  N8       1.0000 0.25220  0.48550  0.92830  Biso   1.000  N
  N9       1.0000 0.10160  0.39400  0.88840  Biso   1.000  N
  O8       1.0000 0.88130  0.51590  0.97030  Biso   1.000  O
  O9       1.0000 0.11080  0.56600  0.88990  Biso   1.000  O
  C33      1.0000 0.97620  0.52860  0.59990  Biso   1.000  C
  H25      1.0000 0.93920  0.55820  0.57190  Biso   1.000  H
  C34      1.0000 0.00720  0.49420  0.54880  Biso   1.000  C
  C35      1.0000 0.95590  0.50170  0.95640  Biso   1.000  C
  C36      1.0000 0.40430  0.47900  0.04160  Biso   1.000  C
  H26      1.0000 0.43990  0.47030  0.10300  Biso   1.000  H
  C37      1.0000 0.44810  0.49810  0.98500  Biso   1.000  C
  C38      1.0000 0.99890  0.51980  0.69000  Biso   1.000  C
  H27      1.0000 0.97390  0.54270  0.72330  Biso   1.000  H
  C39      1.0000 0.09700  0.27800  0.88400  Biso   1.000  C
  C40      1.0000 0.28940  0.50210  0.86530  Biso   1.000  C
  H28      1.0000 0.25210  0.50830  0.80330  Biso   1.000  H
  C41      1.0000 0.06240  0.45100  0.59220  Biso   1.000  C
  H29      1.0000 0.08700  0.42770  0.55900  Biso   1.000  H
  C42      1.0000 0.31240  0.47260  0.01110  Biso   1.000  C
  H30      1.0000 0.28710  0.45740  0.05250  Biso   1.000  H
  C43      1.0000 0.08120  0.44250  0.68910  Biso   1.000  C
  H31      1.0000 0.11060  0.41080  0.71750  Biso   1.000  H
  C44      1.0000 0.38840  0.50960  0.89860  Biso   1.000  C
  H32      1.0000 0.41460  0.52370  0.85720  Biso   1.000  H
  C45      1.0000 0.02500  0.36740  0.85350  Biso   1.000  C
  H33      1.0000 0.96920  0.38710  0.82970  Biso   1.000  H
  C46      1.0000 0.01730  0.30890  0.84770  Biso   1.000  C
  H34      1.0000 0.95860  0.29260  0.81950  Biso   1.000  H
  C47      1.0000 0.17830  0.30810  0.91870  Biso   1.000  C
  H35      1.0000 0.23610  0.29020  0.94100  Biso   1.000  H
  C48      1.0000 0.17780  0.36430  0.92200  Biso   1.000  C
  H36      1.0000 0.23530  0.38190  0.94980  Biso   1.000  H
  Co4      1.0000 0.89788  0.97935  0.11014  Biso   1.000  Co
  N10      1.0000 0.94260  0.97870  0.26250  Biso   1.000  N
  O10      1.0000 0.03950  0.99090  0.12220  Biso   1.000  O
  N11      1.0000 0.74780  0.98550  0.07170  Biso   1.000  N
  N12      1.0000 0.89840  0.89400  0.11160  Biso   1.000  N
  O11      1.0000 0.11870  0.01590  0.02970  Biso   1.000  O
  O12      1.0000 0.88920  0.06600  0.11010  Biso   1.000  O
  C49      1.0000 0.02380  0.02860  0.40010  Biso   1.000  C
  H37      1.0000 0.06080  0.05820  0.42810  Biso   1.000  H
  C50      1.0000 0.99280  0.99420  0.45120  Biso   1.000  C
  C51      1.0000 0.04410  0.00170  0.04360  Biso   1.000  C
  C52      1.0000 0.59570  0.97900  0.95840  Biso   1.000  C
  H38      1.0000 0.56010  0.97030  0.89700  Biso   1.000  H
  C53      1.0000 0.55190  0.99810  0.01500  Biso   1.000  C
  C54      1.0000 0.00110  0.01980  0.31000  Biso   1.000  C
  H39      1.0000 0.02610  0.04270  0.27670  Biso   1.000  H
  C55      1.0000 0.90300  0.77800  0.11600  Biso   1.000  C
  C56      1.0000 0.71060  0.00210  0.13470  Biso   1.000  C
  H40      1.0000 0.74790  0.00830  0.19670  Biso   1.000  H
  C57      1.0000 0.93760  0.95100  0.40780  Biso   1.000  C
  H41      1.0000 0.91300  0.92770  0.44100  Biso   1.000  H
  C58      1.0000 0.68760  0.97260  0.98890  Biso   1.000  C
  H42      1.0000 0.71290  0.95740  0.94750  Biso   1.000  H
  C59      1.0000 0.91880  0.94250  0.31090  Biso   1.000  C
  H43      1.0000 0.88940  0.91080  0.28250  Biso   1.000  H
  C60      1.0000 0.61160  0.00960  0.10140  Biso   1.000  C
  H44      1.0000 0.58540  0.02370  0.14280  Biso   1.000  H
  C61      1.0000 0.97500  0.86740  0.14650  Biso   1.000  C
  H45      1.0000 0.03080  0.88710  0.17030  Biso   1.000  H
  C62      1.0000 0.98270  0.80890  0.15230  Biso   1.000  C
  H46      1.0000 0.04140  0.79260  0.18050  Biso   1.000  H
  C63      1.0000 0.82170  0.80810  0.08130  Biso   1.000  C
  H47      1.0000 0.76390  0.79020  0.05900  Biso   1.000  H
  C64      1.0000 0.82220  0.86430  0.07800  Biso   1.000  C
  H48      1.0000 0.76470  0.88190  0.05020  Biso   1.000  H
  W1       1.0000 0.73142  0.31825  0.15260  Biso   1.000  W
  W2       1.0000 0.46931  0.31814  0.09487  Biso   1.000  W
  W3       1.0000 0.76542  0.39319  0.37020  Biso   1.000  W
  W4       1.0000 0.53060  0.32471  0.51026  Biso   1.000  W
  W5       1.0000 0.79425  0.32495  0.56748  Biso   1.000  W
  W6       1.0000 0.50242  0.39338  0.31330  Biso   1.000  W
  W7       1.0000 0.96700  0.31797  0.34271  Biso   1.000  W
  O13      1.0000 0.03370  0.30430  0.47240  Biso   1.000  O
  O14      1.0000 0.59570  0.31280  0.10460  Biso   1.000  O
  O15      1.0000 0.50350  0.39020  0.43570  Biso   1.000  O
  O16      1.0000 0.50740  0.36690  0.19950  Biso   1.000  O
  O17      1.0000 0.40430  0.30180  0.45440  Biso   1.000  O
  O18      1.0000 0.74370  0.36280  0.07430  Biso   1.000  O
  O19      1.0000 0.72380  0.36330  0.24550  Biso   1.000  O
  O20      1.0000 0.86160  0.31290  0.23040  Biso   1.000  O
  O21      1.0000 0.91990  0.30280  0.56090  Biso   1.000  O
  O22      1.0000 0.63600  0.39920  0.35680  Biso   1.000  O
  W8       1.0000 0.27940  0.18185  0.19530  Biso   1.000  W
  O23      1.0000 0.79770  0.39050  0.49510  Biso   1.000  O
  O24      1.0000 0.52190  0.34500  0.60810  Biso   1.000  O
  O25      1.0000 0.78330  0.45890  0.35110  Biso   1.000  O
  O26      1.0000 0.42740  0.36030  0.00300  Biso   1.000  O
  O27      1.0000 0.54100  0.19290  0.36770  Biso   1.000  O
  O28      1.0000 0.04400  0.36150  0.31760  Biso   1.000  O
  O29      1.0000 0.47470  0.45970  0.29020  Biso   1.000  O
  O30      1.0000 0.35200  0.31240  0.11830  Biso   1.000  O
  O31      1.0000 0.73900  0.30580  0.41060  Biso   1.000  O
  O32      1.0000 0.24620  0.19650  0.30450  Biso   1.000  O
  O33      1.0000 0.37650  0.36440  0.27110  Biso   1.000  O
  O34      1.0000 0.88650  0.36620  0.37790  Biso   1.000  O
  O35      1.0000 0.19230  0.13840  0.13340  Biso   1.000  O
  O36      1.0000 0.83300  0.34700  0.67870  Biso   1.000  O
  O37      1.0000 0.66300  0.33720  0.54170  Biso   1.000  O
  W9       1.0000 0.73142  0.18175  0.15260  Biso   1.000  W
  W10      1.0000 0.46931  0.18186  0.09487  Biso   1.000  W
  W11      1.0000 0.76542  0.10681  0.37020  Biso   1.000  W
  W12      1.0000 0.53060  0.17529  0.51026  Biso   1.000  W
  W13      1.0000 0.79425  0.17505  0.56748  Biso   1.000  W
  W14      1.0000 0.50242  0.10662  0.31330  Biso   1.000  W
  W15      1.0000 0.96700  0.18203  0.34271  Biso   1.000  W
  O38      1.0000 0.03370  0.19570  0.47240  Biso   1.000  O
  O39      1.0000 0.59570  0.18720  0.10460  Biso   1.000  O
  O40      1.0000 0.50350  0.10980  0.43570  Biso   1.000  O
  O41      1.0000 0.50740  0.13310  0.19950  Biso   1.000  O
  O42      1.0000 0.40430  0.19820  0.45440  Biso   1.000  O
  O43      1.0000 0.74370  0.13720  0.07430  Biso   1.000  O
  O44      1.0000 0.72380  0.13670  0.24550  Biso   1.000  O
  O45      1.0000 0.86160  0.18710  0.23040  Biso   1.000  O
  O46      1.0000 0.91990  0.19720  0.56090  Biso   1.000  O
  O47      1.0000 0.63600  0.10080  0.35680  Biso   1.000  O
  W16      1.0000 0.27940  0.31815  0.19530  Biso   1.000  W
  O48      1.0000 0.79770  0.10950  0.49510  Biso   1.000  O
  O49      1.0000 0.52190  0.15500  0.60810  Biso   1.000  O
  O50      1.0000 0.78330  0.04110  0.35110  Biso   1.000  O
  O51      1.0000 0.42740  0.13970  0.00300  Biso   1.000  O
  O52      1.0000 0.54100  0.30710  0.36770  Biso   1.000  O
  O53      1.0000 0.04400  0.13850  0.31760  Biso   1.000  O
  O54      1.0000 0.47470  0.04030  0.29020  Biso   1.000  O
  O55      1.0000 0.35200  0.18760  0.11830  Biso   1.000  O
  O56      1.0000 0.73900  0.19420  0.41060  Biso   1.000  O
  O57      1.0000 0.24620  0.30350  0.30450  Biso   1.000  O
  O58      1.0000 0.37650  0.13560  0.27110  Biso   1.000  O
  O59      1.0000 0.88650  0.13380  0.37790  Biso   1.000  O
  O60      1.0000 0.19230  0.36160  0.13340  Biso   1.000  O
  O61      1.0000 0.83300  0.15300  0.67870  Biso   1.000  O
  O62      1.0000 0.66300  0.16280  0.54170  Biso   1.000  O
  As1      1.0000 0.76655  0.25000  0.36330  Biso   1.000  As
  As2      1.0000 0.49754  0.25000  0.30500  Biso   1.000  As
  W17      1.0000 0.99653  0.25000  0.54151  Biso   1.000  W
  W18      1.0000 0.30657  0.25000  0.39258  Biso   1.000  W
  O63      1.0000 0.09160  0.25000  0.64230  Biso   1.000  O
  O64      1.0000 0.88320  0.25000  0.38760  Biso   1.000  O
  O65      1.0000 0.43960  0.25000  0.02870  Biso   1.000  O
  O66      1.0000 0.24450  0.25000  0.46490  Biso   1.000  O
  O67      1.0000 0.38010  0.25000  0.27950  Biso   1.000  O
  O68      1.0000 0.00190  0.25000  0.31610  Biso   1.000  O
  O69      1.0000 0.22030  0.25000  0.14710  Biso   1.000  O
  O70      1.0000 0.73970  0.25000  0.09440  Biso   1.000  O
  O71      1.0000 0.71670  0.25000  0.24290  Biso   1.000  O
  O72      1.0000 0.51260  0.25000  0.20030  Biso   1.000  O
  O73      1.0000 0.77810  0.25000  0.58020  Biso   1.000  O
  O74      1.0000 0.55700  0.25000  0.53510  Biso   1.000  O
  W19      1.0000 0.26858  0.81825  0.84740  Biso   1.000  W
  W20      1.0000 0.53069  0.81814  0.90513  Biso   1.000  W
  W21      1.0000 0.23458  0.89319  0.62980  Biso   1.000  W
  W22      1.0000 0.46940  0.82471  0.48974  Biso   1.000  W
  W23      1.0000 0.20575  0.82495  0.43252  Biso   1.000  W
  W24      1.0000 0.49758  0.89338  0.68670  Biso   1.000  W
  W25      1.0000 0.03300  0.81797  0.65729  Biso   1.000  W
  O75      1.0000 0.96630  0.80430  0.52760  Biso   1.000  O
  O76      1.0000 0.40430  0.81280  0.89540  Biso   1.000  O
  O77      1.0000 0.49650  0.89020  0.56430  Biso   1.000  O
  O78      1.0000 0.49260  0.86690  0.80050  Biso   1.000  O
  O79      1.0000 0.59570  0.80180  0.54560  Biso   1.000  O
  O80      1.0000 0.25630  0.86280  0.92570  Biso   1.000  O
  O81      1.0000 0.27620  0.86330  0.75450  Biso   1.000  O
  O82      1.0000 0.13840  0.81290  0.76960  Biso   1.000  O
  O83      1.0000 0.08010  0.80280  0.43910  Biso   1.000  O
  O84      1.0000 0.36400  0.89920  0.64320  Biso   1.000  O
  W26      1.0000 0.72060  0.68185  0.80470  Biso   1.000  W
  O85      1.0000 0.20230  0.89050  0.50490  Biso   1.000  O
  O86      1.0000 0.47810  0.84500  0.39190  Biso   1.000  O
  O87      1.0000 0.21670  0.95890  0.64890  Biso   1.000  O
  O88      1.0000 0.57260  0.86030  0.99700  Biso   1.000  O
  O89      1.0000 0.45900  0.69290  0.63230  Biso   1.000  O
  O90      1.0000 0.95600  0.86150  0.68240  Biso   1.000  O
  O91      1.0000 0.52530  0.95970  0.70980  Biso   1.000  O
  O92      1.0000 0.64800  0.81240  0.88170  Biso   1.000  O
  O93      1.0000 0.26100  0.80580  0.58940  Biso   1.000  O
  O94      1.0000 0.75380  0.69650  0.69550  Biso   1.000  O
  O95      1.0000 0.62350  0.86440  0.72890  Biso   1.000  O
  O96      1.0000 0.11350  0.86620  0.62210  Biso   1.000  O
  O97      1.0000 0.80770  0.63840  0.86660  Biso   1.000  O
  O98      1.0000 0.16700  0.84700  0.32130  Biso   1.000  O
  O99      1.0000 0.33700  0.83720  0.45830  Biso   1.000  O
  W27      1.0000 0.26858  0.68175  0.84740  Biso   1.000  W
  W28      1.0000 0.53069  0.68186  0.90513  Biso   1.000  W
  W29      1.0000 0.23458  0.60681  0.62980  Biso   1.000  W
  W30      1.0000 0.46940  0.67529  0.48974  Biso   1.000  W
  W31      1.0000 0.20575  0.67505  0.43252  Biso   1.000  W
  W32      1.0000 0.49758  0.60662  0.68670  Biso   1.000  W
  W33      1.0000 0.03300  0.68203  0.65729  Biso   1.000  W
  O100     1.0000 0.96630  0.69570  0.52760  Biso   1.000  O
  O101     1.0000 0.40430  0.68720  0.89540  Biso   1.000  O
  O102     1.0000 0.49650  0.60980  0.56430  Biso   1.000  O
  O103     1.0000 0.49260  0.63310  0.80050  Biso   1.000  O
  O104     1.0000 0.59570  0.69820  0.54560  Biso   1.000  O
  O105     1.0000 0.25630  0.63720  0.92570  Biso   1.000  O
  O106     1.0000 0.27620  0.63670  0.75450  Biso   1.000  O
  O107     1.0000 0.13840  0.68710  0.76960  Biso   1.000  O
  O108     1.0000 0.08010  0.69720  0.43910  Biso   1.000  O
  O109     1.0000 0.36400  0.60080  0.64320  Biso   1.000  O
  W34      1.0000 0.72060  0.81815  0.80470  Biso   1.000  W
  O110     1.0000 0.20230  0.60950  0.50490  Biso   1.000  O
  O111     1.0000 0.47810  0.65500  0.39190  Biso   1.000  O
  O112     1.0000 0.21670  0.54110  0.64890  Biso   1.000  O
  O113     1.0000 0.57260  0.63970  0.99700  Biso   1.000  O
  O114     1.0000 0.45900  0.80710  0.63230  Biso   1.000  O
  O115     1.0000 0.95600  0.63850  0.68240  Biso   1.000  O
  O116     1.0000 0.52530  0.54030  0.70980  Biso   1.000  O
  O117     1.0000 0.64800  0.68760  0.88170  Biso   1.000  O
  O118     1.0000 0.26100  0.69420  0.58940  Biso   1.000  O
  O119     1.0000 0.75380  0.80350  0.69550  Biso   1.000  O
  O120     1.0000 0.62350  0.63560  0.72890  Biso   1.000  O
  O121     1.0000 0.11350  0.63380  0.62210  Biso   1.000  O
  O122     1.0000 0.80770  0.86160  0.86660  Biso   1.000  O
  O123     1.0000 0.16700  0.65300  0.32130  Biso   1.000  O
  O124     1.0000 0.33700  0.66280  0.45830  Biso   1.000  O
  As3      1.0000 0.23345  0.75000  0.63670  Biso   1.000  As
  As4      1.0000 0.50246  0.75000  0.69500  Biso   1.000  As
  W35      1.0000 0.00347  0.75000  0.45849  Biso   1.000  W
  W36      1.0000 0.69343  0.75000  0.60742  Biso   1.000  W
  O125     1.0000 0.90840  0.75000  0.35770  Biso   1.000  O
  O126     1.0000 0.11680  0.75000  0.61240  Biso   1.000  O
  O127     1.0000 0.56040  0.75000  0.97130  Biso   1.000  O
  O128     1.0000 0.75550  0.75000  0.53510  Biso   1.000  O
  O129     1.0000 0.61990  0.75000  0.72050  Biso   1.000  O
  O130     1.0000 0.99810  0.75000  0.68390  Biso   1.000  O
  O131     1.0000 0.77970  0.75000  0.85290  Biso   1.000  O
  O132     1.0000 0.26030  0.75000  0.90560  Biso   1.000  O
  O133     1.0000 0.28330  0.75000  0.75710  Biso   1.000  O
  O134     1.0000 0.48740  0.75000  0.79970  Biso   1.000  O
  O135     1.0000 0.22190  0.75000  0.41980  Biso   1.000  O
  O136     1.0000 0.44300  0.75000  0.46490  Biso   1.000  O
