data_HAWGIX_charged
_audit_creation_date              2014-07-02
_audit_creation_method            'Materials Studio'
_symmetry_space_group_name_H-M    'P1'
_symmetry_Int_Tables_number       1
_symmetry_cell_setting            triclinic
loop_
_symmetry_equiv_pos_as_xyz
  x,y,z
_cell_length_a                    10.2700
_cell_length_b                    16.5940
_cell_length_c                    28.6830
_cell_angle_alpha                 90.0000
_cell_angle_beta                  90.0000
_cell_angle_gamma                 104.9640
loop_
_atom_site_label
_atom_site_type_symbol
_atom_site_fract_x
_atom_site_fract_y
_atom_site_fract_z
_atom_site_U_iso_or_equiv
_atom_site_adp_type
_atom_site_occupancy
Cd1    Cd    0.96057   0.66812   0.34741   0.01267  Uiso   1.00
Cd2    Cd    0.60200   0.60010   0.30825   0.01267  Uiso   1.00
Cd3    Cd    0.03943   0.83188   0.84741   0.01267  Uiso   1.00
Cd4    Cd    0.39800   0.89990   0.80825   0.01267  Uiso   1.00
Cd5    Cd    0.03943   0.33188   0.65259   0.01267  Uiso   1.00
Cd6    Cd    0.39800   0.39990   0.69175   0.01267  Uiso   1.00
Cd7    Cd    0.96057   0.16812   0.15259   0.01267  Uiso   1.00
Cd8    Cd    0.60200   0.10010   0.19175   0.01267  Uiso   1.00
H1     H     0.73530   0.88830   0.24680   0.01267  Uiso   1.00
H2     H     0.02470   0.07540   0.30030   0.01267  Uiso   1.00
H3     H     0.92290   0.85560   0.36660   0.01267  Uiso   1.00
H4     H     0.10050   0.93460   0.42370   0.01267  Uiso   1.00
H5     H     0.96000   0.95620   0.42470   0.01267  Uiso   1.00
H6     H     0.87930   0.15150   0.43680   0.01267  Uiso   1.00
H7     H     0.83960   0.05450   0.44380   0.01267  Uiso   1.00
H8     H     0.92510   0.09410   0.40040   0.01267  Uiso   1.00
H9     H     0.20750   0.29610   0.54350   0.01267  Uiso   1.00
H10    H     0.35190   0.28110   0.54090   0.01267  Uiso   1.00
H11    H     0.24980   0.23600   0.57920   0.01267  Uiso   1.00
H12    H     0.26920   0.95280   0.44740   0.01267  Uiso   1.00
H13    H     0.34360   0.97760   0.49510   0.01267  Uiso   1.00
H14    H     0.40030   0.02640   0.44950   0.01267  Uiso   1.00
H15    H     0.74230   0.50870   0.47980   0.01267  Uiso   1.00
H16    H     0.82320   0.30330   0.53310   0.01267  Uiso   1.00
H17    H     0.03380   0.42020   0.42440   0.01267  Uiso   1.00
H18    H     0.89550   0.19740   0.50420   0.01267  Uiso   1.00
H19    H     0.00930   0.24900   0.53730   0.01267  Uiso   1.00
H20    H     0.34070   0.99770   0.64590   0.01267  Uiso   1.00
H21    H     0.62360   0.17610   0.58260   0.01267  Uiso   1.00
H22    H     0.69630   0.09500   0.70860   0.01267  Uiso   1.00
H23    H     0.47430   0.11290   0.51480   0.01267  Uiso   1.00
H24    H     0.44820   0.18950   0.54220   0.01267  Uiso   1.00
H25    H     0.39900   0.65600   0.36000   0.01267  Uiso   1.00
H26    H     0.34300   0.64200   0.31400   0.01267  Uiso   1.00
H27    H     0.66700   0.53900   0.39200   0.01267  Uiso   1.00
H28    H     0.54200   0.55400   0.40710   0.01267  Uiso   1.00
H29    H     0.26470   0.61170   0.74680   0.01267  Uiso   1.00
H30    H     0.97530   0.42460   0.80030   0.01267  Uiso   1.00
H31    H     0.07710   0.64440   0.86660   0.01267  Uiso   1.00
H32    H     0.89950   0.56540   0.92370   0.01267  Uiso   1.00
H33    H     0.04000   0.54380   0.92470   0.01267  Uiso   1.00
H34    H     0.12070   0.34850   0.93680   0.01267  Uiso   1.00
H35    H     0.16040   0.44550   0.94380   0.01267  Uiso   1.00
H36    H     0.07490   0.40590   0.90040   0.01267  Uiso   1.00
H37    H     0.79250   0.20390   0.04350   0.01267  Uiso   1.00
H38    H     0.64810   0.21890   0.04090   0.01267  Uiso   1.00
H39    H     0.75020   0.26400   0.07920   0.01267  Uiso   1.00
H40    H     0.73080   0.54720   0.94740   0.01267  Uiso   1.00
H41    H     0.65640   0.52240   0.99510   0.01267  Uiso   1.00
H42    H     0.59970   0.47360   0.94950   0.01267  Uiso   1.00
H43    H     0.25770   0.99130   0.97980   0.01267  Uiso   1.00
H44    H     0.17680   0.19670   0.03310   0.01267  Uiso   1.00
H45    H     0.96620   0.07980   0.92440   0.01267  Uiso   1.00
H46    H     0.10450   0.30260   0.00420   0.01267  Uiso   1.00
H47    H     0.99070   0.25100   0.03730   0.01267  Uiso   1.00
H48    H     0.65930   0.50230   0.14590   0.01267  Uiso   1.00
H49    H     0.37640   0.32390   0.08260   0.01267  Uiso   1.00
H50    H     0.30370   0.40500   0.20860   0.01267  Uiso   1.00
H51    H     0.52570   0.38710   0.01480   0.01267  Uiso   1.00
H52    H     0.55180   0.31050   0.04220   0.01267  Uiso   1.00
H53    H     0.60100   0.84400   0.86000   0.01267  Uiso   1.00
H54    H     0.65700   0.85800   0.81400   0.01267  Uiso   1.00
H55    H     0.33300   0.96100   0.89200   0.01267  Uiso   1.00
H56    H     0.45800   0.94600   0.90710   0.01267  Uiso   1.00
H57    H     0.26470   0.11170   0.75320   0.01267  Uiso   1.00
H58    H     0.97530   0.92460   0.69970   0.01267  Uiso   1.00
H59    H     0.07710   0.14440   0.63340   0.01267  Uiso   1.00
H60    H     0.89950   0.06540   0.57630   0.01267  Uiso   1.00
H61    H     0.04000   0.04380   0.57530   0.01267  Uiso   1.00
H62    H     0.12070   0.84850   0.56320   0.01267  Uiso   1.00
H63    H     0.16040   0.94550   0.55620   0.01267  Uiso   1.00
H64    H     0.07490   0.90590   0.59960   0.01267  Uiso   1.00
H65    H     0.79250   0.70390   0.45650   0.01267  Uiso   1.00
H66    H     0.64810   0.71890   0.45910   0.01267  Uiso   1.00
H67    H     0.75020   0.76400   0.42080   0.01267  Uiso   1.00
H68    H     0.73080   0.04720   0.55260   0.01267  Uiso   1.00
H69    H     0.65640   0.02240   0.50490   0.01267  Uiso   1.00
H70    H     0.59970   0.97360   0.55050   0.01267  Uiso   1.00
H71    H     0.25770   0.49130   0.52020   0.01267  Uiso   1.00
H72    H     0.17680   0.69670   0.46690   0.01267  Uiso   1.00
H73    H     0.96620   0.57980   0.57560   0.01267  Uiso   1.00
H74    H     0.10450   0.80260   0.49580   0.01267  Uiso   1.00
H75    H     0.99070   0.75100   0.46270   0.01267  Uiso   1.00
H76    H     0.65930   0.00230   0.35410   0.01267  Uiso   1.00
H77    H     0.37640   0.82390   0.41740   0.01267  Uiso   1.00
H78    H     0.30370   0.90500   0.29140   0.01267  Uiso   1.00
H79    H     0.52570   0.88710   0.48520   0.01267  Uiso   1.00
H80    H     0.55180   0.81050   0.45780   0.01267  Uiso   1.00
H81    H     0.60100   0.34400   0.64000   0.01267  Uiso   1.00
H82    H     0.65700   0.35800   0.68600   0.01267  Uiso   1.00
H83    H     0.33300   0.46100   0.60800   0.01267  Uiso   1.00
H84    H     0.45800   0.44600   0.59290   0.01267  Uiso   1.00
H85    H     0.73530   0.38830   0.25320   0.01267  Uiso   1.00
H86    H     0.02470   0.57540   0.19970   0.01267  Uiso   1.00
H87    H     0.92290   0.35560   0.13340   0.01267  Uiso   1.00
H88    H     0.10050   0.43460   0.07630   0.01267  Uiso   1.00
H89    H     0.96000   0.45620   0.07530   0.01267  Uiso   1.00
H90    H     0.87930   0.65150   0.06320   0.01267  Uiso   1.00
H91    H     0.83960   0.55450   0.05620   0.01267  Uiso   1.00
H92    H     0.92510   0.59410   0.09960   0.01267  Uiso   1.00
H93    H     0.20750   0.79610   0.95650   0.01267  Uiso   1.00
H94    H     0.35190   0.78110   0.95910   0.01267  Uiso   1.00
H95    H     0.24980   0.73600   0.92080   0.01267  Uiso   1.00
H96    H     0.26920   0.45280   0.05260   0.01267  Uiso   1.00
H97    H     0.34360   0.47760   0.00490   0.01267  Uiso   1.00
H98    H     0.40030   0.52640   0.05050   0.01267  Uiso   1.00
H99    H     0.74230   0.00870   0.02020   0.01267  Uiso   1.00
H100   H     0.82320   0.80330   0.96690   0.01267  Uiso   1.00
H101   H     0.03380   0.92020   0.07560   0.01267  Uiso   1.00
H102   H     0.89550   0.69740   0.99580   0.01267  Uiso   1.00
H103   H     0.00930   0.74900   0.96270   0.01267  Uiso   1.00
H104   H     0.34070   0.49770   0.85410   0.01267  Uiso   1.00
H105   H     0.62360   0.67610   0.91740   0.01267  Uiso   1.00
H106   H     0.69630   0.59500   0.79140   0.01267  Uiso   1.00
H107   H     0.47430   0.61290   0.98520   0.01267  Uiso   1.00
H108   H     0.44820   0.68950   0.95780   0.01267  Uiso   1.00
H109   H     0.39900   0.15600   0.14000   0.01267  Uiso   1.00
H110   H     0.34300   0.14200   0.18600   0.01267  Uiso   1.00
H111   H     0.66700   0.03900   0.10800   0.01267  Uiso   1.00
H112   H     0.54200   0.05400   0.09290   0.01267  Uiso   1.00
C1     C     0.74050   0.76740   0.30660   0.01267  Uiso   1.00
C2     C     0.81720   0.85720   0.30610   0.01267  Uiso   1.00
C3     C     0.79970   0.90870   0.26960   0.01267  Uiso   1.00
C4     C     0.87770   0.99000   0.26710   0.01267  Uiso   1.00
C5     C     0.97120   0.02100   0.30210   0.01267  Uiso   1.00
C6     C     0.98520   0.97130   0.33970   0.01267  Uiso   1.00
C7     C     0.91130   0.88940   0.34190   0.01267  Uiso   1.00
C8     C     0.86450   0.04600   0.22600   0.01267  Uiso   1.00
C9     C     0.05560   0.97880   0.41900   0.01267  Uiso   1.00
C10    C     0.11220   0.05000   0.45210   0.01267  Uiso   1.00
C11    C     0.03550   0.10810   0.46000   0.01267  Uiso   1.00
C12    C     0.08050   0.17180   0.49230   0.01267  Uiso   1.00
C13    C     0.20590   0.18250   0.51440   0.01267  Uiso   1.00
C14    C     0.28110   0.12420   0.50620   0.01267  Uiso   1.00
C15    C     0.23560   0.05890   0.47490   0.01267  Uiso   1.00
C16    C     0.90840   0.10140   0.43280   0.01267  Uiso   1.00
C17    C     0.25870   0.25570   0.54760   0.01267  Uiso   1.00
C18    C     0.31980   0.99840   0.46590   0.01267  Uiso   1.00
C19    C     0.92020   0.54380   0.41100   0.01267  Uiso   1.00
C20    C     0.89160   0.47530   0.44640   0.01267  Uiso   1.00
C21    C     0.79290   0.46960   0.47940   0.01267  Uiso   1.00
C22    C     0.76780   0.40630   0.51220   0.01267  Uiso   1.00
C23    C     0.84050   0.34640   0.51140   0.01267  Uiso   1.00
C24    C     0.93840   0.35170   0.47800   0.01267  Uiso   1.00
C25    C     0.96540   0.41630   0.44620   0.01267  Uiso   1.00
C26    C     0.66040   0.39980   0.54980   0.01267  Uiso   1.00
C27    C     0.98960   0.22820   0.50580   0.01267  Uiso   1.00
C28    C     0.46650   0.98130   0.72500   0.01267  Uiso   1.00
C29    C     0.51010   0.03630   0.68380   0.01267  Uiso   1.00
C30    C     0.42600   0.03460   0.64600   0.01267  Uiso   1.00
C31    C     0.46720   0.08720   0.60820   0.01267  Uiso   1.00
C32    C     0.59500   0.14140   0.60810   0.01267  Uiso   1.00
C33    C     0.68000   0.14430   0.64570   0.01267  Uiso   1.00
C34    C     0.63880   0.09270   0.68330   0.01267  Uiso   1.00
C35    C     0.81550   0.20480   0.64650   0.01267  Uiso   1.00
C36    C     0.40910   0.13190   0.53340   0.01267  Uiso   1.00
C37    C     0.25950   0.73260   0.80660   0.01267  Uiso   1.00
C38    C     0.18280   0.64280   0.80610   0.01267  Uiso   1.00
C39    C     0.20030   0.59130   0.76960   0.01267  Uiso   1.00
C40    C     0.12230   0.51000   0.76710   0.01267  Uiso   1.00
C41    C     0.02880   0.47900   0.80210   0.01267  Uiso   1.00
C42    C     0.01480   0.52870   0.83970   0.01267  Uiso   1.00
C43    C     0.08870   0.61060   0.84190   0.01267  Uiso   1.00
C44    C     0.13550   0.45400   0.72600   0.01267  Uiso   1.00
C45    C     0.94440   0.52120   0.91900   0.01267  Uiso   1.00
C46    C     0.88780   0.45000   0.95210   0.01267  Uiso   1.00
C47    C     0.96450   0.39190   0.96000   0.01267  Uiso   1.00
C48    C     0.91950   0.32820   0.99230   0.01267  Uiso   1.00
C49    C     0.79410   0.31750   0.01440   0.01267  Uiso   1.00
C50    C     0.71890   0.37580   0.00620   0.01267  Uiso   1.00
C51    C     0.76440   0.44110   0.97490   0.01267  Uiso   1.00
C52    C     0.09160   0.39860   0.93280   0.01267  Uiso   1.00
C53    C     0.74130   0.24430   0.04760   0.01267  Uiso   1.00
C54    C     0.68020   0.50160   0.96590   0.01267  Uiso   1.00
C55    C     0.07980   0.95620   0.91100   0.01267  Uiso   1.00
C56    C     0.10840   0.02470   0.94640   0.01267  Uiso   1.00
C57    C     0.20710   0.03040   0.97940   0.01267  Uiso   1.00
C58    C     0.23220   0.09370   0.01220   0.01267  Uiso   1.00
C59    C     0.15950   0.15360   0.01140   0.01267  Uiso   1.00
C60    C     0.06160   0.14830   0.97800   0.01267  Uiso   1.00
C61    C     0.03460   0.08370   0.94620   0.01267  Uiso   1.00
C62    C     0.33960   0.10020   0.04980   0.01267  Uiso   1.00
C63    C     0.01040   0.27180   0.00580   0.01267  Uiso   1.00
C64    C     0.53350   0.51870   0.22500   0.01267  Uiso   1.00
C65    C     0.48990   0.46370   0.18380   0.01267  Uiso   1.00
C66    C     0.57400   0.46540   0.14600   0.01267  Uiso   1.00
C67    C     0.53280   0.41280   0.10820   0.01267  Uiso   1.00
C68    C     0.40500   0.35860   0.10810   0.01267  Uiso   1.00
C69    C     0.32000   0.35570   0.14570   0.01267  Uiso   1.00
C70    C     0.36120   0.40730   0.18330   0.01267  Uiso   1.00
C71    C     0.18450   0.29520   0.14650   0.01267  Uiso   1.00
C72    C     0.59090   0.36810   0.03340   0.01267  Uiso   1.00
C73    C     0.25950   0.23260   0.69340   0.01267  Uiso   1.00
C74    C     0.18280   0.14280   0.69390   0.01267  Uiso   1.00
C75    C     0.20030   0.09130   0.73040   0.01267  Uiso   1.00
C76    C     0.12230   0.01000   0.73290   0.01267  Uiso   1.00
C77    C     0.02880   0.97900   0.69790   0.01267  Uiso   1.00
C78    C     0.01480   0.02870   0.66030   0.01267  Uiso   1.00
C79    C     0.08870   0.11060   0.65810   0.01267  Uiso   1.00
C80    C     0.13550   0.95400   0.77400   0.01267  Uiso   1.00
C81    C     0.94440   0.02120   0.58100   0.01267  Uiso   1.00
C82    C     0.88780   0.95000   0.54790   0.01267  Uiso   1.00
C83    C     0.96450   0.89190   0.54000   0.01267  Uiso   1.00
C84    C     0.91950   0.82820   0.50770   0.01267  Uiso   1.00
C85    C     0.79410   0.81750   0.48560   0.01267  Uiso   1.00
C86    C     0.71890   0.87580   0.49380   0.01267  Uiso   1.00
C87    C     0.76440   0.94110   0.52510   0.01267  Uiso   1.00
C88    C     0.09160   0.89860   0.56720   0.01267  Uiso   1.00
C89    C     0.74130   0.74430   0.45240   0.01267  Uiso   1.00
C90    C     0.68020   0.00160   0.53410   0.01267  Uiso   1.00
C91    C     0.07980   0.45620   0.58900   0.01267  Uiso   1.00
C92    C     0.10840   0.52470   0.55360   0.01267  Uiso   1.00
C93    C     0.20710   0.53040   0.52060   0.01267  Uiso   1.00
C94    C     0.23220   0.59370   0.48780   0.01267  Uiso   1.00
C95    C     0.15950   0.65360   0.48860   0.01267  Uiso   1.00
C96    C     0.06160   0.64830   0.52200   0.01267  Uiso   1.00
C97    C     0.03460   0.58370   0.55380   0.01267  Uiso   1.00
C98    C     0.33960   0.60020   0.45020   0.01267  Uiso   1.00
C99    C     0.01040   0.77180   0.49420   0.01267  Uiso   1.00
C100   C     0.53350   0.01870   0.27500   0.01267  Uiso   1.00
C101   C     0.48990   0.96370   0.31620   0.01267  Uiso   1.00
C102   C     0.57400   0.96540   0.35400   0.01267  Uiso   1.00
C103   C     0.53280   0.91280   0.39180   0.01267  Uiso   1.00
C104   C     0.40500   0.85860   0.39190   0.01267  Uiso   1.00
C105   C     0.32000   0.85570   0.35430   0.01267  Uiso   1.00
C106   C     0.36120   0.90730   0.31670   0.01267  Uiso   1.00
C107   C     0.18450   0.79520   0.35350   0.01267  Uiso   1.00
C108   C     0.59090   0.86810   0.46660   0.01267  Uiso   1.00
C109   C     0.74050   0.26740   0.19340   0.01267  Uiso   1.00
C110   C     0.81720   0.35720   0.19390   0.01267  Uiso   1.00
C111   C     0.79970   0.40870   0.23040   0.01267  Uiso   1.00
C112   C     0.87770   0.49000   0.23290   0.01267  Uiso   1.00
C113   C     0.97120   0.52100   0.19790   0.01267  Uiso   1.00
C114   C     0.98520   0.47130   0.16030   0.01267  Uiso   1.00
C115   C     0.91130   0.38940   0.15810   0.01267  Uiso   1.00
C116   C     0.86450   0.54600   0.27400   0.01267  Uiso   1.00
C117   C     0.05560   0.47880   0.08100   0.01267  Uiso   1.00
C118   C     0.11220   0.55000   0.04790   0.01267  Uiso   1.00
C119   C     0.03550   0.60810   0.04000   0.01267  Uiso   1.00
C120   C     0.08050   0.67180   0.00770   0.01267  Uiso   1.00
C121   C     0.20590   0.68250   0.98560   0.01267  Uiso   1.00
C122   C     0.28110   0.62420   0.99380   0.01267  Uiso   1.00
C123   C     0.23560   0.55890   0.02510   0.01267  Uiso   1.00
C124   C     0.90840   0.60140   0.06720   0.01267  Uiso   1.00
C125   C     0.25870   0.75570   0.95240   0.01267  Uiso   1.00
C126   C     0.31980   0.49840   0.03410   0.01267  Uiso   1.00
C127   C     0.92020   0.04380   0.08900   0.01267  Uiso   1.00
C128   C     0.89160   0.97530   0.05360   0.01267  Uiso   1.00
C129   C     0.79290   0.96960   0.02060   0.01267  Uiso   1.00
C130   C     0.76780   0.90630   0.98780   0.01267  Uiso   1.00
C131   C     0.84050   0.84640   0.98860   0.01267  Uiso   1.00
C132   C     0.93840   0.85170   0.02200   0.01267  Uiso   1.00
C133   C     0.96540   0.91630   0.05380   0.01267  Uiso   1.00
C134   C     0.66040   0.89980   0.95020   0.01267  Uiso   1.00
C135   C     0.98960   0.72820   0.99420   0.01267  Uiso   1.00
C136   C     0.46650   0.48130   0.77500   0.01267  Uiso   1.00
C137   C     0.51010   0.53630   0.81620   0.01267  Uiso   1.00
C138   C     0.42600   0.53460   0.85400   0.01267  Uiso   1.00
C139   C     0.46720   0.58720   0.89180   0.01267  Uiso   1.00
C140   C     0.59500   0.64140   0.89190   0.01267  Uiso   1.00
C141   C     0.68000   0.64430   0.85430   0.01267  Uiso   1.00
C142   C     0.63880   0.59270   0.81670   0.01267  Uiso   1.00
C143   C     0.81550   0.70480   0.85350   0.01267  Uiso   1.00
C144   C     0.40910   0.63190   0.96660   0.01267  Uiso   1.00
O1     O     0.77380   0.71620   0.33379   0.01267  Uiso   1.00
O2     O     0.64190   0.74450   0.28037   0.01267  Uiso   1.00
O3     O     0.76940   0.02390   0.19820   0.01267  Uiso   1.00
O4     O     0.95440   0.11300   0.22343   0.01267  Uiso   1.00
O5     O     0.07710   0.00990   0.37283   0.01267  Uiso   1.00
O6     O     0.84990   0.59510   0.40989   0.01267  Uiso   1.00
O7     O     0.01720   0.54930   0.38226   0.01267  Uiso   1.00
O8     O     0.58920   0.45210   0.54900   0.01267  Uiso   1.00
O9     O     0.63480   0.33940   0.57630   0.01267  Uiso   1.00
O10    O     0.01620   0.29550   0.47350   0.01267  Uiso   1.00
O11    O     0.37520   0.91580   0.72160   0.01267  Uiso   1.00
O12    O     0.52410   0.00350   0.76360   0.01267  Uiso   1.00
O13    O     0.86840   0.22750   0.68544   0.01267  Uiso   1.00
O14    O     0.87390   0.23200   0.61062   0.01267  Uiso   1.00
O15    O     0.37440   0.08150   0.57373   0.01267  Uiso   1.00
O16    O     0.40600   0.62930   0.33330   0.01267  Uiso   1.00
O17    O     0.58630   0.54240   0.38210   0.01267  Uiso   1.00
O18    O     0.22620   0.78380   0.83379   0.01267  Uiso   1.00
O19    O     0.35810   0.75550   0.78037   0.01267  Uiso   1.00
O20    O     0.23060   0.47610   0.69820   0.01267  Uiso   1.00
O21    O     0.04560   0.38700   0.72343   0.01267  Uiso   1.00
O22    O     0.92290   0.49010   0.87283   0.01267  Uiso   1.00
O23    O     0.15010   0.90490   0.90989   0.01267  Uiso   1.00
O24    O     0.98280   0.95070   0.88226   0.01267  Uiso   1.00
O25    O     0.41080   0.04790   0.04900   0.01267  Uiso   1.00
O26    O     0.36520   0.16060   0.07630   0.01267  Uiso   1.00
O27    O     0.98380   0.20450   0.97350   0.01267  Uiso   1.00
O28    O     0.62480   0.58420   0.22160   0.01267  Uiso   1.00
O29    O     0.47590   0.49650   0.26360   0.01267  Uiso   1.00
O30    O     0.13160   0.27250   0.18544   0.01267  Uiso   1.00
O31    O     0.12610   0.26800   0.11062   0.01267  Uiso   1.00
O32    O     0.62560   0.41850   0.07373   0.01267  Uiso   1.00
O33    O     0.59400   0.87070   0.83330   0.01267  Uiso   1.00
O34    O     0.41370   0.95760   0.88210   0.01267  Uiso   1.00
O35    O     0.22620   0.28380   0.66621   0.01267  Uiso   1.00
O36    O     0.35810   0.25550   0.71963   0.01267  Uiso   1.00
O37    O     0.23060   0.97610   0.80180   0.01267  Uiso   1.00
O38    O     0.04560   0.88700   0.77657   0.01267  Uiso   1.00
O39    O     0.92290   0.99010   0.62717   0.01267  Uiso   1.00
O40    O     0.15010   0.40490   0.59011   0.01267  Uiso   1.00
O41    O     0.98280   0.45070   0.61774   0.01267  Uiso   1.00
O42    O     0.41080   0.54790   0.45100   0.01267  Uiso   1.00
O43    O     0.36520   0.66060   0.42370   0.01267  Uiso   1.00
O44    O     0.98380   0.70450   0.52650   0.01267  Uiso   1.00
O45    O     0.62480   0.08420   0.27840   0.01267  Uiso   1.00
O46    O     0.47590   0.99650   0.23640   0.01267  Uiso   1.00
O47    O     0.13160   0.77250   0.31456   0.01267  Uiso   1.00
O48    O     0.12610   0.76800   0.38938   0.01267  Uiso   1.00
O49    O     0.62560   0.91850   0.42627   0.01267  Uiso   1.00
O50    O     0.59400   0.37070   0.66670   0.01267  Uiso   1.00
O51    O     0.41370   0.45760   0.61790   0.01267  Uiso   1.00
O52    O     0.77380   0.21620   0.16621   0.01267  Uiso   1.00
O53    O     0.64190   0.24450   0.21963   0.01267  Uiso   1.00
O54    O     0.76940   0.52390   0.30180   0.01267  Uiso   1.00
O55    O     0.95440   0.61300   0.27657   0.01267  Uiso   1.00
O56    O     0.07710   0.50990   0.12717   0.01267  Uiso   1.00
O57    O     0.84990   0.09510   0.09011   0.01267  Uiso   1.00
O58    O     0.01720   0.04930   0.11774   0.01267  Uiso   1.00
O59    O     0.58920   0.95210   0.95100   0.01267  Uiso   1.00
O60    O     0.63480   0.83940   0.92370   0.01267  Uiso   1.00
O61    O     0.01620   0.79550   0.02650   0.01267  Uiso   1.00
O62    O     0.37520   0.41580   0.77840   0.01267  Uiso   1.00
O63    O     0.52410   0.50350   0.73640   0.01267  Uiso   1.00
O64    O     0.86840   0.72750   0.81456   0.01267  Uiso   1.00
O65    O     0.87390   0.73200   0.88938   0.01267  Uiso   1.00
O66    O     0.37440   0.58150   0.92627   0.01267  Uiso   1.00
O67    O     0.40600   0.12930   0.16670   0.01267  Uiso   1.00
O68    O     0.58630   0.04240   0.11790   0.01267  Uiso   1.00
