data_image0
_cell_length_a       11.1053
_cell_length_b       12.5767
_cell_length_c       20.0751
_cell_angle_alpha    82.84
_cell_angle_beta     77.765
_cell_angle_gamma    79.258

_symmetry_space_group_name_H-M    P 1
_symmetry_int_tables_number       1

loop_
  _symmetry_equiv_pos_as_xyz
  'x, y, z'

loop_
  _atom_site_label
  _atom_site_occupancy
  _atom_site_fract_x
  _atom_site_fract_y
  _atom_site_fract_z
  _atom_site_thermal_displace_type
  _atom_site_B_iso_or_equiv
  _atom_site_type_symbol
  Mn1      1.0000 0.47676  0.76862  0.75526  Biso   1.000  Mn
  Mn2      1.0000 0.37142  0.51055  0.77220  Biso   1.000  Mn
  Mn3      1.0000 0.62848  0.28246  0.73460  Biso   1.000  Mn
  Mn4      1.0000 0.32630  0.25547  0.77027  Biso   1.000  Mn
  Mn5      1.0000 0.58037  0.02530  0.74234  Biso   1.000  Mn
  Mn6      1.0000 0.52324  0.23138  0.24474  Biso   1.000  Mn
  Mn7      1.0000 0.62858  0.48945  0.22780  Biso   1.000  Mn
  Mn8      1.0000 0.37152  0.71754  0.26540  Biso   1.000  Mn
  Mn9      1.0000 0.67370  0.74453  0.22973  Biso   1.000  Mn
  Mn10     1.0000 0.41963  0.97470  0.25766  Biso   1.000  Mn
  H1       1.0000 0.94370  0.88640  0.74950  Biso   1.000  H
  H2       1.0000 0.14740  0.80110  0.75100  Biso   1.000  H
  H3       1.0000 0.03110  0.18540  0.75750  Biso   1.000  H
  H4       1.0000 0.00490  0.64860  0.77260  Biso   1.000  H
  H5       1.0000 0.80070  0.73390  0.76960  Biso   1.000  H
  H6       1.0000 0.92420  0.35270  0.75220  Biso   1.000  H
  H7       1.0000 0.44950  0.93440  0.47230  Biso   1.000  H
  H8       1.0000 0.46500  0.90820  0.58780  Biso   1.000  H
  H9       1.0000 0.29780  0.66010  0.48680  Biso   1.000  H
  H10      1.0000 0.56990  0.55500  0.01610  Biso   1.000  H
  H11      1.0000 0.51830  0.60810  0.90940  Biso   1.000  H
  H12      1.0000 0.67860  0.84500  0.02340  Biso   1.000  H
  H13      1.0000 0.28620  0.61960  0.90640  Biso   1.000  H
  H14      1.0000 0.18400  0.67240  0.86240  Biso   1.000  H
  H15      1.0000 0.17460  0.75490  0.94570  Biso   1.000  H
  H16      1.0000 0.31590  0.77490  0.92000  Biso   1.000  H
  H17      1.0000 0.21200  0.82800  0.87580  Biso   1.000  H
  H18      1.0000 0.77710  0.85720  0.65800  Biso   1.000  H
  H19      1.0000 0.68660  0.92220  0.61010  Biso   1.000  H
  H20      1.0000 0.79130  0.78350  0.57040  Biso   1.000  H
  H21      1.0000 0.73640  0.70980  0.63670  Biso   1.000  H
  H22      1.0000 0.64560  0.77560  0.58810  Biso   1.000  H
  H23      1.0000 0.51730  0.16430  0.84050  Biso   1.000  H
  H24      1.0000 0.43760  0.38070  0.66780  Biso   1.000  H
  H25      1.0000 0.27950  0.69820  0.79120  Biso   1.000  H
  H26      1.0000 0.58030  0.93770  0.69350  Biso   1.000  H
  H27      1.0000 0.05630  0.11360  0.25050  Biso   1.000  H
  H28      1.0000 0.85260  0.19890  0.24900  Biso   1.000  H
  H29      1.0000 0.96890  0.81460  0.24250  Biso   1.000  H
  H30      1.0000 0.99510  0.35140  0.22740  Biso   1.000  H
  H31      1.0000 0.19930  0.26610  0.23040  Biso   1.000  H
  H32      1.0000 0.07580  0.64730  0.24780  Biso   1.000  H
  H33      1.0000 0.55050  0.06560  0.52770  Biso   1.000  H
  H34      1.0000 0.53500  0.09180  0.41220  Biso   1.000  H
  H35      1.0000 0.70220  0.33990  0.51320  Biso   1.000  H
  H36      1.0000 0.43010  0.44500  0.98390  Biso   1.000  H
  H37      1.0000 0.48170  0.39190  0.09060  Biso   1.000  H
  H38      1.0000 0.32140  0.15500  0.97660  Biso   1.000  H
  H39      1.0000 0.71380  0.38040  0.09360  Biso   1.000  H
  H40      1.0000 0.81600  0.32760  0.13760  Biso   1.000  H
  H41      1.0000 0.82540  0.24510  0.05430  Biso   1.000  H
  H42      1.0000 0.68410  0.22510  0.08000  Biso   1.000  H
  H43      1.0000 0.78800  0.17200  0.12420  Biso   1.000  H
  H44      1.0000 0.22290  0.14280  0.34200  Biso   1.000  H
  H45      1.0000 0.31340  0.07780  0.38990  Biso   1.000  H
  H46      1.0000 0.20870  0.21650  0.42960  Biso   1.000  H
  H47      1.0000 0.26360  0.29020  0.36330  Biso   1.000  H
  H48      1.0000 0.35440  0.22440  0.41190  Biso   1.000  H
  H49      1.0000 0.48270  0.83570  0.15950  Biso   1.000  H
  H50      1.0000 0.56240  0.61930  0.33220  Biso   1.000  H
  H51      1.0000 0.72050  0.30180  0.20880  Biso   1.000  H
  H52      1.0000 0.41970  0.06230  0.30650  Biso   1.000  H
  C1       1.0000 0.83690  0.09320  0.74710  Biso   1.000  C
  C2       1.0000 0.96960  0.04350  0.75190  Biso   1.000  C
  C3       1.0000 0.00540  0.92880  0.75080  Biso   1.000  C
  C4       1.0000 0.12460  0.87760  0.75170  Biso   1.000  C
  C5       1.0000 0.21280  0.94470  0.75380  Biso   1.000  C
  C6       1.0000 0.17740  0.05720  0.75650  Biso   1.000  C
  C7       1.0000 0.05470  0.10910  0.75560  Biso   1.000  C
  C8       1.0000 0.11500  0.44420  0.76610  Biso   1.000  C
  C9       1.0000 0.98160  0.49260  0.76280  Biso   1.000  C
  C10      1.0000 0.94460  0.60680  0.76810  Biso   1.000  C
  C11      1.0000 0.82470  0.65770  0.76690  Biso   1.000  C
  C12      1.0000 0.73840  0.59110  0.76130  Biso   1.000  C
  C13      1.0000 0.77550  0.47910  0.75670  Biso   1.000  C
  C14      1.0000 0.89900  0.42830  0.75650  Biso   1.000  C
  C15      1.0000 0.37590  0.81310  0.39250  Biso   1.000  C
  C16      1.0000 0.37680  0.79750  0.46820  Biso   1.000  C
  C17      1.0000 0.42420  0.87190  0.49930  Biso   1.000  C
  C18      1.0000 0.43500  0.85690  0.56730  Biso   1.000  C
  C19      1.0000 0.39940  0.76180  0.60440  Biso   1.000  C
  C20      1.0000 0.34980  0.68930  0.57460  Biso   1.000  C
  C21      1.0000 0.33510  0.70770  0.50630  Biso   1.000  C
  C22      1.0000 0.65360  0.65970  0.10010  Biso   1.000  C
  C23      1.0000 0.62780  0.69520  0.02960  Biso   1.000  C
  C24      1.0000 0.58070  0.62540  0.99490  Biso   1.000  C
  C25      1.0000 0.55010  0.65560  0.93200  Biso   1.000  C
  C26      1.0000 0.56810  0.76080  0.90230  Biso   1.000  C
  C27      1.0000 0.61600  0.83010  0.93580  Biso   1.000  C
  C28      1.0000 0.64650  0.79800  0.00050  Biso   1.000  C
  C29      1.0000 0.26440  0.68140  0.87310  Biso   1.000  C
  C30      1.0000 0.24040  0.76430  0.90540  Biso   1.000  C
  C31      1.0000 0.69850  0.85660  0.64240  Biso   1.000  C
  C32      1.0000 0.71910  0.77710  0.60750  Biso   1.000  C
  C33      1.0000 0.16310  0.90680  0.25290  Biso   1.000  C
  C34      1.0000 0.03040  0.95650  0.24810  Biso   1.000  C
  C35      1.0000 0.99460  0.07120  0.24920  Biso   1.000  C
  C36      1.0000 0.87540  0.12240  0.24830  Biso   1.000  C
  C37      1.0000 0.78720  0.05530  0.24620  Biso   1.000  C
  C38      1.0000 0.82260  0.94280  0.24350  Biso   1.000  C
  C39      1.0000 0.94530  0.89090  0.24440  Biso   1.000  C
  C40      1.0000 0.88500  0.55580  0.23390  Biso   1.000  C
  C41      1.0000 0.01840  0.50740  0.23720  Biso   1.000  C
  C42      1.0000 0.05540  0.39320  0.23190  Biso   1.000  C
  C43      1.0000 0.17530  0.34230  0.23310  Biso   1.000  C
  C44      1.0000 0.26160  0.40890  0.23870  Biso   1.000  C
  C45      1.0000 0.22450  0.52090  0.24330  Biso   1.000  C
  C46      1.0000 0.10100  0.57170  0.24350  Biso   1.000  C
  C47      1.0000 0.62410  0.18690  0.60750  Biso   1.000  C
  C48      1.0000 0.62320  0.20250  0.53180  Biso   1.000  C
  C49      1.0000 0.57580  0.12810  0.50070  Biso   1.000  C
  C50      1.0000 0.56500  0.14310  0.43270  Biso   1.000  C
  C51      1.0000 0.60060  0.23820  0.39560  Biso   1.000  C
  C52      1.0000 0.65020  0.31070  0.42540  Biso   1.000  C
  C53      1.0000 0.66490  0.29230  0.49370  Biso   1.000  C
  C54      1.0000 0.34640  0.34030  0.89990  Biso   1.000  C
  C55      1.0000 0.37220  0.30480  0.97040  Biso   1.000  C
  C56      1.0000 0.41930  0.37460  0.00510  Biso   1.000  C
  C57      1.0000 0.44990  0.34440  0.06800  Biso   1.000  C
  C58      1.0000 0.43190  0.23920  0.09770  Biso   1.000  C
  C59      1.0000 0.38400  0.16990  0.06420  Biso   1.000  C
  C60      1.0000 0.35350  0.20200  0.99950  Biso   1.000  C
  C61      1.0000 0.73560  0.31860  0.12690  Biso   1.000  C
  C62      1.0000 0.75960  0.23570  0.09460  Biso   1.000  C
  C63      1.0000 0.30150  0.14340  0.35760  Biso   1.000  C
  C64      1.0000 0.28090  0.22290  0.39250  Biso   1.000  C
  N1       1.0000 0.33770  0.92080  0.75320  Biso   1.000  N
  N2       1.0000 0.37590  0.01400  0.75530  Biso   1.000  N
  N3       1.0000 0.28330  0.09850  0.75740  Biso   1.000  N
  N4       1.0000 0.67070  0.43790  0.75340  Biso   1.000  N
  N5       1.0000 0.57700  0.52250  0.75570  Biso   1.000  N
  N6       1.0000 0.61480  0.61490  0.76000  Biso   1.000  N
  N7       1.0000 0.32770  0.60440  0.62170  Biso   1.000  N
  N8       1.0000 0.36400  0.62360  0.67670  Biso   1.000  N
  N9       1.0000 0.40720  0.71780  0.66910  Biso   1.000  N
  N10      1.0000 0.54670  0.81540  0.84180  Biso   1.000  N
  N11      1.0000 0.58120  0.91310  0.83970  Biso   1.000  N
  N12      1.0000 0.62210  0.92620  0.89490  Biso   1.000  N
  N13      1.0000 0.66230  0.07920  0.24680  Biso   1.000  N
  N14      1.0000 0.62410  0.98600  0.24470  Biso   1.000  N
  N15      1.0000 0.71670  0.90150  0.24260  Biso   1.000  N
  N16      1.0000 0.32930  0.56210  0.24660  Biso   1.000  N
  N17      1.0000 0.42300  0.47750  0.24430  Biso   1.000  N
  N18      1.0000 0.38520  0.38510  0.24000  Biso   1.000  N
  N19      1.0000 0.67230  0.39560  0.37830  Biso   1.000  N
  N20      1.0000 0.63600  0.37640  0.32330  Biso   1.000  N
  N21      1.0000 0.59280  0.28220  0.33090  Biso   1.000  N
  N22      1.0000 0.45330  0.18460  0.15820  Biso   1.000  N
  N23      1.0000 0.41880  0.08690  0.16030  Biso   1.000  N
  N24      1.0000 0.37790  0.07380  0.10510  Biso   1.000  N
  O1       1.0000 0.77150  0.03240  0.73241  Biso   1.000  O
  O2       1.0000 0.80120  0.19190  0.75739  Biso   1.000  O
  O3       1.0000 0.15270  0.34740  0.75094  Biso   1.000  O
  O4       1.0000 0.17990  0.50330  0.78381  Biso   1.000  O
  O5       1.0000 0.32620  0.74780  0.36883  Biso   1.000  O
  O6       1.0000 0.42730  0.88910  0.35831  Biso   1.000  O
  O7       1.0000 0.61150  0.57690  0.13050  Biso   1.000  O
  O8       1.0000 0.71070  0.71710  0.12552  Biso   1.000  O
  O9       1.0000 0.51400  0.17360  0.79069  Biso   1.000  O
  O10      1.0000 0.44190  0.36680  0.71745  Biso   1.000  O
  O11      1.0000 0.34410  0.66580  0.81909  Biso   1.000  O
  O12      1.0000 0.61190  0.87160  0.69402  Biso   1.000  O
  O13      1.0000 0.22850  0.96760  0.26759  Biso   1.000  O
  O14      1.0000 0.19880  0.80810  0.24261  Biso   1.000  O
  O15      1.0000 0.84730  0.65260  0.24906  Biso   1.000  O
  O16      1.0000 0.82010  0.49670  0.21619  Biso   1.000  O
  O17      1.0000 0.67380  0.25220  0.63117  Biso   1.000  O
  O18      1.0000 0.57270  0.11090  0.64169  Biso   1.000  O
  O19      1.0000 0.38850  0.42310  0.86950  Biso   1.000  O
  O20      1.0000 0.28930  0.28290  0.87448  Biso   1.000  O
  O21      1.0000 0.48600  0.82640  0.20931  Biso   1.000  O
  O22      1.0000 0.55810  0.63320  0.28255  Biso   1.000  O
  O23      1.0000 0.65590  0.33420  0.18091  Biso   1.000  O
  O24      1.0000 0.38810  0.12840  0.30598  Biso   1.000  O
