data_image0
_cell_length_a       11.614
_cell_length_b       16.0888
_cell_length_c       12.0204
_cell_angle_alpha    90
_cell_angle_beta     112.699
_cell_angle_gamma    90

_symmetry_space_group_name_H-M    "P 1"
_symmetry_int_tables_number       1

loop_
  _symmetry_equiv_pos_as_xyz
  'x, y, z'

loop_
  _atom_site_label
  _atom_site_occupancy
  _atom_site_fract_x
  _atom_site_fract_y
  _atom_site_fract_z
  _atom_site_thermal_displace_type
  _atom_site_B_iso_or_equiv
  _atom_site_type_symbol
  Er1      1.0000 0.19445  0.02789  0.57939  Biso   1.000  Er
  S1       1.0000 0.05297  0.21983  0.21461  Biso   1.000  S
  S2       1.0000 0.49008  0.28376  0.75024  Biso   1.000  S
  O1       1.0000 0.12760  0.07640  0.38260  Biso   1.000  O
  O2       1.0000 0.93350  0.03000  0.34200  Biso   1.000  O
  O3       1.0000 0.05880  0.36510  0.06930  Biso   1.000  O
  O4       1.0000 0.85970  0.40410  0.02370  Biso   1.000  O
  O5       1.0000 0.27510  0.10360  0.77880  Biso   1.000  O
  O6       1.0000 0.33420  0.14050  0.63230  Biso   1.000  O
  O7       1.0000 0.65020  0.43460  0.79390  Biso   1.000  O
  O8       1.0000 0.62700  0.47750  0.95890  Biso   1.000  O
  C1       1.0000 0.95730  0.15400  0.25020  Biso   1.000  C
  C2       1.0000 0.83480  0.17770  0.19930  Biso   1.000  C
  H1       1.0000 0.76940  0.14880  0.20790  Biso   1.000  H
  C3       1.0000 0.82060  0.25120  0.13250  Biso   1.000  C
  H2       1.0000 0.74400  0.27710  0.09330  Biso   1.000  H
  C4       1.0000 0.92910  0.28080  0.13070  Biso   1.000  C
  C5       1.0000 0.01090  0.08080  0.33010  Biso   1.000  C
  C6       1.0000 0.95070  0.35610  0.06950  Biso   1.000  C
  C7       1.0000 0.39330  0.22850  0.80110  Biso   1.000  C
  C8       1.0000 0.38390  0.26530  0.90010  Biso   1.000  C
  H3       1.0000 0.33620  0.24390  0.94020  Biso   1.000  H
  C9       1.0000 0.45440  0.33900  0.93470  Biso   1.000  C
  H4       1.0000 0.45670  0.37200  0.99910  Biso   1.000  H
  C10      1.0000 0.51850  0.35680  0.86420  Biso   1.000  C
  C11      1.0000 0.33080  0.15210  0.73480  Biso   1.000  C
  C12      1.0000 0.60340  0.42670  0.87230  Biso   1.000  C
  Er2      1.0000 0.80555  0.52789  0.92061  Biso   1.000  Er
  S3       1.0000 0.94703  0.71983  0.28539  Biso   1.000  S
  S4       1.0000 0.50992  0.78376  0.74976  Biso   1.000  S
  O9       1.0000 0.87240  0.57640  0.11740  Biso   1.000  O
  O10      1.0000 0.06650  0.53000  0.15800  Biso   1.000  O
  O11      1.0000 0.94120  0.86510  0.43070  Biso   1.000  O
  O12      1.0000 0.14030  0.90410  0.47630  Biso   1.000  O
  O13      1.0000 0.72490  0.60360  0.72120  Biso   1.000  O
  O14      1.0000 0.66580  0.64050  0.86770  Biso   1.000  O
  O15      1.0000 0.34980  0.93460  0.70610  Biso   1.000  O
  O16      1.0000 0.37300  0.97750  0.54110  Biso   1.000  O
  C13      1.0000 0.04270  0.65400  0.24980  Biso   1.000  C
  C14      1.0000 0.16520  0.67770  0.30070  Biso   1.000  C
  H5       1.0000 0.23060  0.64880  0.29210  Biso   1.000  H
  C15      1.0000 0.17940  0.75120  0.36750  Biso   1.000  C
  H6       1.0000 0.25600  0.77710  0.40670  Biso   1.000  H
  C16      1.0000 0.07090  0.78080  0.36930  Biso   1.000  C
  C17      1.0000 0.98910  0.58080  0.16990  Biso   1.000  C
  C18      1.0000 0.04930  0.85610  0.43050  Biso   1.000  C
  C19      1.0000 0.60670  0.72850  0.69890  Biso   1.000  C
  C20      1.0000 0.61610  0.76530  0.59990  Biso   1.000  C
  H7       1.0000 0.66380  0.74390  0.55980  Biso   1.000  H
  C21      1.0000 0.54560  0.83900  0.56530  Biso   1.000  C
  H8       1.0000 0.54330  0.87200  0.50090  Biso   1.000  H
  C22      1.0000 0.48150  0.85680  0.63580  Biso   1.000  C
  C23      1.0000 0.66920  0.65210  0.76520  Biso   1.000  C
  C24      1.0000 0.39660  0.92670  0.62770  Biso   1.000  C
  Er3      1.0000 0.80555  0.97211  0.42061  Biso   1.000  Er
  S5       1.0000 0.94703  0.78017  0.78539  Biso   1.000  S
  S6       1.0000 0.50992  0.71624  0.24976  Biso   1.000  S
  O17      1.0000 0.87240  0.92360  0.61740  Biso   1.000  O
  O18      1.0000 0.06650  0.97000  0.65800  Biso   1.000  O
  O19      1.0000 0.94120  0.63490  0.93070  Biso   1.000  O
  O20      1.0000 0.14030  0.59590  0.97630  Biso   1.000  O
  O21      1.0000 0.72490  0.89640  0.22120  Biso   1.000  O
  O22      1.0000 0.66580  0.85950  0.36770  Biso   1.000  O
  O23      1.0000 0.34980  0.56540  0.20610  Biso   1.000  O
  O24      1.0000 0.37300  0.52250  0.04110  Biso   1.000  O
  C25      1.0000 0.04270  0.84600  0.74980  Biso   1.000  C
  C26      1.0000 0.16520  0.82230  0.80070  Biso   1.000  C
  H9       1.0000 0.23060  0.85120  0.79210  Biso   1.000  H
  C27      1.0000 0.17940  0.74880  0.86750  Biso   1.000  C
  H10      1.0000 0.25600  0.72290  0.90670  Biso   1.000  H
  C28      1.0000 0.07090  0.71920  0.86930  Biso   1.000  C
  C29      1.0000 0.98910  0.91920  0.66990  Biso   1.000  C
  C30      1.0000 0.04930  0.64390  0.93050  Biso   1.000  C
  C31      1.0000 0.60670  0.77150  0.19890  Biso   1.000  C
  C32      1.0000 0.61610  0.73470  0.09990  Biso   1.000  C
  H11      1.0000 0.66380  0.75610  0.05980  Biso   1.000  H
  C33      1.0000 0.54560  0.66100  0.06530  Biso   1.000  C
  H12      1.0000 0.54330  0.62800  0.00090  Biso   1.000  H
  C34      1.0000 0.48150  0.64320  0.13580  Biso   1.000  C
  C35      1.0000 0.66920  0.84790  0.26520  Biso   1.000  C
  C36      1.0000 0.39660  0.57330  0.12770  Biso   1.000  C
  Er4      1.0000 0.19445  0.47211  0.07939  Biso   1.000  Er
  S7       1.0000 0.05297  0.28017  0.71461  Biso   1.000  S
  S8       1.0000 0.49008  0.21624  0.25024  Biso   1.000  S
  O25      1.0000 0.12760  0.42360  0.88260  Biso   1.000  O
  O26      1.0000 0.93350  0.47000  0.84200  Biso   1.000  O
  O27      1.0000 0.05880  0.13490  0.56930  Biso   1.000  O
  O28      1.0000 0.85970  0.09590  0.52370  Biso   1.000  O
  O29      1.0000 0.27510  0.39640  0.27880  Biso   1.000  O
  O30      1.0000 0.33420  0.35950  0.13230  Biso   1.000  O
  O31      1.0000 0.65020  0.06540  0.29390  Biso   1.000  O
  O32      1.0000 0.62700  0.02250  0.45890  Biso   1.000  O
  C37      1.0000 0.95730  0.34600  0.75020  Biso   1.000  C
  C38      1.0000 0.83480  0.32230  0.69930  Biso   1.000  C
  H13      1.0000 0.76940  0.35120  0.70790  Biso   1.000  H
  C39      1.0000 0.82060  0.24880  0.63250  Biso   1.000  C
  H14      1.0000 0.74400  0.22290  0.59330  Biso   1.000  H
  C40      1.0000 0.92910  0.21920  0.63070  Biso   1.000  C
  C41      1.0000 0.01090  0.41920  0.83010  Biso   1.000  C
  C42      1.0000 0.95070  0.14390  0.56950  Biso   1.000  C
  C43      1.0000 0.39330  0.27150  0.30110  Biso   1.000  C
  C44      1.0000 0.38390  0.23470  0.40010  Biso   1.000  C
  H15      1.0000 0.33620  0.25610  0.44020  Biso   1.000  H
  C45      1.0000 0.45440  0.16100  0.43470  Biso   1.000  C
  H16      1.0000 0.45670  0.12800  0.49910  Biso   1.000  H
  C46      1.0000 0.51850  0.14320  0.36420  Biso   1.000  C
  C47      1.0000 0.33080  0.34790  0.23480  Biso   1.000  C
  C48      1.0000 0.60340  0.07330  0.37230  Biso   1.000  C
