data_image0
_cell_length_a       11.6005
_cell_length_b       16.4488
_cell_length_c       12.0828
_cell_angle_alpha    90
_cell_angle_beta     112.295
_cell_angle_gamma    90

_symmetry_space_group_name_H-M    "P 1"
_symmetry_int_tables_number       1

loop_
  _symmetry_equiv_pos_as_xyz
  'x, y, z'

loop_
  _atom_site_label
  _atom_site_occupancy
  _atom_site_fract_x
  _atom_site_fract_y
  _atom_site_fract_z
  _atom_site_thermal_displace_type
  _atom_site_B_iso_or_equiv
  _atom_site_type_symbol
  Nd1      1.0000 0.19376  0.02640  0.57694  Biso   1.000  Nd
  S1       1.0000 0.05450  0.21759  0.21010  Biso   1.000  S
  S2       1.0000 0.48990  0.28146  0.75360  Biso   1.000  S
  O1       1.0000 0.13730  0.07940  0.37410  Biso   1.000  O
  O2       1.0000 0.95020  0.03190  0.34990  Biso   1.000  O
  O3       1.0000 0.05480  0.36120  0.06800  Biso   1.000  O
  O4       1.0000 0.85510  0.39750  0.02430  Biso   1.000  O
  O5       1.0000 0.27520  0.10420  0.78130  Biso   1.000  O
  O6       1.0000 0.34580  0.13840  0.64150  Biso   1.000  O
  O7       1.0000 0.64460  0.43200  0.79080  Biso   1.000  O
  O8       1.0000 0.61960  0.47330  0.95600  Biso   1.000  O
  C1       1.0000 0.96130  0.15240  0.24960  Biso   1.000  C
  C2       1.0000 0.84040  0.17610  0.20460  Biso   1.000  C
  H1       1.0000 0.77730  0.14860  0.21870  Biso   1.000  H
  C3       1.0000 0.82070  0.24650  0.13470  Biso   1.000  C
  H2       1.0000 0.74300  0.27050  0.09620  Biso   1.000  H
  C4       1.0000 0.92890  0.27600  0.12940  Biso   1.000  C
  C5       1.0000 0.02090  0.08330  0.32970  Biso   1.000  C
  C6       1.0000 0.94810  0.35090  0.07000  Biso   1.000  C
  C7       1.0000 0.39520  0.22570  0.80520  Biso   1.000  C
  C8       1.0000 0.38370  0.26310  0.90320  Biso   1.000  C
  H3       1.0000 0.33510  0.24280  0.94290  Biso   1.000  H
  C9       1.0000 0.45390  0.33550  0.93620  Biso   1.000  C
  H4       1.0000 0.45770  0.36760  0.00100  Biso   1.000  H
  C10      1.0000 0.51570  0.35350  0.86300  Biso   1.000  C
  C11      1.0000 0.33500  0.15100  0.73960  Biso   1.000  C
  C12      1.0000 0.59890  0.42390  0.86990  Biso   1.000  C
  Nd2      1.0000 0.80624  0.52640  0.92306  Biso   1.000  Nd
  S3       1.0000 0.94550  0.71759  0.28990  Biso   1.000  S
  S4       1.0000 0.51010  0.78146  0.74640  Biso   1.000  S
  O9       1.0000 0.86270  0.57940  0.12590  Biso   1.000  O
  O10      1.0000 0.04980  0.53190  0.15010  Biso   1.000  O
  O11      1.0000 0.94520  0.86120  0.43200  Biso   1.000  O
  O12      1.0000 0.14490  0.89750  0.47570  Biso   1.000  O
  O13      1.0000 0.72480  0.60420  0.71870  Biso   1.000  O
  O14      1.0000 0.65420  0.63840  0.85850  Biso   1.000  O
  O15      1.0000 0.35540  0.93200  0.70920  Biso   1.000  O
  O16      1.0000 0.38040  0.97330  0.54400  Biso   1.000  O
  C13      1.0000 0.03870  0.65240  0.25040  Biso   1.000  C
  C14      1.0000 0.15960  0.67610  0.29540  Biso   1.000  C
  H5       1.0000 0.22270  0.64860  0.28130  Biso   1.000  H
  C15      1.0000 0.17930  0.74650  0.36530  Biso   1.000  C
  H6       1.0000 0.25700  0.77050  0.40380  Biso   1.000  H
  C16      1.0000 0.07110  0.77600  0.37060  Biso   1.000  C
  C17      1.0000 0.97910  0.58330  0.17030  Biso   1.000  C
  C18      1.0000 0.05190  0.85090  0.43000  Biso   1.000  C
  C19      1.0000 0.60480  0.72570  0.69480  Biso   1.000  C
  C20      1.0000 0.61630  0.76310  0.59680  Biso   1.000  C
  H7       1.0000 0.66490  0.74280  0.55710  Biso   1.000  H
  C21      1.0000 0.54610  0.83550  0.56380  Biso   1.000  C
  H8       1.0000 0.54230  0.86760  0.49900  Biso   1.000  H
  C22      1.0000 0.48430  0.85350  0.63700  Biso   1.000  C
  C23      1.0000 0.66500  0.65100  0.76040  Biso   1.000  C
  C24      1.0000 0.40110  0.92390  0.63010  Biso   1.000  C
  Nd3      1.0000 0.80624  0.97360  0.42306  Biso   1.000  Nd
  S5       1.0000 0.94550  0.78241  0.78990  Biso   1.000  S
  S6       1.0000 0.51010  0.71854  0.24640  Biso   1.000  S
  O17      1.0000 0.86270  0.92060  0.62590  Biso   1.000  O
  O18      1.0000 0.04980  0.96810  0.65010  Biso   1.000  O
  O19      1.0000 0.94520  0.63880  0.93200  Biso   1.000  O
  O20      1.0000 0.14490  0.60250  0.97570  Biso   1.000  O
  O21      1.0000 0.72480  0.89580  0.21870  Biso   1.000  O
  O22      1.0000 0.65420  0.86160  0.35850  Biso   1.000  O
  O23      1.0000 0.35540  0.56800  0.20920  Biso   1.000  O
  O24      1.0000 0.38040  0.52670  0.04400  Biso   1.000  O
  C25      1.0000 0.03870  0.84760  0.75040  Biso   1.000  C
  C26      1.0000 0.15960  0.82390  0.79540  Biso   1.000  C
  H9       1.0000 0.22270  0.85140  0.78130  Biso   1.000  H
  C27      1.0000 0.17930  0.75350  0.86530  Biso   1.000  C
  H10      1.0000 0.25700  0.72950  0.90380  Biso   1.000  H
  C28      1.0000 0.07110  0.72400  0.87060  Biso   1.000  C
  C29      1.0000 0.97910  0.91670  0.67030  Biso   1.000  C
  C30      1.0000 0.05190  0.64910  0.93000  Biso   1.000  C
  C31      1.0000 0.60480  0.77430  0.19480  Biso   1.000  C
  C32      1.0000 0.61630  0.73690  0.09680  Biso   1.000  C
  H11      1.0000 0.66490  0.75720  0.05710  Biso   1.000  H
  C33      1.0000 0.54610  0.66450  0.06380  Biso   1.000  C
  H12      1.0000 0.54230  0.63240  0.99900  Biso   1.000  H
  C34      1.0000 0.48430  0.64650  0.13700  Biso   1.000  C
  C35      1.0000 0.66500  0.84900  0.26040  Biso   1.000  C
  C36      1.0000 0.40110  0.57610  0.13010  Biso   1.000  C
  Nd4      1.0000 0.19376  0.47360  0.07694  Biso   1.000  Nd
  S7       1.0000 0.05450  0.28241  0.71010  Biso   1.000  S
  S8       1.0000 0.48990  0.21854  0.25360  Biso   1.000  S
  O25      1.0000 0.13730  0.42060  0.87410  Biso   1.000  O
  O26      1.0000 0.95020  0.46810  0.84990  Biso   1.000  O
  O27      1.0000 0.05480  0.13880  0.56800  Biso   1.000  O
  O28      1.0000 0.85510  0.10250  0.52430  Biso   1.000  O
  O29      1.0000 0.27520  0.39580  0.28130  Biso   1.000  O
  O30      1.0000 0.34580  0.36160  0.14150  Biso   1.000  O
  O31      1.0000 0.64460  0.06800  0.29080  Biso   1.000  O
  O32      1.0000 0.61960  0.02670  0.45600  Biso   1.000  O
  C37      1.0000 0.96130  0.34760  0.74960  Biso   1.000  C
  C38      1.0000 0.84040  0.32390  0.70460  Biso   1.000  C
  H13      1.0000 0.77730  0.35140  0.71870  Biso   1.000  H
  C39      1.0000 0.82070  0.25350  0.63470  Biso   1.000  C
  H14      1.0000 0.74300  0.22950  0.59620  Biso   1.000  H
  C40      1.0000 0.92890  0.22400  0.62940  Biso   1.000  C
  C41      1.0000 0.02090  0.41670  0.82970  Biso   1.000  C
  C42      1.0000 0.94810  0.14910  0.57000  Biso   1.000  C
  C43      1.0000 0.39520  0.27430  0.30520  Biso   1.000  C
  C44      1.0000 0.38370  0.23690  0.40320  Biso   1.000  C
  H15      1.0000 0.33510  0.25720  0.44290  Biso   1.000  H
  C45      1.0000 0.45390  0.16450  0.43620  Biso   1.000  C
  H16      1.0000 0.45770  0.13240  0.50100  Biso   1.000  H
  C46      1.0000 0.51570  0.14650  0.36300  Biso   1.000  C
  C47      1.0000 0.33500  0.34900  0.23960  Biso   1.000  C
  C48      1.0000 0.59890  0.07610  0.36990  Biso   1.000  C
