data_image0
_cell_length_a       11.6054
_cell_length_b       16.2662
_cell_length_c       12.0479
_cell_angle_alpha    90
_cell_angle_beta     112.497
_cell_angle_gamma    90

_symmetry_space_group_name_H-M    "P 1"
_symmetry_int_tables_number       1

loop_
  _symmetry_equiv_pos_as_xyz
  'x, y, z'

loop_
  _atom_site_label
  _atom_site_occupancy
  _atom_site_fract_x
  _atom_site_fract_y
  _atom_site_fract_z
  _atom_site_thermal_displace_type
  _atom_site_B_iso_or_equiv
  _atom_site_type_symbol
  Gd1      1.0000 0.19417  0.02735  0.07825  Biso   1.000  Gd
  S1       1.0000 0.05329  0.21858  0.71196  Biso   1.000  S
  S2       1.0000 0.48992  0.28305  0.25164  Biso   1.000  S
  O1       1.0000 0.13170  0.07790  0.87880  Biso   1.000  O
  O2       1.0000 0.94110  0.03046  0.84600  Biso   1.000  O
  O3       1.0000 0.05620  0.36320  0.56840  Biso   1.000  O
  O4       1.0000 0.85760  0.40046  0.52420  Biso   1.000  O
  O5       1.0000 0.27500  0.10440  0.27930  Biso   1.000  O
  O6       1.0000 0.33930  0.14000  0.13650  Biso   1.000  O
  O7       1.0000 0.64730  0.43350  0.29230  Biso   1.000  O
  O8       1.0000 0.62310  0.47571  0.45750  Biso   1.000  O
  C1       1.0000 0.95880  0.15260  0.74920  Biso   1.000  C
  C2       1.0000 0.83720  0.17660  0.70200  Biso   1.000  C
  H1       1.0000 0.77290  0.14850  0.71370  Biso   1.000  H
  C3       1.0000 0.82030  0.24900  0.63320  Biso   1.000  C
  H2       1.0000 0.74330  0.27400  0.59430  Biso   1.000  H
  C4       1.0000 0.92850  0.27830  0.62970  Biso   1.000  C
  C5       1.0000 0.01480  0.08210  0.82990  Biso   1.000  C
  C6       1.0000 0.94940  0.35330  0.56960  Biso   1.000  C
  C7       1.0000 0.39410  0.22800  0.30310  Biso   1.000  C
  C8       1.0000 0.38390  0.26450  0.40080  Biso   1.000  C
  H3       1.0000 0.33640  0.24320  0.44120  Biso   1.000  H
  C9       1.0000 0.45270  0.33740  0.43390  Biso   1.000  C
  H4       1.0000 0.45450  0.37030  0.49760  Biso   1.000  H
  C10      1.0000 0.51680  0.35490  0.36240  Biso   1.000  C
  C11      1.0000 0.33320  0.15250  0.23730  Biso   1.000  C
  C12      1.0000 0.60010  0.42570  0.37090  Biso   1.000  C
  Gd2      1.0000 0.80583  0.52735  0.42175  Biso   1.000  Gd
  S3       1.0000 0.94671  0.71858  0.78804  Biso   1.000  S
  S4       1.0000 0.51008  0.78305  0.24836  Biso   1.000  S
  O9       1.0000 0.86830  0.57790  0.62120  Biso   1.000  O
  O10      1.0000 0.05890  0.53046  0.65400  Biso   1.000  O
  O11      1.0000 0.94380  0.86320  0.93160  Biso   1.000  O
  O12      1.0000 0.14240  0.90046  0.97580  Biso   1.000  O
  O13      1.0000 0.72500  0.60440  0.22070  Biso   1.000  O
  O14      1.0000 0.66070  0.64000  0.36350  Biso   1.000  O
  O15      1.0000 0.35270  0.93350  0.20770  Biso   1.000  O
  O16      1.0000 0.37690  0.97571  0.04250  Biso   1.000  O
  C13      1.0000 0.04120  0.65260  0.75080  Biso   1.000  C
  C14      1.0000 0.16280  0.67660  0.79800  Biso   1.000  C
  H5       1.0000 0.22710  0.64850  0.78630  Biso   1.000  H
  C15      1.0000 0.17970  0.74900  0.86680  Biso   1.000  C
  H6       1.0000 0.25670  0.77400  0.90570  Biso   1.000  H
  C16      1.0000 0.07150  0.77830  0.87030  Biso   1.000  C
  C17      1.0000 0.98520  0.58210  0.67010  Biso   1.000  C
  C18      1.0000 0.05060  0.85330  0.93040  Biso   1.000  C
  C19      1.0000 0.60590  0.72800  0.19690  Biso   1.000  C
  C20      1.0000 0.61610  0.76450  0.09920  Biso   1.000  C
  H7       1.0000 0.66360  0.74320  0.05880  Biso   1.000  H
  C21      1.0000 0.54730  0.83740  0.06610  Biso   1.000  C
  H8       1.0000 0.54550  0.87030  0.00240  Biso   1.000  H
  C22      1.0000 0.48320  0.85490  0.13760  Biso   1.000  C
  C23      1.0000 0.66680  0.65250  0.26270  Biso   1.000  C
  C24      1.0000 0.39990  0.92570  0.12910  Biso   1.000  C
  Gd3      1.0000 0.80583  0.97265  0.92175  Biso   1.000  Gd
  S5       1.0000 0.94671  0.78142  0.28804  Biso   1.000  S
  S6       1.0000 0.51008  0.71695  0.74836  Biso   1.000  S
  O17      1.0000 0.86830  0.92210  0.12120  Biso   1.000  O
  O18      1.0000 0.05890  0.96954  0.15400  Biso   1.000  O
  O19      1.0000 0.94380  0.63680  0.43160  Biso   1.000  O
  O20      1.0000 0.14240  0.59954  0.47580  Biso   1.000  O
  O21      1.0000 0.72500  0.89560  0.72070  Biso   1.000  O
  O22      1.0000 0.66070  0.86000  0.86350  Biso   1.000  O
  O23      1.0000 0.35270  0.56650  0.70770  Biso   1.000  O
  O24      1.0000 0.37690  0.52429  0.54250  Biso   1.000  O
  C25      1.0000 0.04120  0.84740  0.25080  Biso   1.000  C
  C26      1.0000 0.16280  0.82340  0.29800  Biso   1.000  C
  H9       1.0000 0.22710  0.85150  0.28630  Biso   1.000  H
  C27      1.0000 0.17970  0.75100  0.36680  Biso   1.000  C
  H10      1.0000 0.25670  0.72600  0.40570  Biso   1.000  H
  C28      1.0000 0.07150  0.72170  0.37030  Biso   1.000  C
  C29      1.0000 0.98520  0.91790  0.17010  Biso   1.000  C
  C30      1.0000 0.05060  0.64670  0.43040  Biso   1.000  C
  C31      1.0000 0.60590  0.77200  0.69690  Biso   1.000  C
  C32      1.0000 0.61610  0.73550  0.59920  Biso   1.000  C
  H11      1.0000 0.66360  0.75680  0.55880  Biso   1.000  H
  C33      1.0000 0.54730  0.66260  0.56610  Biso   1.000  C
  H12      1.0000 0.54550  0.62970  0.50240  Biso   1.000  H
  C34      1.0000 0.48320  0.64510  0.63760  Biso   1.000  C
  C35      1.0000 0.66680  0.84750  0.76270  Biso   1.000  C
  C36      1.0000 0.39990  0.57430  0.62910  Biso   1.000  C
  Gd4      1.0000 0.19417  0.47265  0.57825  Biso   1.000  Gd
  S7       1.0000 0.05329  0.28142  0.21196  Biso   1.000  S
  S8       1.0000 0.48992  0.21695  0.75164  Biso   1.000  S
  O25      1.0000 0.13170  0.42210  0.37880  Biso   1.000  O
  O26      1.0000 0.94110  0.46954  0.34600  Biso   1.000  O
  O27      1.0000 0.05620  0.13680  0.06840  Biso   1.000  O
  O28      1.0000 0.85760  0.09954  0.02420  Biso   1.000  O
  O29      1.0000 0.27500  0.39560  0.77930  Biso   1.000  O
  O30      1.0000 0.33930  0.36000  0.63650  Biso   1.000  O
  O31      1.0000 0.64730  0.06650  0.79230  Biso   1.000  O
  O32      1.0000 0.62310  0.02429  0.95750  Biso   1.000  O
  C37      1.0000 0.95880  0.34740  0.24920  Biso   1.000  C
  C38      1.0000 0.83720  0.32340  0.20200  Biso   1.000  C
  H13      1.0000 0.77290  0.35150  0.21370  Biso   1.000  H
  C39      1.0000 0.82030  0.25100  0.13320  Biso   1.000  C
  H14      1.0000 0.74330  0.22600  0.09430  Biso   1.000  H
  C40      1.0000 0.92850  0.22170  0.12970  Biso   1.000  C
  C41      1.0000 0.01480  0.41790  0.32990  Biso   1.000  C
  C42      1.0000 0.94940  0.14670  0.06960  Biso   1.000  C
  C43      1.0000 0.39410  0.27200  0.80310  Biso   1.000  C
  C44      1.0000 0.38390  0.23550  0.90080  Biso   1.000  C
  H15      1.0000 0.33640  0.25680  0.94120  Biso   1.000  H
  C45      1.0000 0.45270  0.16260  0.93390  Biso   1.000  C
  H16      1.0000 0.45450  0.12970  0.99760  Biso   1.000  H
  C46      1.0000 0.51680  0.14510  0.86240  Biso   1.000  C
  C47      1.0000 0.33320  0.34750  0.73730  Biso   1.000  C
  C48      1.0000 0.60010  0.07430  0.87090  Biso   1.000  C
