data_image0
_cell_length_a       11.6871
_cell_length_b       17.3413
_cell_length_c       25.8512
_cell_angle_alpha    102.301
_cell_angle_beta     90
_cell_angle_gamma    90

_symmetry_space_group_name_H-M    P 1
_symmetry_int_tables_number       1

loop_
  _symmetry_equiv_pos_as_xyz
  'x, y, z'

loop_
  _atom_site_label
  _atom_site_occupancy
  _atom_site_fract_x
  _atom_site_fract_y
  _atom_site_fract_z
  _atom_site_thermal_displace_type
  _atom_site_B_iso_or_equiv
  _atom_site_type_symbol
  Nd1      1.0000 0.02827  0.48678  0.41903  Biso   1.000  Nd
  Nd2      1.0000 0.49206  0.03928  0.58059  Biso   1.000  Nd
  Nd3      1.0000 0.02827  0.01322  0.08097  Biso   1.000  Nd
  Nd4      1.0000 0.49206  0.46072  0.91941  Biso   1.000  Nd
  Nd5      1.0000 0.97173  0.51322  0.58097  Biso   1.000  Nd
  Nd6      1.0000 0.50794  0.96072  0.41941  Biso   1.000  Nd
  Nd7      1.0000 0.97173  0.98678  0.91903  Biso   1.000  Nd
  Nd8      1.0000 0.50794  0.53928  0.08059  Biso   1.000  Nd
  H1       1.0000 0.91480  0.30820  0.33480  Biso   1.000  H
  H2       1.0000 0.21130  0.24930  0.32040  Biso   1.000  H
  H3       1.0000 0.36600  0.59850  0.36630  Biso   1.000  H
  H4       1.0000 0.33180  0.51990  0.49110  Biso   1.000  H
  H5       1.0000 0.66850  0.89110  0.63730  Biso   1.000  H
  H6       1.0000 0.66670  0.07470  0.74450  Biso   1.000  H
  H7       1.0000 0.50530  0.30010  0.69250  Biso   1.000  H
  H8       1.0000 0.25030  0.17640  0.64230  Biso   1.000  H
  H9       1.0000 0.77570  0.24950  0.39530  Biso   1.000  H
  H10      1.0000 0.67220  0.13460  0.41180  Biso   1.000  H
  H11      1.0000 0.02810  0.57650  0.23660  Biso   1.000  H
  H12      1.0000 0.91220  0.58010  0.15870  Biso   1.000  H
  H13      1.0000 0.73500  0.64420  0.57380  Biso   1.000  H
  H14      1.0000 0.62830  0.76710  0.59220  Biso   1.000  H
  H15      1.0000 0.09720  0.12890  0.32330  Biso   1.000  H
  H16      1.0000 0.09810  0.14640  0.26570  Biso   1.000  H
  H17      1.0000 0.91880  0.16650  0.33290  Biso   1.000  H
  H18      1.0000 0.91960  0.18380  0.27520  Biso   1.000  H
  H19      1.0000 0.41330  0.65580  0.51090  Biso   1.000  H
  H20      1.0000 0.50990  0.59070  0.49830  Biso   1.000  H
  H21      1.0000 0.54090  0.61750  0.41840  Biso   1.000  H
  H22      1.0000 0.45930  0.69150  0.43520  Biso   1.000  H
  H23      1.0000 0.75260  0.95440  0.76800  Biso   1.000  H
  H24      1.0000 0.62680  0.97270  0.79010  Biso   1.000  H
  H25      1.0000 0.54610  0.88540  0.71950  Biso   1.000  H
  H26      1.0000 0.66740  0.84390  0.71660  Biso   1.000  H
  H27      1.0000 0.33750  0.35720  0.73930  Biso   1.000  H
  H28      1.0000 0.35270  0.38690  0.68600  Biso   1.000  H
  H29      1.0000 0.20440  0.31480  0.65050  Biso   1.000  H
  H30      1.0000 0.18370  0.29020  0.70520  Biso   1.000  H
  H31      1.0000 0.91480  0.19180  0.16520  Biso   1.000  H
  H32      1.0000 0.21130  0.25070  0.17960  Biso   1.000  H
  H33      1.0000 0.36600  0.90150  0.13370  Biso   1.000  H
  H34      1.0000 0.33180  0.98010  0.00890  Biso   1.000  H
  H35      1.0000 0.66850  0.60890  0.86270  Biso   1.000  H
  H36      1.0000 0.66670  0.42530  0.75550  Biso   1.000  H
  H37      1.0000 0.50530  0.19990  0.80750  Biso   1.000  H
  H38      1.0000 0.25030  0.32360  0.85770  Biso   1.000  H
  H39      1.0000 0.77570  0.25050  0.10470  Biso   1.000  H
  H40      1.0000 0.67220  0.36540  0.08820  Biso   1.000  H
  H41      1.0000 0.02810  0.92350  0.26340  Biso   1.000  H
  H42      1.0000 0.91220  0.91990  0.34130  Biso   1.000  H
  H43      1.0000 0.73500  0.85580  0.92620  Biso   1.000  H
  H44      1.0000 0.62830  0.73290  0.90780  Biso   1.000  H
  H45      1.0000 0.09720  0.37110  0.17670  Biso   1.000  H
  H46      1.0000 0.09810  0.35360  0.23430  Biso   1.000  H
  H47      1.0000 0.91880  0.33350  0.16710  Biso   1.000  H
  H48      1.0000 0.91960  0.31620  0.22480  Biso   1.000  H
  H49      1.0000 0.41330  0.84420  0.98910  Biso   1.000  H
  H50      1.0000 0.50990  0.90930  0.00170  Biso   1.000  H
  H51      1.0000 0.54090  0.88250  0.08160  Biso   1.000  H
  H52      1.0000 0.45930  0.80850  0.06480  Biso   1.000  H
  H53      1.0000 0.75260  0.54560  0.73200  Biso   1.000  H
  H54      1.0000 0.62680  0.52730  0.70990  Biso   1.000  H
  H55      1.0000 0.54610  0.61460  0.78050  Biso   1.000  H
  H56      1.0000 0.66740  0.65610  0.78340  Biso   1.000  H
  H57      1.0000 0.33750  0.14280  0.76070  Biso   1.000  H
  H58      1.0000 0.35270  0.11310  0.81400  Biso   1.000  H
  H59      1.0000 0.20440  0.18520  0.84950  Biso   1.000  H
  H60      1.0000 0.18370  0.20980  0.79480  Biso   1.000  H
  H61      1.0000 0.08520  0.69180  0.66520  Biso   1.000  H
  H62      1.0000 0.78870  0.75070  0.67960  Biso   1.000  H
  H63      1.0000 0.63400  0.40150  0.63370  Biso   1.000  H
  H64      1.0000 0.66820  0.48010  0.50890  Biso   1.000  H
  H65      1.0000 0.33150  0.10890  0.36270  Biso   1.000  H
  H66      1.0000 0.33330  0.92530  0.25550  Biso   1.000  H
  H67      1.0000 0.49470  0.69990  0.30750  Biso   1.000  H
  H68      1.0000 0.74970  0.82360  0.35770  Biso   1.000  H
  H69      1.0000 0.22430  0.75050  0.60470  Biso   1.000  H
  H70      1.0000 0.32780  0.86540  0.58820  Biso   1.000  H
  H71      1.0000 0.97190  0.42350  0.76340  Biso   1.000  H
  H72      1.0000 0.08780  0.41990  0.84130  Biso   1.000  H
  H73      1.0000 0.26500  0.35580  0.42620  Biso   1.000  H
  H74      1.0000 0.37170  0.23290  0.40780  Biso   1.000  H
  H75      1.0000 0.90280  0.87110  0.67670  Biso   1.000  H
  H76      1.0000 0.90190  0.85360  0.73430  Biso   1.000  H
  H77      1.0000 0.08120  0.83350  0.66710  Biso   1.000  H
  H78      1.0000 0.08040  0.81620  0.72480  Biso   1.000  H
  H79      1.0000 0.58670  0.34420  0.48910  Biso   1.000  H
  H80      1.0000 0.49010  0.40930  0.50170  Biso   1.000  H
  H81      1.0000 0.45910  0.38250  0.58160  Biso   1.000  H
  H82      1.0000 0.54070  0.30850  0.56480  Biso   1.000  H
  H83      1.0000 0.24740  0.04560  0.23200  Biso   1.000  H
  H84      1.0000 0.37320  0.02730  0.20990  Biso   1.000  H
  H85      1.0000 0.45390  0.11460  0.28050  Biso   1.000  H
  H86      1.0000 0.33260  0.15610  0.28340  Biso   1.000  H
  H87      1.0000 0.66250  0.64280  0.26070  Biso   1.000  H
  H88      1.0000 0.64730  0.61310  0.31400  Biso   1.000  H
  H89      1.0000 0.79560  0.68520  0.34950  Biso   1.000  H
  H90      1.0000 0.81630  0.70980  0.29480  Biso   1.000  H
  H91      1.0000 0.08520  0.80820  0.83480  Biso   1.000  H
  H92      1.0000 0.78870  0.74930  0.82040  Biso   1.000  H
  H93      1.0000 0.63400  0.09850  0.86630  Biso   1.000  H
  H94      1.0000 0.66820  0.01990  0.99110  Biso   1.000  H
  H95      1.0000 0.33150  0.39110  0.13730  Biso   1.000  H
  H96      1.0000 0.33330  0.57470  0.24450  Biso   1.000  H
  H97      1.0000 0.49470  0.80010  0.19250  Biso   1.000  H
  H98      1.0000 0.74970  0.67640  0.14230  Biso   1.000  H
  H99      1.0000 0.22430  0.74950  0.89530  Biso   1.000  H
  H100     1.0000 0.32780  0.63460  0.91180  Biso   1.000  H
  H101     1.0000 0.97190  0.07650  0.73660  Biso   1.000  H
  H102     1.0000 0.08780  0.08010  0.65870  Biso   1.000  H
  H103     1.0000 0.26500  0.14420  0.07380  Biso   1.000  H
  H104     1.0000 0.37170  0.26710  0.09220  Biso   1.000  H
  H105     1.0000 0.90280  0.62890  0.82330  Biso   1.000  H
  H106     1.0000 0.90190  0.64640  0.76570  Biso   1.000  H
  H107     1.0000 0.08120  0.66650  0.83290  Biso   1.000  H
  H108     1.0000 0.08040  0.68380  0.77520  Biso   1.000  H
  H109     1.0000 0.58670  0.15580  0.01090  Biso   1.000  H
  H110     1.0000 0.49010  0.09070  0.99830  Biso   1.000  H
  H111     1.0000 0.45910  0.11750  0.91840  Biso   1.000  H
  H112     1.0000 0.54070  0.19150  0.93520  Biso   1.000  H
  H113     1.0000 0.24740  0.45440  0.26800  Biso   1.000  H
  H114     1.0000 0.37320  0.47270  0.29010  Biso   1.000  H
  H115     1.0000 0.45390  0.38540  0.21950  Biso   1.000  H
  H116     1.0000 0.33260  0.34390  0.21660  Biso   1.000  H
  H117     1.0000 0.66250  0.85720  0.23930  Biso   1.000  H
  H118     1.0000 0.64730  0.88690  0.18600  Biso   1.000  H
  H119     1.0000 0.79560  0.81480  0.15050  Biso   1.000  H
  H120     1.0000 0.81630  0.79020  0.20520  Biso   1.000  H
  C1       1.0000 0.81640  0.28200  0.47310  Biso   1.000  C
  C2       1.0000 0.76910  0.23750  0.42860  Biso   1.000  C
  C3       1.0000 0.70900  0.17120  0.43810  Biso   1.000  C
  C4       1.0000 0.71090  0.16700  0.48990  Biso   1.000  C
  C5       1.0000 0.88260  0.35680  0.48040  Biso   1.000  C
  C6       1.0000 0.65510  0.11040  0.51760  Biso   1.000  C
  C7       1.0000 0.90560  0.51150  0.26370  Biso   1.000  C
  C8       1.0000 0.95670  0.55260  0.23030  Biso   1.000  C
  C9       1.0000 0.88980  0.55470  0.18530  Biso   1.000  C
  C10      1.0000 0.78980  0.51610  0.18510  Biso   1.000  C
  C11      1.0000 0.94960  0.49999  0.31509  Biso   1.000  C
  C12      1.0000 0.69600  0.51190  0.14620  Biso   1.000  C
  C13      1.0000 0.76900  0.65885  0.49975  Biso   1.000  C
  C14      1.0000 0.72530  0.67610  0.54940  Biso   1.000  C
  C15      1.0000 0.66420  0.74710  0.56000  Biso   1.000  C
  C16      1.0000 0.66250  0.78370  0.51880  Biso   1.000  C
  C17      1.0000 0.84050  0.59130  0.47480  Biso   1.000  C
  C18      1.0000 0.60930  0.86010  0.51480  Biso   1.000  C
  C19      1.0000 0.07940  0.16770  0.30250  Biso   1.000  C
  C20      1.0000 0.95930  0.19300  0.30890  Biso   1.000  C
  C21      1.0000 0.06980  0.29770  0.34450  Biso   1.000  C
  C22      1.0000 0.44160  0.61130  0.48470  Biso   1.000  C
  C23      1.0000 0.46550  0.63480  0.43180  Biso   1.000  C
  C24      1.0000 0.31220  0.54680  0.42120  Biso   1.000  C
  C25      1.0000 0.67400  0.96270  0.75850  Biso   1.000  C
  C26      1.0000 0.62800  0.89280  0.71570  Biso   1.000  C
  C27      1.0000 0.65210  0.99960  0.67910  Biso   1.000  C
  C28      1.0000 0.34340  0.34070  0.70110  Biso   1.000  C
  C29      1.0000 0.23990  0.29300  0.67810  Biso   1.000  C
  C30      1.0000 0.40150  0.21600  0.66290  Biso   1.000  C
  C31      1.0000 0.81640  0.21800  0.02690  Biso   1.000  C
  C32      1.0000 0.76910  0.26250  0.07140  Biso   1.000  C
  C33      1.0000 0.70900  0.32880  0.06190  Biso   1.000  C
  C34      1.0000 0.71090  0.33300  0.01010  Biso   1.000  C
  C35      1.0000 0.88260  0.14320  0.01960  Biso   1.000  C
  C36      1.0000 0.65510  0.38960  0.98240  Biso   1.000  C
  C37      1.0000 0.90560  0.98850  0.23630  Biso   1.000  C
  C38      1.0000 0.95670  0.94740  0.26970  Biso   1.000  C
  C39      1.0000 0.88980  0.94530  0.31470  Biso   1.000  C
  C40      1.0000 0.78980  0.98390  0.31490  Biso   1.000  C
  C41      1.0000 0.94960  0.00001  0.18491  Biso   1.000  C
  C42      1.0000 0.69600  0.98810  0.35380  Biso   1.000  C
  C43      1.0000 0.76900  0.84115  0.00025  Biso   1.000  C
  C44      1.0000 0.72530  0.82390  0.95060  Biso   1.000  C
  C45      1.0000 0.66420  0.75290  0.94000  Biso   1.000  C
  C46      1.0000 0.66250  0.71630  0.98120  Biso   1.000  C
  C47      1.0000 0.84050  0.90870  0.02520  Biso   1.000  C
  C48      1.0000 0.60930  0.63990  0.98520  Biso   1.000  C
  C49      1.0000 0.07940  0.33230  0.19750  Biso   1.000  C
  C50      1.0000 0.95930  0.30700  0.19110  Biso   1.000  C
  C51      1.0000 0.06980  0.20230  0.15550  Biso   1.000  C
  C52      1.0000 0.44160  0.88870  0.01530  Biso   1.000  C
  C53      1.0000 0.46550  0.86520  0.06820  Biso   1.000  C
  C54      1.0000 0.31220  0.95320  0.07880  Biso   1.000  C
  C55      1.0000 0.67400  0.53730  0.74150  Biso   1.000  C
  C56      1.0000 0.62800  0.60720  0.78430  Biso   1.000  C
  C57      1.0000 0.65210  0.50040  0.82090  Biso   1.000  C
  C58      1.0000 0.34340  0.15930  0.79890  Biso   1.000  C
  C59      1.0000 0.23990  0.20700  0.82190  Biso   1.000  C
  C60      1.0000 0.40150  0.28400  0.83710  Biso   1.000  C
  C61      1.0000 0.18360  0.71800  0.52690  Biso   1.000  C
  C62      1.0000 0.23090  0.76250  0.57140  Biso   1.000  C
  C63      1.0000 0.29100  0.82880  0.56190  Biso   1.000  C
  C64      1.0000 0.28910  0.83300  0.51010  Biso   1.000  C
  C65      1.0000 0.11740  0.64320  0.51960  Biso   1.000  C
  C66      1.0000 0.34490  0.88960  0.48240  Biso   1.000  C
  C67      1.0000 0.09440  0.48850  0.73630  Biso   1.000  C
  C68      1.0000 0.04330  0.44740  0.76970  Biso   1.000  C
  C69      1.0000 0.11020  0.44530  0.81470  Biso   1.000  C
  C70      1.0000 0.21020  0.48390  0.81490  Biso   1.000  C
  C71      1.0000 0.05040  0.50001  0.68491  Biso   1.000  C
  C72      1.0000 0.30400  0.48810  0.85380  Biso   1.000  C
  C73      1.0000 0.23100  0.34115  0.50025  Biso   1.000  C
  C74      1.0000 0.27470  0.32390  0.45060  Biso   1.000  C
  C75      1.0000 0.33580  0.25290  0.44000  Biso   1.000  C
  C76      1.0000 0.33750  0.21630  0.48120  Biso   1.000  C
  C77      1.0000 0.15950  0.40870  0.52520  Biso   1.000  C
  C78      1.0000 0.39070  0.13990  0.48520  Biso   1.000  C
  C79      1.0000 0.92060  0.83230  0.69750  Biso   1.000  C
  C80      1.0000 0.04070  0.80700  0.69110  Biso   1.000  C
  C81      1.0000 0.93020  0.70230  0.65550  Biso   1.000  C
  C82      1.0000 0.55840  0.38870  0.51530  Biso   1.000  C
  C83      1.0000 0.53450  0.36520  0.56820  Biso   1.000  C
  C84      1.0000 0.68780  0.45320  0.57880  Biso   1.000  C
  C85      1.0000 0.32600  0.03730  0.24150  Biso   1.000  C
  C86      1.0000 0.37200  0.10720  0.28430  Biso   1.000  C
  C87      1.0000 0.34790  0.00040  0.32090  Biso   1.000  C
  C88      1.0000 0.65660  0.65930  0.29890  Biso   1.000  C
  C89      1.0000 0.76010  0.70700  0.32190  Biso   1.000  C
  C90      1.0000 0.59850  0.78400  0.33710  Biso   1.000  C
  C91      1.0000 0.18360  0.78200  0.97310  Biso   1.000  C
  C92      1.0000 0.23090  0.73750  0.92860  Biso   1.000  C
  C93      1.0000 0.29100  0.67120  0.93810  Biso   1.000  C
  C94      1.0000 0.28910  0.66700  0.98990  Biso   1.000  C
  C95      1.0000 0.11740  0.85680  0.98040  Biso   1.000  C
  C96      1.0000 0.34490  0.61040  0.01760  Biso   1.000  C
  C97      1.0000 0.09440  0.01150  0.76370  Biso   1.000  C
  C98      1.0000 0.04330  0.05260  0.73030  Biso   1.000  C
  C99      1.0000 0.11020  0.05470  0.68530  Biso   1.000  C
  C100     1.0000 0.21020  0.01610  0.68510  Biso   1.000  C
  C101     1.0000 0.05040  0.99999  0.81509  Biso   1.000  C
  C102     1.0000 0.30400  0.01190  0.64620  Biso   1.000  C
  C103     1.0000 0.23100  0.15885  0.99975  Biso   1.000  C
  C104     1.0000 0.27470  0.17610  0.04940  Biso   1.000  C
  C105     1.0000 0.33580  0.24710  0.06000  Biso   1.000  C
  C106     1.0000 0.33750  0.28370  0.01880  Biso   1.000  C
  C107     1.0000 0.15950  0.09130  0.97480  Biso   1.000  C
  C108     1.0000 0.39070  0.36010  0.01480  Biso   1.000  C
  C109     1.0000 0.92060  0.66770  0.80250  Biso   1.000  C
  C110     1.0000 0.04070  0.69300  0.80890  Biso   1.000  C
  C111     1.0000 0.93020  0.79770  0.84450  Biso   1.000  C
  C112     1.0000 0.55840  0.11130  0.98470  Biso   1.000  C
  C113     1.0000 0.53450  0.13480  0.93180  Biso   1.000  C
  C114     1.0000 0.68780  0.04680  0.92120  Biso   1.000  C
  C115     1.0000 0.32600  0.46270  0.25850  Biso   1.000  C
  C116     1.0000 0.37200  0.39280  0.21570  Biso   1.000  C
  C117     1.0000 0.34790  0.49960  0.17910  Biso   1.000  C
  C118     1.0000 0.65660  0.84070  0.20110  Biso   1.000  C
  C119     1.0000 0.76010  0.79300  0.17810  Biso   1.000  C
  C120     1.0000 0.59850  0.71600  0.16290  Biso   1.000  C
  S1       1.0000 0.78602  0.24407  0.52769  Biso   1.000  S
  S2       1.0000 0.73368  0.72917  0.46525  Biso   1.000  S
  S3       1.0000 0.77538  0.47443  0.23949  Biso   1.000  S
  S4       1.0000 0.78602  0.25593  0.97231  Biso   1.000  S
  S5       1.0000 0.73368  0.77083  0.03475  Biso   1.000  S
  S6       1.0000 0.77538  0.02557  0.26051  Biso   1.000  S
  S7       1.0000 0.21398  0.75593  0.47231  Biso   1.000  S
  S8       1.0000 0.26632  0.27083  0.53475  Biso   1.000  S
  S9       1.0000 0.22462  0.52557  0.76051  Biso   1.000  S
  S10      1.0000 0.21398  0.74407  0.02769  Biso   1.000  S
  S11      1.0000 0.26632  0.22917  0.96525  Biso   1.000  S
  S12      1.0000 0.22462  0.97443  0.73949  Biso   1.000  S
  N1       1.0000 0.97170  0.27600  0.33110  Biso   1.000  N
  N2       1.0000 0.13870  0.24290  0.32280  Biso   1.000  N
  N3       1.0000 0.37660  0.59350  0.39830  Biso   1.000  N
  N4       1.0000 0.35400  0.55010  0.47060  Biso   1.000  N
  N5       1.0000 0.65410  0.92050  0.66780  Biso   1.000  N
  N6       1.0000 0.66440  0.02530  0.72960  Biso   1.000  N
  N7       1.0000 0.43460  0.28740  0.68660  Biso   1.000  N
  N8       1.0000 0.28950  0.21700  0.65710  Biso   1.000  N
  N9       1.0000 0.97170  0.22400  0.16890  Biso   1.000  N
  N10      1.0000 0.13870  0.25710  0.17720  Biso   1.000  N
  N11      1.0000 0.37660  0.90650  0.10170  Biso   1.000  N
  N12      1.0000 0.35400  0.94990  0.02940  Biso   1.000  N
  N13      1.0000 0.65410  0.57950  0.83220  Biso   1.000  N
  N14      1.0000 0.66440  0.47470  0.77040  Biso   1.000  N
  N15      1.0000 0.43460  0.21260  0.81340  Biso   1.000  N
  N16      1.0000 0.28950  0.28300  0.84290  Biso   1.000  N
  N17      1.0000 0.02830  0.72400  0.66890  Biso   1.000  N
  N18      1.0000 0.86130  0.75710  0.67720  Biso   1.000  N
  N19      1.0000 0.62340  0.40650  0.60170  Biso   1.000  N
  N20      1.0000 0.64600  0.44990  0.52940  Biso   1.000  N
  N21      1.0000 0.34590  0.07950  0.33220  Biso   1.000  N
  N22      1.0000 0.33560  0.97470  0.27040  Biso   1.000  N
  N23      1.0000 0.56540  0.71260  0.31340  Biso   1.000  N
  N24      1.0000 0.71050  0.78300  0.34290  Biso   1.000  N
  N25      1.0000 0.02830  0.77600  0.83110  Biso   1.000  N
  N26      1.0000 0.86130  0.74290  0.82280  Biso   1.000  N
  N27      1.0000 0.62340  0.09350  0.89830  Biso   1.000  N
  N28      1.0000 0.64600  0.05010  0.97060  Biso   1.000  N
  N29      1.0000 0.34590  0.42050  0.16780  Biso   1.000  N
  N30      1.0000 0.33560  0.52530  0.22960  Biso   1.000  N
  N31      1.0000 0.56540  0.78740  0.18660  Biso   1.000  N
  N32      1.0000 0.71050  0.71700  0.15710  Biso   1.000  N
  O1       1.0000 0.90490  0.38222  0.43932  Biso   1.000  O
  O2       1.0000 0.90960  0.38775  0.52675  Biso   1.000  O
  O3       1.0000 0.64870  0.12976  0.56656  Biso   1.000  O
  O4       1.0000 0.61240  0.04667  0.49187  Biso   1.000  O
  O5       1.0000 0.03340  0.53951  0.33551  Biso   1.000  O
  O6       1.0000 0.90110  0.44994  0.33664  Biso   1.000  O
  O7       1.0000 0.60350  0.48025  0.15265  Biso   1.000  O
  O8       1.0000 0.71370  0.54363  0.10703  Biso   1.000  O
  O9       1.0000 0.88020  0.54575  0.50345  Biso   1.000  O
  O10      1.0000 0.86300  0.58031  0.42681  Biso   1.000  O
  O11      1.0000 0.59810  0.87240  0.46900  Biso   1.000  O
  O12      1.0000 0.58120  0.90587  0.55717  Biso   1.000  O
  O13      1.0000 0.10490  0.36590  0.36440  Biso   1.000  O
  O14      1.0000 0.23130  0.50610  0.40120  Biso   1.000  O
  O15      1.0000 0.46860  0.15927  0.64817  Biso   1.000  O
  O16      1.0000 0.64300  0.03981  0.64581  Biso   1.000  O
  O17      1.0000 0.90490  0.11778  0.06068  Biso   1.000  O
  O18      1.0000 0.90960  0.11225  0.97325  Biso   1.000  O
  O19      1.0000 0.64870  0.37024  0.93344  Biso   1.000  O
  O20      1.0000 0.61240  0.45333  0.00813  Biso   1.000  O
  O21      1.0000 0.03340  0.96049  0.16449  Biso   1.000  O
  O22      1.0000 0.90110  0.05006  0.16336  Biso   1.000  O
  O23      1.0000 0.60350  0.01975  0.34735  Biso   1.000  O
  O24      1.0000 0.71370  0.95637  0.39297  Biso   1.000  O
  O25      1.0000 0.88020  0.95425  0.99655  Biso   1.000  O
  O26      1.0000 0.86300  0.91969  0.07319  Biso   1.000  O
  O27      1.0000 0.59810  0.62760  0.03100  Biso   1.000  O
  O28      1.0000 0.58120  0.59413  0.94283  Biso   1.000  O
  O29      1.0000 0.10490  0.13410  0.13560  Biso   1.000  O
  O30      1.0000 0.23130  0.99390  0.09880  Biso   1.000  O
  O31      1.0000 0.46860  0.34073  0.85183  Biso   1.000  O
  O32      1.0000 0.64300  0.46019  0.85419  Biso   1.000  O
  O33      1.0000 0.09510  0.61778  0.56068  Biso   1.000  O
  O34      1.0000 0.09040  0.61225  0.47325  Biso   1.000  O
  O35      1.0000 0.35130  0.87024  0.43344  Biso   1.000  O
  O36      1.0000 0.38760  0.95333  0.50813  Biso   1.000  O
  O37      1.0000 0.96660  0.46049  0.66449  Biso   1.000  O
  O38      1.0000 0.09890  0.55006  0.66336  Biso   1.000  O
  O39      1.0000 0.39650  0.51975  0.84735  Biso   1.000  O
  O40      1.0000 0.28630  0.45637  0.89297  Biso   1.000  O
  O41      1.0000 0.11980  0.45425  0.49655  Biso   1.000  O
  O42      1.0000 0.13700  0.41969  0.57319  Biso   1.000  O
  O43      1.0000 0.40190  0.12760  0.53100  Biso   1.000  O
  O44      1.0000 0.41880  0.09413  0.44283  Biso   1.000  O
  O45      1.0000 0.89510  0.63410  0.63560  Biso   1.000  O
  O46      1.0000 0.76870  0.49390  0.59880  Biso   1.000  O
  O47      1.0000 0.53140  0.84073  0.35183  Biso   1.000  O
  O48      1.0000 0.35700  0.96019  0.35419  Biso   1.000  O
  O49      1.0000 0.09510  0.88222  0.93932  Biso   1.000  O
  O50      1.0000 0.09040  0.88775  0.02675  Biso   1.000  O
  O51      1.0000 0.35130  0.62976  0.06656  Biso   1.000  O
  O52      1.0000 0.38760  0.54667  0.99187  Biso   1.000  O
  O53      1.0000 0.96660  0.03951  0.83551  Biso   1.000  O
  O54      1.0000 0.09890  0.94994  0.83664  Biso   1.000  O
  O55      1.0000 0.39650  0.98025  0.65265  Biso   1.000  O
  O56      1.0000 0.28630  0.04363  0.60703  Biso   1.000  O
  O57      1.0000 0.11980  0.04575  0.00345  Biso   1.000  O
  O58      1.0000 0.13700  0.08031  0.92681  Biso   1.000  O
  O59      1.0000 0.40190  0.37240  0.96900  Biso   1.000  O
  O60      1.0000 0.41880  0.40587  0.05717  Biso   1.000  O
  O61      1.0000 0.89510  0.86590  0.86440  Biso   1.000  O
  O62      1.0000 0.76870  0.00610  0.90120  Biso   1.000  O
  O63      1.0000 0.53140  0.65927  0.14817  Biso   1.000  O
  O64      1.0000 0.35700  0.53981  0.14581  Biso   1.000  O
