data_image0
_cell_length_a       11.5408
_cell_length_b       16.159
_cell_length_c       12.0019
_cell_angle_alpha    90
_cell_angle_beta     112.733
_cell_angle_gamma    90

_symmetry_space_group_name_H-M    "P 1"
_symmetry_int_tables_number       1

loop_
  _symmetry_equiv_pos_as_xyz
  'x, y, z'

loop_
  _atom_site_label
  _atom_site_occupancy
  _atom_site_fract_x
  _atom_site_fract_y
  _atom_site_fract_z
  _atom_site_thermal_displace_type
  _atom_site_B_iso_or_equiv
  _atom_site_type_symbol
  Dy1      1.0000 0.19449  0.02781  0.07878  Biso   1.000  Dy
  S1       1.0000 0.05294  0.21891  0.71243  Biso   1.000  S
  S2       1.0000 0.48925  0.28359  0.25072  Biso   1.000  S
  O1       1.0000 0.12931  0.07623  0.87958  Biso   1.000  O
  O2       1.0000 0.93691  0.02949  0.84311  Biso   1.000  O
  O3       1.0000 0.05675  0.36373  0.56788  Biso   1.000  O
  O4       1.0000 0.85725  0.40206  0.52329  Biso   1.000  O
  O5       1.0000 0.27470  0.10433  0.27988  Biso   1.000  O
  O6       1.0000 0.33740  0.13971  0.13568  Biso   1.000  O
  O7       1.0000 0.64768  0.43479  0.29265  Biso   1.000  O
  O8       1.0000 0.62348  0.47735  0.45693  Biso   1.000  O
  C1       1.0000 0.95670  0.15240  0.74820  Biso   1.000  C
  C2       1.0000 0.83380  0.17670  0.69870  Biso   1.000  C
  H1       1.0000 0.76850  0.14830  0.70890  Biso   1.000  H
  C3       1.0000 0.81780  0.24951  0.63080  Biso   1.000  C
  H2       1.0000 0.74030  0.27490  0.59140  Biso   1.000  H
  C4       1.0000 0.92760  0.27939  0.62820  Biso   1.000  C
  C5       1.0000 0.01160  0.08146  0.82880  Biso   1.000  C
  C6       1.0000 0.94910  0.35410  0.56860  Biso   1.000  C
  C7       1.0000 0.39290  0.22804  0.30340  Biso   1.000  C
  C8       1.0000 0.38290  0.26540  0.40080  Biso   1.000  C
  H3       1.0000 0.33480  0.24430  0.44120  Biso   1.000  H
  C9       1.0000 0.45210  0.33871  0.43410  Biso   1.000  C
  H4       1.0000 0.45440  0.37190  0.49820  Biso   1.000  H
  C10      1.0000 0.51620  0.35627  0.36210  Biso   1.000  C
  C11      1.0000 0.33120  0.15247  0.23730  Biso   1.000  C
  C12      1.0000 0.60010  0.42727  0.37090  Biso   1.000  C
  Dy2      1.0000 0.80551  0.52781  0.42122  Biso   1.000  Dy
  S3       1.0000 0.94706  0.71891  0.78757  Biso   1.000  S
  S4       1.0000 0.51075  0.78359  0.24928  Biso   1.000  S
  O9       1.0000 0.87069  0.57623  0.62042  Biso   1.000  O
  O10      1.0000 0.06309  0.52949  0.65689  Biso   1.000  O
  O11      1.0000 0.94325  0.86373  0.93212  Biso   1.000  O
  O12      1.0000 0.14275  0.90206  0.97671  Biso   1.000  O
  O13      1.0000 0.72530  0.60433  0.22012  Biso   1.000  O
  O14      1.0000 0.66260  0.63971  0.36432  Biso   1.000  O
  O15      1.0000 0.35232  0.93479  0.20735  Biso   1.000  O
  O16      1.0000 0.37652  0.97735  0.04307  Biso   1.000  O
  C13      1.0000 0.04330  0.65240  0.75180  Biso   1.000  C
  C14      1.0000 0.16620  0.67670  0.80130  Biso   1.000  C
  H5       1.0000 0.23150  0.64830  0.79110  Biso   1.000  H
  C15      1.0000 0.18220  0.74951  0.86920  Biso   1.000  C
  H6       1.0000 0.25970  0.77490  0.90860  Biso   1.000  H
  C16      1.0000 0.07240  0.77939  0.87180  Biso   1.000  C
  C17      1.0000 0.98840  0.58146  0.67120  Biso   1.000  C
  C18      1.0000 0.05090  0.85410  0.93140  Biso   1.000  C
  C19      1.0000 0.60710  0.72804  0.19660  Biso   1.000  C
  C20      1.0000 0.61710  0.76540  0.09920  Biso   1.000  C
  H7       1.0000 0.66520  0.74430  0.05880  Biso   1.000  H
  C21      1.0000 0.54790  0.83871  0.06590  Biso   1.000  C
  H8       1.0000 0.54560  0.87190  0.00180  Biso   1.000  H
  C22      1.0000 0.48380  0.85627  0.13790  Biso   1.000  C
  C23      1.0000 0.66880  0.65247  0.26270  Biso   1.000  C
  C24      1.0000 0.39990  0.92727  0.12910  Biso   1.000  C
  Dy3      1.0000 0.80551  0.97219  0.92122  Biso   1.000  Dy
  S5       1.0000 0.94706  0.78109  0.28757  Biso   1.000  S
  S6       1.0000 0.51075  0.71641  0.74928  Biso   1.000  S
  O17      1.0000 0.87069  0.92377  0.12042  Biso   1.000  O
  O18      1.0000 0.06309  0.97051  0.15689  Biso   1.000  O
  O19      1.0000 0.94325  0.63627  0.43212  Biso   1.000  O
  O20      1.0000 0.14275  0.59794  0.47671  Biso   1.000  O
  O21      1.0000 0.72530  0.89567  0.72012  Biso   1.000  O
  O22      1.0000 0.66260  0.86029  0.86432  Biso   1.000  O
  O23      1.0000 0.35232  0.56521  0.70735  Biso   1.000  O
  O24      1.0000 0.37652  0.52265  0.54307  Biso   1.000  O
  C25      1.0000 0.04330  0.84760  0.25180  Biso   1.000  C
  C26      1.0000 0.16620  0.82330  0.30130  Biso   1.000  C
  H9       1.0000 0.23150  0.85170  0.29110  Biso   1.000  H
  C27      1.0000 0.18220  0.75049  0.36920  Biso   1.000  C
  H10      1.0000 0.25970  0.72510  0.40860  Biso   1.000  H
  C28      1.0000 0.07240  0.72061  0.37180  Biso   1.000  C
  C29      1.0000 0.98840  0.91854  0.17120  Biso   1.000  C
  C30      1.0000 0.05090  0.64590  0.43140  Biso   1.000  C
  C31      1.0000 0.60710  0.77196  0.69660  Biso   1.000  C
  C32      1.0000 0.61710  0.73460  0.59920  Biso   1.000  C
  H11      1.0000 0.66520  0.75570  0.55880  Biso   1.000  H
  C33      1.0000 0.54790  0.66129  0.56590  Biso   1.000  C
  H12      1.0000 0.54560  0.62810  0.50180  Biso   1.000  H
  C34      1.0000 0.48380  0.64373  0.63790  Biso   1.000  C
  C35      1.0000 0.66880  0.84753  0.76270  Biso   1.000  C
  C36      1.0000 0.39990  0.57273  0.62910  Biso   1.000  C
  Dy4      1.0000 0.19449  0.47219  0.57878  Biso   1.000  Dy
  S7       1.0000 0.05294  0.28109  0.21243  Biso   1.000  S
  S8       1.0000 0.48925  0.21641  0.75072  Biso   1.000  S
  O25      1.0000 0.12931  0.42377  0.37958  Biso   1.000  O
  O26      1.0000 0.93691  0.47051  0.34311  Biso   1.000  O
  O27      1.0000 0.05675  0.13627  0.06788  Biso   1.000  O
  O28      1.0000 0.85725  0.09794  0.02329  Biso   1.000  O
  O29      1.0000 0.27470  0.39567  0.77988  Biso   1.000  O
  O30      1.0000 0.33740  0.36029  0.63568  Biso   1.000  O
  O31      1.0000 0.64768  0.06521  0.79265  Biso   1.000  O
  O32      1.0000 0.62348  0.02265  0.95693  Biso   1.000  O
  C37      1.0000 0.95670  0.34760  0.24820  Biso   1.000  C
  C38      1.0000 0.83380  0.32330  0.19870  Biso   1.000  C
  H13      1.0000 0.76850  0.35170  0.20890  Biso   1.000  H
  C39      1.0000 0.81780  0.25049  0.13080  Biso   1.000  C
  H14      1.0000 0.74030  0.22510  0.09140  Biso   1.000  H
  C40      1.0000 0.92760  0.22061  0.12820  Biso   1.000  C
  C41      1.0000 0.01160  0.41854  0.32880  Biso   1.000  C
  C42      1.0000 0.94910  0.14590  0.06860  Biso   1.000  C
  C43      1.0000 0.39290  0.27196  0.80340  Biso   1.000  C
  C44      1.0000 0.38290  0.23460  0.90080  Biso   1.000  C
  H15      1.0000 0.33480  0.25570  0.94120  Biso   1.000  H
  C45      1.0000 0.45210  0.16129  0.93410  Biso   1.000  C
  H16      1.0000 0.45440  0.12810  0.99820  Biso   1.000  H
  C46      1.0000 0.51620  0.14373  0.86210  Biso   1.000  C
  C47      1.0000 0.33120  0.34753  0.73730  Biso   1.000  C
  C48      1.0000 0.60010  0.07273  0.87090  Biso   1.000  C
