data_image0
_cell_length_a       12.1799
_cell_length_b       16.9836
_cell_length_c       25.7802
_cell_angle_alpha    102.109
_cell_angle_beta     90
_cell_angle_gamma    90

_symmetry_space_group_name_H-M    P 1
_symmetry_int_tables_number       1

loop_
  _symmetry_equiv_pos_as_xyz
  'x, y, z'

loop_
  _atom_site_label
  _atom_site_occupancy
  _atom_site_fract_x
  _atom_site_fract_y
  _atom_site_fract_z
  _atom_site_thermal_displace_type
  _atom_site_B_iso_or_equiv
  _atom_site_type_symbol
  Nd1      1.0000 0.47639  0.48566  0.41848  Biso   1.000  Nd
  Nd2      1.0000 0.99845  0.96057  0.41749  Biso   1.000  Nd
  Nd3      1.0000 0.47639  0.01434  0.08152  Biso   1.000  Nd
  Nd4      1.0000 0.99845  0.53943  0.08251  Biso   1.000  Nd
  Nd5      1.0000 0.52361  0.51434  0.58152  Biso   1.000  Nd
  Nd6      1.0000 0.00155  0.03943  0.58251  Biso   1.000  Nd
  Nd7      1.0000 0.52361  0.98566  0.91848  Biso   1.000  Nd
  Nd8      1.0000 0.00155  0.46057  0.91749  Biso   1.000  Nd
  H1       1.0000 0.15530  0.59450  0.36520  Biso   1.000  H
  H2       1.0000 0.17640  0.50950  0.48850  Biso   1.000  H
  H3       1.0000 0.60860  0.31050  0.33700  Biso   1.000  H
  H4       1.0000 0.32790  0.23440  0.30740  Biso   1.000  H
  H5       1.0000 0.04370  0.69700  0.30500  Biso   1.000  H
  H6       1.0000 0.78830  0.81310  0.34640  Biso   1.000  H
  H7       1.0000 0.31530  0.01970  0.31270  Biso   1.000  H
  H8       1.0000 0.02220  0.99360  0.27980  Biso   1.000  H
  H9       1.0000 0.71470  0.67000  0.57920  Biso   1.000  H
  H10      1.0000 0.82500  0.79400  0.59460  Biso   1.000  H
  H11      1.0000 0.48970  0.58080  0.23900  Biso   1.000  H
  H12      1.0000 0.60000  0.58860  0.16150  Biso   1.000  H
  H13      1.0000 0.26830  0.74420  0.60240  Biso   1.000  H
  H14      1.0000 0.17320  0.86470  0.58930  Biso   1.000  H
  H15      1.0000 0.00160  0.57370  0.48810  Biso   1.000  H
  H16      1.0000 0.08850  0.64200  0.50890  Biso   1.000  H
  H17      1.0000 0.06470  0.68770  0.43600  Biso   1.000  H
  H18      1.0000 0.98400  0.61560  0.41340  Biso   1.000  H
  H19      1.0000 0.58170  0.15030  0.33740  Biso   1.000  H
  H20      1.0000 0.61250  0.16370  0.28060  Biso   1.000  H
  H21      1.0000 0.45860  0.13710  0.25380  Biso   1.000  H
  H22      1.0000 0.43500  0.10900  0.30760  Biso   1.000  H
  H23      1.0000 0.75420  0.67090  0.34120  Biso   1.000  H
  H24      1.0000 0.73610  0.69310  0.28530  Biso   1.000  H
  H25      1.0000 0.89020  0.62900  0.25440  Biso   1.000  H
  H26      1.0000 0.90240  0.60020  0.30870  Biso   1.000  H
  H27      1.0000 0.27630  0.00020  0.21800  Biso   1.000  H
  H28      1.0000 0.27030  0.09240  0.24490  Biso   1.000  H
  H29      1.0000 0.10200  0.09380  0.23470  Biso   1.000  H
  H30      1.0000 0.11150  0.00490  0.20040  Biso   1.000  H
  H31      1.0000 0.15530  0.90550  0.13480  Biso   1.000  H
  H32      1.0000 0.17640  0.99050  0.01150  Biso   1.000  H
  H33      1.0000 0.60860  0.18950  0.16300  Biso   1.000  H
  H34      1.0000 0.32790  0.26560  0.19260  Biso   1.000  H
  H35      1.0000 0.04370  0.80300  0.19500  Biso   1.000  H
  H36      1.0000 0.78830  0.68690  0.15360  Biso   1.000  H
  H37      1.0000 0.31530  0.48030  0.18730  Biso   1.000  H
  H38      1.0000 0.02220  0.50640  0.22020  Biso   1.000  H
  H39      1.0000 0.71470  0.83000  0.92080  Biso   1.000  H
  H40      1.0000 0.82500  0.70600  0.90540  Biso   1.000  H
  H41      1.0000 0.48970  0.91920  0.26100  Biso   1.000  H
  H42      1.0000 0.60000  0.91140  0.33850  Biso   1.000  H
  H43      1.0000 0.26830  0.75580  0.89760  Biso   1.000  H
  H44      1.0000 0.17320  0.63530  0.91070  Biso   1.000  H
  H45      1.0000 0.00160  0.92630  0.01190  Biso   1.000  H
  H46      1.0000 0.08850  0.85800  0.99110  Biso   1.000  H
  H47      1.0000 0.06470  0.81230  0.06400  Biso   1.000  H
  H48      1.0000 0.98400  0.88440  0.08660  Biso   1.000  H
  H49      1.0000 0.58170  0.34970  0.16260  Biso   1.000  H
  H50      1.0000 0.61250  0.33630  0.21940  Biso   1.000  H
  H51      1.0000 0.45860  0.36290  0.24620  Biso   1.000  H
  H52      1.0000 0.43500  0.39100  0.19240  Biso   1.000  H
  H53      1.0000 0.75420  0.82910  0.15880  Biso   1.000  H
  H54      1.0000 0.73610  0.80690  0.21470  Biso   1.000  H
  H55      1.0000 0.89020  0.87100  0.24560  Biso   1.000  H
  H56      1.0000 0.90240  0.89980  0.19130  Biso   1.000  H
  H57      1.0000 0.27630  0.49980  0.28200  Biso   1.000  H
  H58      1.0000 0.27030  0.40760  0.25510  Biso   1.000  H
  H59      1.0000 0.10200  0.40620  0.26530  Biso   1.000  H
  H60      1.0000 0.11150  0.49510  0.29960  Biso   1.000  H
  H61      1.0000 0.84470  0.40550  0.63480  Biso   1.000  H
  H62      1.0000 0.82360  0.49050  0.51150  Biso   1.000  H
  H63      1.0000 0.39140  0.68950  0.66300  Biso   1.000  H
  H64      1.0000 0.67210  0.76560  0.69260  Biso   1.000  H
  H65      1.0000 0.95630  0.30300  0.69500  Biso   1.000  H
  H66      1.0000 0.21170  0.18690  0.65360  Biso   1.000  H
  H67      1.0000 0.68470  0.98030  0.68730  Biso   1.000  H
  H68      1.0000 0.97780  0.00640  0.72020  Biso   1.000  H
  H69      1.0000 0.28530  0.33000  0.42080  Biso   1.000  H
  H70      1.0000 0.17500  0.20600  0.40540  Biso   1.000  H
  H71      1.0000 0.51030  0.41920  0.76100  Biso   1.000  H
  H72      1.0000 0.40000  0.41140  0.83850  Biso   1.000  H
  H73      1.0000 0.73170  0.25580  0.39760  Biso   1.000  H
  H74      1.0000 0.82680  0.13530  0.41070  Biso   1.000  H
  H75      1.0000 0.99840  0.42630  0.51190  Biso   1.000  H
  H76      1.0000 0.91150  0.35800  0.49110  Biso   1.000  H
  H77      1.0000 0.93530  0.31230  0.56400  Biso   1.000  H
  H78      1.0000 0.01600  0.38440  0.58660  Biso   1.000  H
  H79      1.0000 0.41830  0.84970  0.66260  Biso   1.000  H
  H80      1.0000 0.38750  0.83630  0.71940  Biso   1.000  H
  H81      1.0000 0.54140  0.86290  0.74620  Biso   1.000  H
  H82      1.0000 0.56500  0.89100  0.69240  Biso   1.000  H
  H83      1.0000 0.24580  0.32910  0.65880  Biso   1.000  H
  H84      1.0000 0.26390  0.30690  0.71470  Biso   1.000  H
  H85      1.0000 0.10980  0.37100  0.74560  Biso   1.000  H
  H86      1.0000 0.09760  0.39980  0.69130  Biso   1.000  H
  H87      1.0000 0.72370  0.99980  0.78200  Biso   1.000  H
  H88      1.0000 0.72970  0.90760  0.75510  Biso   1.000  H
  H89      1.0000 0.89800  0.90620  0.76530  Biso   1.000  H
  H90      1.0000 0.88850  0.99510  0.79960  Biso   1.000  H
  H91      1.0000 0.84470  0.09450  0.86520  Biso   1.000  H
  H92      1.0000 0.82360  0.00950  0.98850  Biso   1.000  H
  H93      1.0000 0.39140  0.81050  0.83700  Biso   1.000  H
  H94      1.0000 0.67210  0.73440  0.80740  Biso   1.000  H
  H95      1.0000 0.95630  0.19700  0.80500  Biso   1.000  H
  H96      1.0000 0.21170  0.31310  0.84640  Biso   1.000  H
  H97      1.0000 0.68470  0.51970  0.81270  Biso   1.000  H
  H98      1.0000 0.97780  0.49360  0.77980  Biso   1.000  H
  H99      1.0000 0.28530  0.17000  0.07920  Biso   1.000  H
  H100     1.0000 0.17500  0.29400  0.09460  Biso   1.000  H
  H101     1.0000 0.51030  0.08080  0.73900  Biso   1.000  H
  H102     1.0000 0.40000  0.08860  0.66150  Biso   1.000  H
  H103     1.0000 0.73170  0.24420  0.10240  Biso   1.000  H
  H104     1.0000 0.82680  0.36470  0.08930  Biso   1.000  H
  H105     1.0000 0.99840  0.07370  0.98810  Biso   1.000  H
  H106     1.0000 0.91150  0.14200  0.00890  Biso   1.000  H
  H107     1.0000 0.93530  0.18770  0.93600  Biso   1.000  H
  H108     1.0000 0.01600  0.11560  0.91340  Biso   1.000  H
  H109     1.0000 0.41830  0.65030  0.83740  Biso   1.000  H
  H110     1.0000 0.38750  0.66370  0.78060  Biso   1.000  H
  H111     1.0000 0.54140  0.63710  0.75380  Biso   1.000  H
  H112     1.0000 0.56500  0.60900  0.80760  Biso   1.000  H
  H113     1.0000 0.24580  0.17090  0.84120  Biso   1.000  H
  H114     1.0000 0.26390  0.19310  0.78530  Biso   1.000  H
  H115     1.0000 0.10980  0.12900  0.75440  Biso   1.000  H
  H116     1.0000 0.09760  0.10020  0.80870  Biso   1.000  H
  H117     1.0000 0.72370  0.50020  0.71800  Biso   1.000  H
  H118     1.0000 0.72970  0.59240  0.74490  Biso   1.000  H
  H119     1.0000 0.89800  0.59380  0.73470  Biso   1.000  H
  H120     1.0000 0.88850  0.50490  0.70040  Biso   1.000  H
  C1       1.0000 0.72000  0.66430  0.49960  Biso   1.000  C
  C2       1.0000 0.74000  0.69390  0.55220  Biso   1.000  C
  C3       1.0000 0.80510  0.76540  0.56110  Biso   1.000  C
  C4       1.0000 0.83410  0.78660  0.51590  Biso   1.000  C
  C5       1.0000 0.65030  0.59570  0.47540  Biso   1.000  C
  C6       1.0000 0.89730  0.85850  0.51120  Biso   1.000  C
  C7       1.0000 0.60670  0.51610  0.26530  Biso   1.000  C
  C8       1.0000 0.55870  0.55730  0.23260  Biso   1.000  C
  C9       1.0000 0.62210  0.56200  0.18780  Biso   1.000  C
  C10      1.0000 0.72020  0.52290  0.18760  Biso   1.000  C
  C11      1.0000 0.56310  0.50040  0.31560  Biso   1.000  C
  C12      1.0000 0.81070  0.52080  0.14940  Biso   1.000  C
  C13      1.0000 0.31480  0.71800  0.52520  Biso   1.000  C
  C14      1.0000 0.26520  0.75990  0.57000  Biso   1.000  C
  C15      1.0000 0.20900  0.82890  0.56240  Biso   1.000  C
  C16      1.0000 0.21340  0.83710  0.51080  Biso   1.000  C
  C17      1.0000 0.38120  0.64300  0.51730  Biso   1.000  C
  C18      1.0000 0.16000  0.89770  0.48520  Biso   1.000  C
  C19      1.0000 0.06880  0.59870  0.47940  Biso   1.000  C
  C20      1.0000 0.05530  0.62970  0.42950  Biso   1.000  C
  C21      1.0000 0.20070  0.54070  0.42110  Biso   1.000  C
  C22      1.0000 0.56000  0.17720  0.30920  Biso   1.000  C
  C23      1.0000 0.46100  0.15310  0.29210  Biso   1.000  C
  C24      1.0000 0.45560  0.29500  0.34020  Biso   1.000  C
  C25      1.0000 0.78870  0.69310  0.31350  Biso   1.000  C
  C26      1.0000 0.89180  0.64650  0.29270  Biso   1.000  C
  C27      1.0000 0.93890  0.77710  0.33220  Biso   1.000  C
  C28      1.0000 0.23910  0.03980  0.24490  Biso   1.000  C
  C29      1.0000 0.12940  0.04000  0.23410  Biso   1.000  C
  C30      1.0000 0.15530  0.00260  0.31670  Biso   1.000  C
  C31      1.0000 0.72000  0.83570  0.00040  Biso   1.000  C
  C32      1.0000 0.74000  0.80610  0.94780  Biso   1.000  C
  C33      1.0000 0.80510  0.73460  0.93890  Biso   1.000  C
  C34      1.0000 0.83410  0.71340  0.98410  Biso   1.000  C
  C35      1.0000 0.65030  0.90430  0.02460  Biso   1.000  C
  C36      1.0000 0.89730  0.64150  0.98880  Biso   1.000  C
  C37      1.0000 0.60670  0.98390  0.23470  Biso   1.000  C
  C38      1.0000 0.55870  0.94270  0.26740  Biso   1.000  C
  C39      1.0000 0.62210  0.93800  0.31220  Biso   1.000  C
  C40      1.0000 0.72020  0.97710  0.31240  Biso   1.000  C
  C41      1.0000 0.56310  0.99960  0.18440  Biso   1.000  C
  C42      1.0000 0.81070  0.97920  0.35060  Biso   1.000  C
  C43      1.0000 0.31480  0.78200  0.97480  Biso   1.000  C
  C44      1.0000 0.26520  0.74010  0.93000  Biso   1.000  C
  C45      1.0000 0.20900  0.67110  0.93760  Biso   1.000  C
  C46      1.0000 0.21340  0.66290  0.98920  Biso   1.000  C
  C47      1.0000 0.38120  0.85700  0.98270  Biso   1.000  C
  C48      1.0000 0.16000  0.60230  0.01480  Biso   1.000  C
  C49      1.0000 0.06880  0.90130  0.02060  Biso   1.000  C
  C50      1.0000 0.05530  0.87030  0.07050  Biso   1.000  C
  C51      1.0000 0.20070  0.95930  0.07890  Biso   1.000  C
  C52      1.0000 0.56000  0.32280  0.19080  Biso   1.000  C
  C53      1.0000 0.46100  0.34690  0.20790  Biso   1.000  C
  C54      1.0000 0.45560  0.20500  0.15980  Biso   1.000  C
  C55      1.0000 0.78870  0.80690  0.18650  Biso   1.000  C
  C56      1.0000 0.89180  0.85350  0.20730  Biso   1.000  C
  C57      1.0000 0.93890  0.72290  0.16780  Biso   1.000  C
  C58      1.0000 0.23910  0.46020  0.25510  Biso   1.000  C
  C59      1.0000 0.12940  0.46000  0.26590  Biso   1.000  C
  C60      1.0000 0.15530  0.49740  0.18330  Biso   1.000  C
  C61      1.0000 0.28000  0.33570  0.50040  Biso   1.000  C
  C62      1.0000 0.26000  0.30610  0.44780  Biso   1.000  C
  C63      1.0000 0.19490  0.23460  0.43890  Biso   1.000  C
  C64      1.0000 0.16590  0.21340  0.48410  Biso   1.000  C
  C65      1.0000 0.34970  0.40430  0.52460  Biso   1.000  C
  C66      1.0000 0.10270  0.14150  0.48880  Biso   1.000  C
  C67      1.0000 0.39330  0.48390  0.73470  Biso   1.000  C
  C68      1.0000 0.44130  0.44270  0.76740  Biso   1.000  C
  C69      1.0000 0.37790  0.43800  0.81220  Biso   1.000  C
  C70      1.0000 0.27980  0.47710  0.81240  Biso   1.000  C
  C71      1.0000 0.43690  0.49960  0.68440  Biso   1.000  C
  C72      1.0000 0.18930  0.47920  0.85060  Biso   1.000  C
  C73      1.0000 0.68520  0.28200  0.47480  Biso   1.000  C
  C74      1.0000 0.73480  0.24010  0.43000  Biso   1.000  C
  C75      1.0000 0.79100  0.17110  0.43760  Biso   1.000  C
  C76      1.0000 0.78660  0.16290  0.48920  Biso   1.000  C
  C77      1.0000 0.61880  0.35700  0.48270  Biso   1.000  C
  C78      1.0000 0.84000  0.10230  0.51480  Biso   1.000  C
  C79      1.0000 0.93120  0.40130  0.52060  Biso   1.000  C
  C80      1.0000 0.94470  0.37030  0.57050  Biso   1.000  C
  C81      1.0000 0.79930  0.45930  0.57890  Biso   1.000  C
  C82      1.0000 0.44000  0.82280  0.69080  Biso   1.000  C
  C83      1.0000 0.53900  0.84690  0.70790  Biso   1.000  C
  C84      1.0000 0.54440  0.70500  0.65980  Biso   1.000  C
  C85      1.0000 0.21130  0.30690  0.68650  Biso   1.000  C
  C86      1.0000 0.10820  0.35350  0.70730  Biso   1.000  C
  C87      1.0000 0.06110  0.22290  0.66780  Biso   1.000  C
  C88      1.0000 0.76090  0.96020  0.75510  Biso   1.000  C
  C89      1.0000 0.87060  0.96000  0.76590  Biso   1.000  C
  C90      1.0000 0.84470  0.99740  0.68330  Biso   1.000  C
  C91      1.0000 0.28000  0.16430  0.99960  Biso   1.000  C
  C92      1.0000 0.26000  0.19390  0.05220  Biso   1.000  C
  C93      1.0000 0.19490  0.26540  0.06110  Biso   1.000  C
  C94      1.0000 0.16590  0.28660  0.01590  Biso   1.000  C
  C95      1.0000 0.34970  0.09570  0.97540  Biso   1.000  C
  C96      1.0000 0.10270  0.35850  0.01120  Biso   1.000  C
  C97      1.0000 0.39330  0.01610  0.76530  Biso   1.000  C
  C98      1.0000 0.44130  0.05730  0.73260  Biso   1.000  C
  C99      1.0000 0.37790  0.06200  0.68780  Biso   1.000  C
  C100     1.0000 0.27980  0.02290  0.68760  Biso   1.000  C
  C101     1.0000 0.43690  0.00040  0.81560  Biso   1.000  C
  C102     1.0000 0.18930  0.02080  0.64940  Biso   1.000  C
  C103     1.0000 0.68520  0.21800  0.02520  Biso   1.000  C
  C104     1.0000 0.73480  0.25990  0.07000  Biso   1.000  C
  C105     1.0000 0.79100  0.32890  0.06240  Biso   1.000  C
  C106     1.0000 0.78660  0.33710  0.01080  Biso   1.000  C
  C107     1.0000 0.61880  0.14300  0.01730  Biso   1.000  C
  C108     1.0000 0.84000  0.39770  0.98520  Biso   1.000  C
  C109     1.0000 0.93120  0.09870  0.97940  Biso   1.000  C
  C110     1.0000 0.94470  0.12970  0.92950  Biso   1.000  C
  C111     1.0000 0.79930  0.04070  0.92110  Biso   1.000  C
  C112     1.0000 0.44000  0.67720  0.80920  Biso   1.000  C
  C113     1.0000 0.53900  0.65310  0.79210  Biso   1.000  C
  C114     1.0000 0.54440  0.79500  0.84020  Biso   1.000  C
  C115     1.0000 0.21130  0.19310  0.81350  Biso   1.000  C
  C116     1.0000 0.10820  0.14650  0.79270  Biso   1.000  C
  C117     1.0000 0.06110  0.27710  0.83220  Biso   1.000  C
  C118     1.0000 0.76090  0.53980  0.74490  Biso   1.000  C
  C119     1.0000 0.87060  0.54000  0.73410  Biso   1.000  C
  C120     1.0000 0.84470  0.50260  0.81670  Biso   1.000  C
  S1       1.0000 0.78220  0.72186  0.46236  Biso   1.000  S
  S2       1.0000 0.73240  0.48023  0.24149  Biso   1.000  S
  S3       1.0000 0.28940  0.76160  0.47207  Biso   1.000  S
  S4       1.0000 0.78220  0.77814  0.03764  Biso   1.000  S
  S5       1.0000 0.73240  0.01977  0.25851  Biso   1.000  S
  S6       1.0000 0.28940  0.73840  0.02793  Biso   1.000  S
  S7       1.0000 0.21780  0.27814  0.53764  Biso   1.000  S
  S8       1.0000 0.26760  0.51977  0.75851  Biso   1.000  S
  S9       1.0000 0.71060  0.23840  0.52793  Biso   1.000  S
  S10      1.0000 0.21780  0.22186  0.96236  Biso   1.000  S
  S11      1.0000 0.26760  0.98023  0.74149  Biso   1.000  S
  S12      1.0000 0.71060  0.26160  0.97207  Biso   1.000  S
  N1       1.0000 0.14230  0.58870  0.39700  Biso   1.000  N
  N2       1.0000 0.15600  0.54050  0.46780  Biso   1.000  N
  N3       1.0000 0.55400  0.27770  0.33210  Biso   1.000  N
  N4       1.0000 0.39700  0.23080  0.31280  Biso   1.000  N
  N5       1.0000 0.97480  0.70700  0.30960  Biso   1.000  N
  N6       1.0000 0.82980  0.77250  0.33410  Biso   1.000  N
  N7       1.0000 0.25330  0.02010  0.29680  Biso   1.000  N
  N8       1.0000 0.09000  0.00840  0.27880  Biso   1.000  N
  N9       1.0000 0.14230  0.91130  0.10300  Biso   1.000  N
  N10      1.0000 0.15600  0.95950  0.03220  Biso   1.000  N
  N11      1.0000 0.55400  0.22230  0.16790  Biso   1.000  N
  N12      1.0000 0.39700  0.26920  0.18720  Biso   1.000  N
  N13      1.0000 0.97480  0.79300  0.19040  Biso   1.000  N
  N14      1.0000 0.82980  0.72750  0.16590  Biso   1.000  N
  N15      1.0000 0.25330  0.47990  0.20320  Biso   1.000  N
  N16      1.0000 0.09000  0.49160  0.22120  Biso   1.000  N
  N17      1.0000 0.85770  0.41130  0.60300  Biso   1.000  N
  N18      1.0000 0.84400  0.45950  0.53220  Biso   1.000  N
  N19      1.0000 0.44600  0.72230  0.66790  Biso   1.000  N
  N20      1.0000 0.60300  0.76920  0.68720  Biso   1.000  N
  N21      1.0000 0.02520  0.29300  0.69040  Biso   1.000  N
  N22      1.0000 0.17020  0.22750  0.66590  Biso   1.000  N
  N23      1.0000 0.74670  0.97990  0.70320  Biso   1.000  N
  N24      1.0000 0.91000  0.99160  0.72120  Biso   1.000  N
  N25      1.0000 0.85770  0.08870  0.89700  Biso   1.000  N
  N26      1.0000 0.84400  0.04050  0.96780  Biso   1.000  N
  N27      1.0000 0.44600  0.77770  0.83210  Biso   1.000  N
  N28      1.0000 0.60300  0.73080  0.81280  Biso   1.000  N
  N29      1.0000 0.02520  0.20700  0.80960  Biso   1.000  N
  N30      1.0000 0.17020  0.27250  0.83410  Biso   1.000  N
  N31      1.0000 0.74670  0.52010  0.79680  Biso   1.000  N
  N32      1.0000 0.91000  0.50840  0.77880  Biso   1.000  N
  O1       1.0000 0.60850  0.55320  0.50560  Biso   1.000  O
  O2       1.0000 0.63350  0.58280  0.42760  Biso   1.000  O
  O3       1.0000 0.92350  0.86340  0.46500  Biso   1.000  O
  O4       1.0000 0.91900  0.90720  0.55270  Biso   1.000  O
  O5       1.0000 0.61060  0.45240  0.33800  Biso   1.000  O
  O6       1.0000 0.47770  0.53680  0.33450  Biso   1.000  O
  O7       1.0000 0.79890  0.55980  0.11260  Biso   1.000  O
  O8       1.0000 0.89620  0.48250  0.15330  Biso   1.000  O
  O9       1.0000 0.40950  0.61320  0.47110  Biso   1.000  O
  O10      1.0000 0.40000  0.61550  0.55800  Biso   1.000  O
  O11      1.0000 0.16510  0.88670  0.43600  Biso   1.000  O
  O12      1.0000 0.11280  0.95740  0.51350  Biso   1.000  O
  O13      1.0000 0.28010  0.49950  0.40020  Biso   1.000  O
  O14      1.0000 0.41330  0.36130  0.35960  Biso   1.000  O
  O15      1.0000 0.99650  0.83580  0.34840  Biso   1.000  O
  O16      1.0000 0.14170  0.97480  0.35460  Biso   1.000  O
  O17      1.0000 0.60850  0.94680  0.99440  Biso   1.000  O
  O18      1.0000 0.63350  0.91720  0.07240  Biso   1.000  O
  O19      1.0000 0.92350  0.63660  0.03500  Biso   1.000  O
  O20      1.0000 0.91900  0.59280  0.94730  Biso   1.000  O
  O21      1.0000 0.61060  0.04760  0.16200  Biso   1.000  O
  O22      1.0000 0.47770  0.96320  0.16550  Biso   1.000  O
  O23      1.0000 0.79890  0.94020  0.38740  Biso   1.000  O
  O24      1.0000 0.89620  0.01750  0.34670  Biso   1.000  O
  O25      1.0000 0.40950  0.88680  0.02890  Biso   1.000  O
  O26      1.0000 0.40000  0.88450  0.94200  Biso   1.000  O
  O27      1.0000 0.16510  0.61330  0.06400  Biso   1.000  O
  O28      1.0000 0.11280  0.54260  0.98650  Biso   1.000  O
  O29      1.0000 0.28010  0.00050  0.09980  Biso   1.000  O
  O30      1.0000 0.41330  0.13870  0.14040  Biso   1.000  O
  O31      1.0000 0.99650  0.66420  0.15160  Biso   1.000  O
  O32      1.0000 0.14170  0.52520  0.14540  Biso   1.000  O
  O33      1.0000 0.39150  0.44680  0.49440  Biso   1.000  O
  O34      1.0000 0.36650  0.41720  0.57240  Biso   1.000  O
  O35      1.0000 0.07650  0.13660  0.53500  Biso   1.000  O
  O36      1.0000 0.08100  0.09280  0.44730  Biso   1.000  O
  O37      1.0000 0.38940  0.54760  0.66200  Biso   1.000  O
  O38      1.0000 0.52230  0.46320  0.66550  Biso   1.000  O
  O39      1.0000 0.20110  0.44020  0.88740  Biso   1.000  O
  O40      1.0000 0.10380  0.51750  0.84670  Biso   1.000  O
  O41      1.0000 0.59050  0.38680  0.52890  Biso   1.000  O
  O42      1.0000 0.60000  0.38450  0.44200  Biso   1.000  O
  O43      1.0000 0.83490  0.11330  0.56400  Biso   1.000  O
  O44      1.0000 0.88720  0.04260  0.48650  Biso   1.000  O
  O45      1.0000 0.71990  0.50050  0.59980  Biso   1.000  O
  O46      1.0000 0.58670  0.63870  0.64040  Biso   1.000  O
  O47      1.0000 0.00350  0.16420  0.65160  Biso   1.000  O
  O48      1.0000 0.85830  0.02520  0.64540  Biso   1.000  O
  O49      1.0000 0.39150  0.05320  0.00560  Biso   1.000  O
  O50      1.0000 0.36650  0.08280  0.92760  Biso   1.000  O
  O51      1.0000 0.07650  0.36340  0.96500  Biso   1.000  O
  O52      1.0000 0.08100  0.40720  0.05270  Biso   1.000  O
  O53      1.0000 0.38940  0.95240  0.83800  Biso   1.000  O
  O54      1.0000 0.52230  0.03680  0.83450  Biso   1.000  O
  O55      1.0000 0.20110  0.05980  0.61260  Biso   1.000  O
  O56      1.0000 0.10380  0.98250  0.65330  Biso   1.000  O
  O57      1.0000 0.59050  0.11320  0.97110  Biso   1.000  O
  O58      1.0000 0.60000  0.11550  0.05800  Biso   1.000  O
  O59      1.0000 0.83490  0.38670  0.93600  Biso   1.000  O
  O60      1.0000 0.88720  0.45740  0.01350  Biso   1.000  O
  O61      1.0000 0.71990  0.99950  0.90020  Biso   1.000  O
  O62      1.0000 0.58670  0.86130  0.85960  Biso   1.000  O
  O63      1.0000 0.00350  0.33580  0.84840  Biso   1.000  O
  O64      1.0000 0.85830  0.47480  0.85460  Biso   1.000  O
