data_image0
_cell_length_a       12.1455
_cell_length_b       17.0072
_cell_length_c       25.5937
_cell_angle_alpha    102.385
_cell_angle_beta     90
_cell_angle_gamma    90

_symmetry_space_group_name_H-M    P 1
_symmetry_int_tables_number       1

loop_
  _symmetry_equiv_pos_as_xyz
  'x, y, z'

loop_
  _atom_site_label
  _atom_site_occupancy
  _atom_site_fract_x
  _atom_site_fract_y
  _atom_site_fract_z
  _atom_site_thermal_displace_type
  _atom_site_B_iso_or_equiv
  _atom_site_type_symbol
  Nd1      1.0000 0.02740  0.98537  0.41899  Biso   1.000  Nd
  Nd2      1.0000 0.50092  0.46075  0.41718  Biso   1.000  Nd
  Nd3      1.0000 0.02740  0.51463  0.08101  Biso   1.000  Nd
  Nd4      1.0000 0.50092  0.03925  0.08282  Biso   1.000  Nd
  Nd5      1.0000 0.97260  0.01463  0.58101  Biso   1.000  Nd
  Nd6      1.0000 0.49908  0.53925  0.58282  Biso   1.000  Nd
  Nd7      1.0000 0.97260  0.48537  0.91899  Biso   1.000  Nd
  Nd8      1.0000 0.49908  0.96075  0.91718  Biso   1.000  Nd
  H1       1.0000 0.91850  0.79050  0.35580  Biso   1.000  H
  H2       1.0000 0.19610  0.73390  0.32350  Biso   1.000  H
  H3       1.0000 0.32460  0.01650  0.48990  Biso   1.000  H
  H4       1.0000 0.34970  0.09520  0.36450  Biso   1.000  H
  H5       1.0000 0.71180  0.31320  0.34530  Biso   1.000  H
  H6       1.0000 0.45350  0.19370  0.30420  Biso   1.000  H
  H7       1.0000 0.37060  0.62720  0.35220  Biso   1.000  H
  H8       1.0000 0.28460  0.43460  0.25340  Biso   1.000  H
  H9       1.0000 0.01610  0.07540  0.23570  Biso   1.000  H
  H10      1.0000 0.90030  0.08350  0.15900  Biso   1.000  H
  H11      1.0000 0.23190  0.24800  0.60390  Biso   1.000  H
  H12      1.0000 0.32950  0.36620  0.58940  Biso   1.000  H
  H13      1.0000 0.63300  0.26750  0.59150  Biso   1.000  H
  H14      1.0000 0.74500  0.14660  0.57470  Biso   1.000  H
  H15      1.0000 0.08940  0.61550  0.31410  Biso   1.000  H
  H16      1.0000 0.08040  0.64570  0.25980  Biso   1.000  H
  H17      1.0000 0.91950  0.68080  0.27770  Biso   1.000  H
  H18      1.0000 0.92760  0.64890  0.33120  Biso   1.000  H
  H19      1.0000 0.41130  0.15050  0.51070  Biso   1.000  H
  H20      1.0000 0.50020  0.08170  0.49340  Biso   1.000  H
  H21      1.0000 0.52240  0.11570  0.41330  Biso   1.000  H
  H22      1.0000 0.44370  0.19030  0.43320  Biso   1.000  H
  H23      1.0000 0.59520  0.09880  0.30620  Biso   1.000  H
  H24      1.0000 0.60690  0.12930  0.25230  Biso   1.000  H
  H25      1.0000 0.76470  0.19050  0.28390  Biso   1.000  H
  H26      1.0000 0.74510  0.16870  0.34020  Biso   1.000  H
  H27      1.0000 0.37710  0.66190  0.26720  Biso   1.000  H
  H28      1.0000 0.46840  0.59370  0.25900  Biso   1.000  H
  H29      1.0000 0.33610  0.52420  0.19880  Biso   1.000  H
  H30      1.0000 0.23670  0.56940  0.23260  Biso   1.000  H
  H31      1.0000 0.91850  0.70950  0.14420  Biso   1.000  H
  H32      1.0000 0.19610  0.76610  0.17650  Biso   1.000  H
  H33      1.0000 0.32460  0.48350  0.01010  Biso   1.000  H
  H34      1.0000 0.34970  0.40480  0.13550  Biso   1.000  H
  H35      1.0000 0.71180  0.18680  0.15470  Biso   1.000  H
  H36      1.0000 0.45350  0.30630  0.19580  Biso   1.000  H
  H37      1.0000 0.37060  0.87280  0.14780  Biso   1.000  H
  H38      1.0000 0.28460  0.06540  0.24660  Biso   1.000  H
  H39      1.0000 0.01610  0.42460  0.26430  Biso   1.000  H
  H40      1.0000 0.90030  0.41650  0.34100  Biso   1.000  H
  H41      1.0000 0.23190  0.25200  0.89610  Biso   1.000  H
  H42      1.0000 0.32950  0.13380  0.91060  Biso   1.000  H
  H43      1.0000 0.63300  0.23250  0.90850  Biso   1.000  H
  H44      1.0000 0.74500  0.35340  0.92530  Biso   1.000  H
  H45      1.0000 0.08940  0.88450  0.18590  Biso   1.000  H
  H46      1.0000 0.08040  0.85430  0.24020  Biso   1.000  H
  H47      1.0000 0.91950  0.81920  0.22230  Biso   1.000  H
  H48      1.0000 0.92760  0.85110  0.16880  Biso   1.000  H
  H49      1.0000 0.41130  0.34950  0.98930  Biso   1.000  H
  H50      1.0000 0.50020  0.41830  0.00660  Biso   1.000  H
  H51      1.0000 0.52240  0.38430  0.08670  Biso   1.000  H
  H52      1.0000 0.44370  0.30970  0.06680  Biso   1.000  H
  H53      1.0000 0.59520  0.40120  0.19380  Biso   1.000  H
  H54      1.0000 0.60690  0.37070  0.24770  Biso   1.000  H
  H55      1.0000 0.76470  0.30950  0.21610  Biso   1.000  H
  H56      1.0000 0.74510  0.33130  0.15980  Biso   1.000  H
  H57      1.0000 0.37710  0.83810  0.23280  Biso   1.000  H
  H58      1.0000 0.46840  0.90630  0.24100  Biso   1.000  H
  H59      1.0000 0.33610  0.97580  0.30120  Biso   1.000  H
  H60      1.0000 0.23670  0.93060  0.26740  Biso   1.000  H
  H61      1.0000 0.08150  0.20950  0.64420  Biso   1.000  H
  H62      1.0000 0.80390  0.26610  0.67650  Biso   1.000  H
  H63      1.0000 0.67540  0.98350  0.51010  Biso   1.000  H
  H64      1.0000 0.65030  0.90480  0.63550  Biso   1.000  H
  H65      1.0000 0.28820  0.68680  0.65470  Biso   1.000  H
  H66      1.0000 0.54650  0.80630  0.69580  Biso   1.000  H
  H67      1.0000 0.62940  0.37280  0.64780  Biso   1.000  H
  H68      1.0000 0.71540  0.56540  0.74660  Biso   1.000  H
  H69      1.0000 0.98390  0.92460  0.76430  Biso   1.000  H
  H70      1.0000 0.09970  0.91650  0.84100  Biso   1.000  H
  H71      1.0000 0.76810  0.75200  0.39610  Biso   1.000  H
  H72      1.0000 0.67050  0.63380  0.41060  Biso   1.000  H
  H73      1.0000 0.36700  0.73250  0.40850  Biso   1.000  H
  H74      1.0000 0.25500  0.85340  0.42530  Biso   1.000  H
  H75      1.0000 0.91060  0.38450  0.68590  Biso   1.000  H
  H76      1.0000 0.91960  0.35430  0.74020  Biso   1.000  H
  H77      1.0000 0.08050  0.31920  0.72230  Biso   1.000  H
  H78      1.0000 0.07240  0.35110  0.66880  Biso   1.000  H
  H79      1.0000 0.58870  0.84950  0.48930  Biso   1.000  H
  H80      1.0000 0.49980  0.91830  0.50660  Biso   1.000  H
  H81      1.0000 0.47760  0.88430  0.58670  Biso   1.000  H
  H82      1.0000 0.55630  0.80970  0.56680  Biso   1.000  H
  H83      1.0000 0.40480  0.90120  0.69380  Biso   1.000  H
  H84      1.0000 0.39310  0.87070  0.74770  Biso   1.000  H
  H85      1.0000 0.23530  0.80950  0.71610  Biso   1.000  H
  H86      1.0000 0.25490  0.83130  0.65980  Biso   1.000  H
  H87      1.0000 0.62290  0.33810  0.73280  Biso   1.000  H
  H88      1.0000 0.53160  0.40630  0.74100  Biso   1.000  H
  H89      1.0000 0.66390  0.47580  0.80120  Biso   1.000  H
  H90      1.0000 0.76330  0.43060  0.76740  Biso   1.000  H
  H91      1.0000 0.08150  0.29050  0.85580  Biso   1.000  H
  H92      1.0000 0.80390  0.23390  0.82350  Biso   1.000  H
  H93      1.0000 0.67540  0.51650  0.98990  Biso   1.000  H
  H94      1.0000 0.65030  0.59520  0.86450  Biso   1.000  H
  H95      1.0000 0.28820  0.81320  0.84530  Biso   1.000  H
  H96      1.0000 0.54650  0.69370  0.80420  Biso   1.000  H
  H97      1.0000 0.62940  0.12720  0.85220  Biso   1.000  H
  H98      1.0000 0.71540  0.93460  0.75340  Biso   1.000  H
  H99      1.0000 0.98390  0.57540  0.73570  Biso   1.000  H
  H100     1.0000 0.09970  0.58350  0.65900  Biso   1.000  H
  H101     1.0000 0.76810  0.74800  0.10390  Biso   1.000  H
  H102     1.0000 0.67050  0.86620  0.08940  Biso   1.000  H
  H103     1.0000 0.36700  0.76750  0.09150  Biso   1.000  H
  H104     1.0000 0.25500  0.64660  0.07470  Biso   1.000  H
  H105     1.0000 0.91060  0.11550  0.81410  Biso   1.000  H
  H106     1.0000 0.91960  0.14570  0.75980  Biso   1.000  H
  H107     1.0000 0.08050  0.18080  0.77770  Biso   1.000  H
  H108     1.0000 0.07240  0.14890  0.83120  Biso   1.000  H
  H109     1.0000 0.58870  0.65050  0.01070  Biso   1.000  H
  H110     1.0000 0.49980  0.58170  0.99340  Biso   1.000  H
  H111     1.0000 0.47760  0.61570  0.91330  Biso   1.000  H
  H112     1.0000 0.55630  0.69030  0.93320  Biso   1.000  H
  H113     1.0000 0.40480  0.59880  0.80620  Biso   1.000  H
  H114     1.0000 0.39310  0.62930  0.75230  Biso   1.000  H
  H115     1.0000 0.23530  0.69050  0.78390  Biso   1.000  H
  H116     1.0000 0.25490  0.66870  0.84020  Biso   1.000  H
  H117     1.0000 0.62290  0.16190  0.76720  Biso   1.000  H
  H118     1.0000 0.53160  0.09370  0.75900  Biso   1.000  H
  H119     1.0000 0.66390  0.02420  0.69880  Biso   1.000  H
  H120     1.0000 0.76330  0.06940  0.73260  Biso   1.000  H
  C1       1.0000 0.89720  0.01210  0.26330  Biso   1.000  C
  C2       1.0000 0.94610  0.05290  0.23010  Biso   1.000  C
  C3       1.0000 0.87910  0.05770  0.18600  Biso   1.000  C
  C4       1.0000 0.78120  0.02100  0.18700  Biso   1.000  C
  C5       1.0000 0.94310  0.99660  0.31430  Biso   1.000  C
  C6       1.0000 0.68970  0.02020  0.14910  Biso   1.000  C
  C7       1.0000 0.18350  0.22080  0.52640  Biso   1.000  C
  C8       1.0000 0.23470  0.26280  0.57100  Biso   1.000  C
  C9       1.0000 0.29210  0.33050  0.56260  Biso   1.000  C
  C10      1.0000 0.28680  0.33800  0.51110  Biso   1.000  C
  C11      1.0000 0.11590  0.14500  0.51890  Biso   1.000  C
  C12      1.0000 0.33910  0.39720  0.48500  Biso   1.000  C
  C13      1.0000 0.65880  0.28060  0.51560  Biso   1.000  C
  C14      1.0000 0.66680  0.24660  0.55890  Biso   1.000  C
  C15      1.0000 0.73100  0.17710  0.54930  Biso   1.000  C
  C16      1.0000 0.77090  0.15850  0.49820  Biso   1.000  C
  C17      1.0000 0.60090  0.35670  0.51140  Biso   1.000  C
  C18      1.0000 0.84670  0.09220  0.47360  Biso   1.000  C
  C19      1.0000 0.06800  0.66020  0.29820  Biso   1.000  C
  C20      1.0000 0.96230  0.68290  0.31000  Biso   1.000  C
  C21      1.0000 0.07040  0.79380  0.34140  Biso   1.000  C
  C22      1.0000 0.43390  0.10570  0.48250  Biso   1.000  C
  C23      1.0000 0.45100  0.13240  0.42870  Biso   1.000  C
  C24      1.0000 0.30390  0.04400  0.42080  Biso   1.000  C
  C25      1.0000 0.60560  0.14580  0.29100  Biso   1.000  C
  C26      1.0000 0.71160  0.19130  0.31230  Biso   1.000  C
  C27      1.0000 0.56190  0.27580  0.33170  Biso   1.000  C
  C28      1.0000 0.39300  0.60630  0.26930  Biso   1.000  C
  C29      1.0000 0.30800  0.54510  0.23460  Biso   1.000  C
  C30      1.0000 0.33800  0.51320  0.31850  Biso   1.000  C
  C31      1.0000 0.89720  0.48790  0.23670  Biso   1.000  C
  C32      1.0000 0.94610  0.44710  0.26990  Biso   1.000  C
  C33      1.0000 0.87910  0.44230  0.31400  Biso   1.000  C
  C34      1.0000 0.78120  0.47900  0.31300  Biso   1.000  C
  C35      1.0000 0.94310  0.50340  0.18570  Biso   1.000  C
  C36      1.0000 0.68970  0.47980  0.35090  Biso   1.000  C
  C37      1.0000 0.18350  0.27920  0.97360  Biso   1.000  C
  C38      1.0000 0.23470  0.23720  0.92900  Biso   1.000  C
  C39      1.0000 0.29210  0.16950  0.93740  Biso   1.000  C
  C40      1.0000 0.28680  0.16200  0.98890  Biso   1.000  C
  C41      1.0000 0.11590  0.35500  0.98110  Biso   1.000  C
  C42      1.0000 0.33910  0.10280  0.01500  Biso   1.000  C
  C43      1.0000 0.65880  0.21940  0.98440  Biso   1.000  C
  C44      1.0000 0.66680  0.25340  0.94110  Biso   1.000  C
  C45      1.0000 0.73100  0.32290  0.95070  Biso   1.000  C
  C46      1.0000 0.77090  0.34150  0.00180  Biso   1.000  C
  C47      1.0000 0.60090  0.14330  0.98860  Biso   1.000  C
  C48      1.0000 0.84670  0.40780  0.02640  Biso   1.000  C
  C49      1.0000 0.06800  0.83980  0.20180  Biso   1.000  C
  C50      1.0000 0.96230  0.81710  0.19000  Biso   1.000  C
  C51      1.0000 0.07040  0.70620  0.15860  Biso   1.000  C
  C52      1.0000 0.43390  0.39430  0.01750  Biso   1.000  C
  C53      1.0000 0.45100  0.36760  0.07130  Biso   1.000  C
  C54      1.0000 0.30390  0.45600  0.07920  Biso   1.000  C
  C55      1.0000 0.60560  0.35420  0.20900  Biso   1.000  C
  C56      1.0000 0.71160  0.30870  0.18770  Biso   1.000  C
  C57      1.0000 0.56190  0.22420  0.16830  Biso   1.000  C
  C58      1.0000 0.39300  0.89370  0.23070  Biso   1.000  C
  C59      1.0000 0.30800  0.95490  0.26540  Biso   1.000  C
  C60      1.0000 0.33800  0.98680  0.18150  Biso   1.000  C
  C61      1.0000 0.10280  0.98790  0.73670  Biso   1.000  C
  C62      1.0000 0.05390  0.94710  0.76990  Biso   1.000  C
  C63      1.0000 0.12090  0.94230  0.81400  Biso   1.000  C
  C64      1.0000 0.21880  0.97900  0.81300  Biso   1.000  C
  C65      1.0000 0.05690  0.00340  0.68570  Biso   1.000  C
  C66      1.0000 0.31030  0.97980  0.85090  Biso   1.000  C
  C67      1.0000 0.81650  0.77920  0.47360  Biso   1.000  C
  C68      1.0000 0.76530  0.73720  0.42900  Biso   1.000  C
  C69      1.0000 0.70790  0.66950  0.43740  Biso   1.000  C
  C70      1.0000 0.71320  0.66200  0.48890  Biso   1.000  C
  C71      1.0000 0.88410  0.85500  0.48110  Biso   1.000  C
  C72      1.0000 0.66090  0.60280  0.51500  Biso   1.000  C
  C73      1.0000 0.34120  0.71940  0.48440  Biso   1.000  C
  C74      1.0000 0.33320  0.75340  0.44110  Biso   1.000  C
  C75      1.0000 0.26900  0.82290  0.45070  Biso   1.000  C
  C76      1.0000 0.22910  0.84150  0.50180  Biso   1.000  C
  C77      1.0000 0.39910  0.64330  0.48860  Biso   1.000  C
  C78      1.0000 0.15330  0.90780  0.52640  Biso   1.000  C
  C79      1.0000 0.93200  0.33980  0.70180  Biso   1.000  C
  C80      1.0000 0.03770  0.31710  0.69000  Biso   1.000  C
  C81      1.0000 0.92960  0.20620  0.65860  Biso   1.000  C
  C82      1.0000 0.56610  0.89430  0.51750  Biso   1.000  C
  C83      1.0000 0.54900  0.86760  0.57130  Biso   1.000  C
  C84      1.0000 0.69610  0.95600  0.57920  Biso   1.000  C
  C85      1.0000 0.39440  0.85420  0.70900  Biso   1.000  C
  C86      1.0000 0.28840  0.80870  0.68770  Biso   1.000  C
  C87      1.0000 0.43810  0.72420  0.66830  Biso   1.000  C
  C88      1.0000 0.60700  0.39370  0.73070  Biso   1.000  C
  C89      1.0000 0.69200  0.45490  0.76540  Biso   1.000  C
  C90      1.0000 0.66200  0.48680  0.68150  Biso   1.000  C
  C91      1.0000 0.10280  0.51210  0.76330  Biso   1.000  C
  C92      1.0000 0.05390  0.55290  0.73010  Biso   1.000  C
  C93      1.0000 0.12090  0.55770  0.68600  Biso   1.000  C
  C94      1.0000 0.21880  0.52100  0.68700  Biso   1.000  C
  C95      1.0000 0.05690  0.49660  0.81430  Biso   1.000  C
  C96      1.0000 0.31030  0.52020  0.64910  Biso   1.000  C
  C97      1.0000 0.81650  0.72080  0.02640  Biso   1.000  C
  C98      1.0000 0.76530  0.76280  0.07100  Biso   1.000  C
  C99      1.0000 0.70790  0.83050  0.06260  Biso   1.000  C
  C100     1.0000 0.71320  0.83800  0.01110  Biso   1.000  C
  C101     1.0000 0.88410  0.64500  0.01890  Biso   1.000  C
  C102     1.0000 0.66090  0.89720  0.98500  Biso   1.000  C
  C103     1.0000 0.34120  0.78060  0.01560  Biso   1.000  C
  C104     1.0000 0.33320  0.74660  0.05890  Biso   1.000  C
  C105     1.0000 0.26900  0.67710  0.04930  Biso   1.000  C
  C106     1.0000 0.22910  0.65850  0.99820  Biso   1.000  C
  C107     1.0000 0.39910  0.85670  0.01140  Biso   1.000  C
  C108     1.0000 0.15330  0.59220  0.97360  Biso   1.000  C
  C109     1.0000 0.93200  0.16020  0.79820  Biso   1.000  C
  C110     1.0000 0.03770  0.18290  0.81000  Biso   1.000  C
  C111     1.0000 0.92960  0.29380  0.84140  Biso   1.000  C
  C112     1.0000 0.56610  0.60570  0.98250  Biso   1.000  C
  C113     1.0000 0.54900  0.63240  0.92870  Biso   1.000  C
  C114     1.0000 0.69610  0.54400  0.92080  Biso   1.000  C
  C115     1.0000 0.39440  0.64580  0.79100  Biso   1.000  C
  C116     1.0000 0.28840  0.69130  0.81230  Biso   1.000  C
  C117     1.0000 0.43810  0.77580  0.83170  Biso   1.000  C
  C118     1.0000 0.60700  0.10630  0.76930  Biso   1.000  C
  C119     1.0000 0.69200  0.04510  0.73460  Biso   1.000  C
  C120     1.0000 0.66200  0.01320  0.81850  Biso   1.000  C
  S1       1.0000 0.76983  0.97787  0.24148  Biso   1.000  S
  S2       1.0000 0.20991  0.26159  0.47243  Biso   1.000  S
  S3       1.0000 0.72473  0.22498  0.46174  Biso   1.000  S
  S4       1.0000 0.76983  0.52213  0.25852  Biso   1.000  S
  S5       1.0000 0.20991  0.23841  0.02757  Biso   1.000  S
  S6       1.0000 0.72473  0.27502  0.03826  Biso   1.000  S
  S7       1.0000 0.23017  0.02213  0.75852  Biso   1.000  S
  S8       1.0000 0.79009  0.73841  0.52757  Biso   1.000  S
  S9       1.0000 0.27527  0.77502  0.53826  Biso   1.000  S
  S10      1.0000 0.23017  0.47787  0.74148  Biso   1.000  S
  S11      1.0000 0.79009  0.76159  0.97243  Biso   1.000  S
  S12      1.0000 0.27527  0.72498  0.96174  Biso   1.000  S
  N1       1.0000 0.97300  0.76380  0.33990  Biso   1.000  N
  N2       1.0000 0.12530  0.73230  0.32230  Biso   1.000  N
  N3       1.0000 0.34650  0.04660  0.46890  Biso   1.000  N
  N4       1.0000 0.36270  0.09030  0.39670  Biso   1.000  N
  N5       1.0000 0.67030  0.27240  0.33330  Biso   1.000  N
  N6       1.0000 0.52270  0.20390  0.30830  Biso   1.000  N
  N7       1.0000 0.36700  0.59170  0.32270  Biso   1.000  N
  N8       1.0000 0.30500  0.48350  0.26580  Biso   1.000  N
  N9       1.0000 0.97300  0.73620  0.16010  Biso   1.000  N
  N10      1.0000 0.12530  0.76770  0.17770  Biso   1.000  N
  N11      1.0000 0.34650  0.45340  0.03110  Biso   1.000  N
  N12      1.0000 0.36270  0.40970  0.10330  Biso   1.000  N
  N13      1.0000 0.67030  0.22760  0.16670  Biso   1.000  N
  N14      1.0000 0.52270  0.29610  0.19170  Biso   1.000  N
  N15      1.0000 0.36700  0.90830  0.17730  Biso   1.000  N
  N16      1.0000 0.30500  0.01650  0.23420  Biso   1.000  N
  N17      1.0000 0.02700  0.23620  0.66010  Biso   1.000  N
  N18      1.0000 0.87470  0.26770  0.67770  Biso   1.000  N
  N19      1.0000 0.65350  0.95340  0.53110  Biso   1.000  N
  N20      1.0000 0.63730  0.90970  0.60330  Biso   1.000  N
  N21      1.0000 0.32970  0.72760  0.66670  Biso   1.000  N
  N22      1.0000 0.47730  0.79610  0.69170  Biso   1.000  N
  N23      1.0000 0.63300  0.40830  0.67730  Biso   1.000  N
  N24      1.0000 0.69500  0.51650  0.73420  Biso   1.000  N
  N25      1.0000 0.02700  0.26380  0.83990  Biso   1.000  N
  N26      1.0000 0.87470  0.23230  0.82230  Biso   1.000  N
  N27      1.0000 0.65350  0.54660  0.96890  Biso   1.000  N
  N28      1.0000 0.63730  0.59030  0.89670  Biso   1.000  N
  N29      1.0000 0.32970  0.77240  0.83330  Biso   1.000  N
  N30      1.0000 0.47730  0.70390  0.80830  Biso   1.000  N
  N31      1.0000 0.63300  0.09170  0.82270  Biso   1.000  N
  N32      1.0000 0.69500  0.98350  0.76580  Biso   1.000  N
  O1       1.0000 0.89520  0.94810  0.33720  Biso   1.000  O
  O2       1.0000 0.02840  0.03390  0.33350  Biso   1.000  O
  O3       1.0000 0.70050  0.05920  0.11270  Biso   1.000  O
  O4       1.0000 0.60110  0.98260  0.15430  Biso   1.000  O
  O5       1.0000 0.08880  0.11398  0.47208  Biso   1.000  O
  O6       1.0000 0.09300  0.11920  0.56010  Biso   1.000  O
  O7       1.0000 0.38890  0.45760  0.51200  Biso   1.000  O
  O8       1.0000 0.33490  0.38560  0.43470  Biso   1.000  O
  O9       1.0000 0.57970  0.36510  0.46510  Biso   1.000  O
  O10      1.0000 0.57990  0.40580  0.55450  Biso   1.000  O
  O11      1.0000 0.86960  0.08330  0.42520  Biso   1.000  O
  O12      1.0000 0.88780  0.04855  0.50245  Biso   1.000  O
  O13      1.0000 0.09760  0.86040  0.36230  Biso   1.000  O
  O14      1.0000 0.22360  0.00210  0.40120  Biso   1.000  O
  O15      1.0000 0.50300  0.33660  0.34810  Biso   1.000  O
  O16      1.0000 0.35760  0.47180  0.35030  Biso   1.000  O
  O17      1.0000 0.89520  0.55190  0.16280  Biso   1.000  O
  O18      1.0000 0.02840  0.46610  0.16650  Biso   1.000  O
  O19      1.0000 0.70050  0.44080  0.38730  Biso   1.000  O
  O20      1.0000 0.60110  0.51740  0.34570  Biso   1.000  O
  O21      1.0000 0.08880  0.38602  0.02792  Biso   1.000  O
  O22      1.0000 0.09300  0.38080  0.93990  Biso   1.000  O
  O23      1.0000 0.38890  0.04240  0.98800  Biso   1.000  O
  O24      1.0000 0.33490  0.11440  0.06530  Biso   1.000  O
  O25      1.0000 0.57970  0.13490  0.03490  Biso   1.000  O
  O26      1.0000 0.57990  0.09420  0.94550  Biso   1.000  O
  O27      1.0000 0.86960  0.41670  0.07480  Biso   1.000  O
  O28      1.0000 0.88780  0.45145  0.99755  Biso   1.000  O
  O29      1.0000 0.09760  0.63960  0.13770  Biso   1.000  O
  O30      1.0000 0.22360  0.49790  0.09880  Biso   1.000  O
  O31      1.0000 0.50300  0.16340  0.15190  Biso   1.000  O
  O32      1.0000 0.35760  0.02820  0.14970  Biso   1.000  O
  O33      1.0000 0.10480  0.05190  0.66280  Biso   1.000  O
  O34      1.0000 0.97160  0.96610  0.66650  Biso   1.000  O
  O35      1.0000 0.29950  0.94080  0.88730  Biso   1.000  O
  O36      1.0000 0.39890  0.01740  0.84570  Biso   1.000  O
  O37      1.0000 0.91120  0.88602  0.52792  Biso   1.000  O
  O38      1.0000 0.90700  0.88080  0.43990  Biso   1.000  O
  O39      1.0000 0.61110  0.54240  0.48800  Biso   1.000  O
  O40      1.0000 0.66510  0.61440  0.56530  Biso   1.000  O
  O41      1.0000 0.42030  0.63490  0.53490  Biso   1.000  O
  O42      1.0000 0.42010  0.59420  0.44550  Biso   1.000  O
  O43      1.0000 0.13040  0.91670  0.57480  Biso   1.000  O
  O44      1.0000 0.11220  0.95145  0.49755  Biso   1.000  O
  O45      1.0000 0.90240  0.13960  0.63770  Biso   1.000  O
  O46      1.0000 0.77640  0.99790  0.59880  Biso   1.000  O
  O47      1.0000 0.49700  0.66340  0.65190  Biso   1.000  O
  O48      1.0000 0.64240  0.52820  0.64970  Biso   1.000  O
  O49      1.0000 0.10480  0.44810  0.83720  Biso   1.000  O
  O50      1.0000 0.97160  0.53390  0.83350  Biso   1.000  O
  O51      1.0000 0.29950  0.55920  0.61270  Biso   1.000  O
  O52      1.0000 0.39890  0.48260  0.65430  Biso   1.000  O
  O53      1.0000 0.91120  0.61398  0.97208  Biso   1.000  O
  O54      1.0000 0.90700  0.61920  0.06010  Biso   1.000  O
  O55      1.0000 0.61110  0.95760  0.01200  Biso   1.000  O
  O56      1.0000 0.66510  0.88560  0.93470  Biso   1.000  O
  O57      1.0000 0.42030  0.86510  0.96510  Biso   1.000  O
  O58      1.0000 0.42010  0.90580  0.05450  Biso   1.000  O
  O59      1.0000 0.13040  0.58330  0.92520  Biso   1.000  O
  O60      1.0000 0.11220  0.54855  0.00245  Biso   1.000  O
  O61      1.0000 0.90240  0.36040  0.86230  Biso   1.000  O
  O62      1.0000 0.77640  0.50210  0.90120  Biso   1.000  O
  O63      1.0000 0.49700  0.83660  0.84810  Biso   1.000  O
  O64      1.0000 0.64240  0.97180  0.85030  Biso   1.000  O
