data_image0
_cell_length_a       11.6755
_cell_length_b       12.2521
_cell_length_c       12.4948
_cell_angle_alpha    90
_cell_angle_beta     117.046
_cell_angle_gamma    90

_symmetry_space_group_name_H-M    P 1
_symmetry_int_tables_number       1

loop_
  _symmetry_equiv_pos_as_xyz
  'x, y, z'

loop_
  _atom_site_label
  _atom_site_occupancy
  _atom_site_fract_x
  _atom_site_fract_y
  _atom_site_fract_z
  _atom_site_thermal_displace_type
  _atom_site_B_iso_or_equiv
  _atom_site_type_symbol
  Cu1      1.0000 0.17880  0.96438  0.46738  Biso   1.000  Cu
  Cu2      1.0000 0.32120  0.46438  0.03262  Biso   1.000  Cu
  H1       1.0000 0.11190  0.75740  0.14760  Biso   1.000  H
  H2       1.0000 0.13210  0.61930  0.03430  Biso   1.000  H
  H3       1.0000 0.50070  0.59980  0.24260  Biso   1.000  H
  H4       1.0000 0.49200  0.74340  0.35520  Biso   1.000  H
  H5       1.0000 0.38810  0.25740  0.35240  Biso   1.000  H
  H6       1.0000 0.36790  0.11930  0.46570  Biso   1.000  H
  H7       1.0000 0.99930  0.09980  0.25740  Biso   1.000  H
  H8       1.0000 0.00800  0.24340  0.14480  Biso   1.000  H
  H9       1.0000 0.02720  0.20460  0.74350  Biso   1.000  H
  H10      1.0000 0.09970  0.34160  0.88320  Biso   1.000  H
  H11      1.0000 0.38390  0.17220  0.78480  Biso   1.000  H
  H12      1.0000 0.44750  0.30770  0.92810  Biso   1.000  H
  H13      1.0000 0.47280  0.70460  0.75650  Biso   1.000  H
  H14      1.0000 0.40030  0.84160  0.61680  Biso   1.000  H
  H15      1.0000 0.11610  0.67220  0.71520  Biso   1.000  H
  H16      1.0000 0.05250  0.80770  0.57190  Biso   1.000  H
  C1       1.0000 0.29330  0.85090  0.35150  Biso   1.000  C
  C2       1.0000 0.19210  0.72670  0.16830  Biso   1.000  C
  C3       1.0000 0.20500  0.64330  0.10140  Biso   1.000  C
  C4       1.0000 0.30110  0.76480  0.26790  Biso   1.000  C
  C5       1.0000 0.42170  0.63250  0.22280  Biso   1.000  C
  C6       1.0000 0.41680  0.71770  0.29200  Biso   1.000  C
  C7       1.0000 0.20670  0.35090  0.14850  Biso   1.000  C
  C8       1.0000 0.30790  0.22670  0.33170  Biso   1.000  C
  C9       1.0000 0.29500  0.14330  0.39860  Biso   1.000  C
  C10      1.0000 0.19890  0.26480  0.23210  Biso   1.000  C
  C11      1.0000 0.07830  0.13250  0.27720  Biso   1.000  C
  C12      1.0000 0.08320  0.21770  0.20800  Biso   1.000  C
  C13      1.0000 0.14850  0.08580  0.64980  Biso   1.000  C
  C14      1.0000 0.19790  0.17310  0.74610  Biso   1.000  C
  C15      1.0000 0.11340  0.22470  0.77860  Biso   1.000  C
  C16      1.0000 0.15830  0.30640  0.86380  Biso   1.000  C
  C17      1.0000 0.32350  0.20530  0.80350  Biso   1.000  C
  C18      1.0000 0.36140  0.28730  0.88980  Biso   1.000  C
  C19      1.0000 0.35150  0.58580  0.85020  Biso   1.000  C
  C20      1.0000 0.30210  0.67310  0.75390  Biso   1.000  C
  C21      1.0000 0.38660  0.72470  0.72140  Biso   1.000  C
  C22      1.0000 0.34170  0.80640  0.63620  Biso   1.000  C
  C23      1.0000 0.17650  0.70530  0.69650  Biso   1.000  C
  C24      1.0000 0.13860  0.78730  0.61020  Biso   1.000  C
  N1       1.0000 0.31750  0.59490  0.12820  Biso   1.000  N
  N2       1.0000 0.18250  0.09490  0.37180  Biso   1.000  N
  N3       1.0000 0.27960  0.33730  0.91930  Biso   1.000  N
  N4       1.0000 0.22040  0.83730  0.58070  Biso   1.000  N
  O1       1.0000 0.18134  0.86713  0.34204  Biso   1.000  O
  O2       1.0000 0.39250  0.89520  0.42450  Biso   1.000  O
  O3       1.0000 0.31866  0.36713  0.15796  Biso   1.000  O
  O4       1.0000 0.10750  0.39520  0.07550  Biso   1.000  O
  O5       1.0000 0.04350  0.04360  0.62420  Biso   1.000  O
  O6       1.0000 0.22230  0.06407  0.60330  Biso   1.000  O
  O7       1.0000 0.45650  0.54360  0.87580  Biso   1.000  O
  O8       1.0000 0.27770  0.56407  0.89670  Biso   1.000  O
  Cu3      1.0000 0.82120  0.03562  0.53262  Biso   1.000  Cu
  Cu4      1.0000 0.67880  0.53562  0.96738  Biso   1.000  Cu
  H17      1.0000 0.97280  0.79540  0.25650  Biso   1.000  H
  H18      1.0000 0.90030  0.65840  0.11680  Biso   1.000  H
  H19      1.0000 0.61610  0.82780  0.21520  Biso   1.000  H
  H20      1.0000 0.55250  0.69230  0.07190  Biso   1.000  H
  H21      1.0000 0.52720  0.29540  0.24350  Biso   1.000  H
  H22      1.0000 0.59970  0.15840  0.38320  Biso   1.000  H
  H23      1.0000 0.88390  0.32780  0.28480  Biso   1.000  H
  H24      1.0000 0.94750  0.19230  0.42810  Biso   1.000  H
  H25      1.0000 0.88810  0.24260  0.85240  Biso   1.000  H
  H26      1.0000 0.86790  0.38070  0.96570  Biso   1.000  H
  H27      1.0000 0.49930  0.40020  0.75740  Biso   1.000  H
  H28      1.0000 0.50800  0.25660  0.64480  Biso   1.000  H
  H29      1.0000 0.61190  0.74260  0.64760  Biso   1.000  H
  H30      1.0000 0.63210  0.88070  0.53430  Biso   1.000  H
  H31      1.0000 0.00070  0.90020  0.74260  Biso   1.000  H
  H32      1.0000 0.99200  0.75660  0.85520  Biso   1.000  H
  C25      1.0000 0.85150  0.91420  0.35020  Biso   1.000  C
  C26      1.0000 0.80210  0.82690  0.25390  Biso   1.000  C
  C27      1.0000 0.88660  0.77530  0.22140  Biso   1.000  C
  C28      1.0000 0.84170  0.69360  0.13620  Biso   1.000  C
  C29      1.0000 0.67650  0.79470  0.19650  Biso   1.000  C
  C30      1.0000 0.63860  0.71270  0.11020  Biso   1.000  C
  C31      1.0000 0.64850  0.41420  0.14980  Biso   1.000  C
  C32      1.0000 0.69790  0.32690  0.24610  Biso   1.000  C
  C33      1.0000 0.61340  0.27530  0.27860  Biso   1.000  C
  C34      1.0000 0.65830  0.19360  0.36380  Biso   1.000  C
  C35      1.0000 0.82350  0.29470  0.30350  Biso   1.000  C
  C36      1.0000 0.86140  0.21270  0.38980  Biso   1.000  C
  C37      1.0000 0.70670  0.14910  0.64850  Biso   1.000  C
  C38      1.0000 0.80790  0.27330  0.83170  Biso   1.000  C
  C39      1.0000 0.79500  0.35670  0.89860  Biso   1.000  C
  C40      1.0000 0.69890  0.23520  0.73210  Biso   1.000  C
  C41      1.0000 0.57830  0.36750  0.77720  Biso   1.000  C
  C42      1.0000 0.58320  0.28230  0.70800  Biso   1.000  C
  C43      1.0000 0.79330  0.64910  0.85150  Biso   1.000  C
  C44      1.0000 0.69210  0.77330  0.66830  Biso   1.000  C
  C45      1.0000 0.70500  0.85670  0.60140  Biso   1.000  C
  C46      1.0000 0.80110  0.73520  0.76790  Biso   1.000  C
  C47      1.0000 0.92170  0.86750  0.72280  Biso   1.000  C
  C48      1.0000 0.91680  0.78230  0.79200  Biso   1.000  C
  N5       1.0000 0.72040  0.66270  0.08070  Biso   1.000  N
  N6       1.0000 0.77960  0.16270  0.41930  Biso   1.000  N
  N7       1.0000 0.68250  0.40510  0.87180  Biso   1.000  N
  N8       1.0000 0.81750  0.90510  0.62820  Biso   1.000  N
  O9       1.0000 0.95650  0.95640  0.37580  Biso   1.000  O
  O10      1.0000 0.77770  0.93593  0.39670  Biso   1.000  O
  O11      1.0000 0.54350  0.45640  0.12420  Biso   1.000  O
  O12      1.0000 0.72230  0.43593  0.10330  Biso   1.000  O
  O13      1.0000 0.81866  0.13287  0.65796  Biso   1.000  O
  O14      1.0000 0.60750  0.10480  0.57550  Biso   1.000  O
  O15      1.0000 0.68134  0.63287  0.84204  Biso   1.000  O
  O16      1.0000 0.89250  0.60480  0.92450  Biso   1.000  O
