data_image0
_cell_length_a       11.0192
_cell_length_b       11.0192
_cell_length_c       17.0388
_cell_angle_alpha    91.6539
_cell_angle_beta     91.6539
_cell_angle_gamma    90.6677

_symmetry_space_group_name_H-M    P 1
_symmetry_int_tables_number       1

loop_
  _symmetry_equiv_pos_as_xyz
  'x, y, z'

loop_
  _atom_site_label
  _atom_site_occupancy
  _atom_site_fract_x
  _atom_site_fract_y
  _atom_site_fract_z
  _atom_site_thermal_displace_type
  _atom_site_B_iso_or_equiv
  _atom_site_type_symbol
  Zn1      1.0000 0.46298  0.65636  0.81743  Biso   1.000  Zn
  Zn2      1.0000 0.81551  0.30249  0.17482  Biso   1.000  Zn
  Zn3      1.0000 0.34364  0.53702  0.68257  Biso   1.000  Zn
  Zn4      1.0000 0.69751  0.18449  0.32518  Biso   1.000  Zn
  Zn5      1.0000 0.53702  0.34364  0.18257  Biso   1.000  Zn
  Zn6      1.0000 0.18449  0.69751  0.82518  Biso   1.000  Zn
  Zn7      1.0000 0.65636  0.46298  0.31743  Biso   1.000  Zn
  Zn8      1.0000 0.30249  0.81551  0.67482  Biso   1.000  Zn
  H1       1.0000 0.56030  0.65170  0.03710  Biso   1.000  H
  H2       1.0000 0.69440  0.82300  0.23180  Biso   1.000  H
  H3       1.0000 0.67820  0.99540  0.02940  Biso   1.000  H
  H4       1.0000 0.00720  0.79200  0.12770  Biso   1.000  H
  H5       1.0000 0.92270  0.76730  0.98450  Biso   1.000  H
  H6       1.0000 0.67240  0.25900  0.88230  Biso   1.000  H
  H7       1.0000 0.72490  0.45350  0.85190  Biso   1.000  H
  H8       1.0000 0.82790  0.65150  0.89190  Biso   1.000  H
  H9       1.0000 0.03130  0.71070  0.24820  Biso   1.000  H
  H10      1.0000 0.70620  0.19660  0.00720  Biso   1.000  H
  H11      1.0000 0.96150  0.51630  0.26890  Biso   1.000  H
  H12      1.0000 0.34830  0.43970  0.46290  Biso   1.000  H
  H13      1.0000 0.17700  0.30560  0.26820  Biso   1.000  H
  H14      1.0000 0.00460  0.32180  0.47060  Biso   1.000  H
  H15      1.0000 0.20800  0.99280  0.37230  Biso   1.000  H
  H16      1.0000 0.23270  0.07730  0.51550  Biso   1.000  H
  H17      1.0000 0.74100  0.32760  0.61770  Biso   1.000  H
  H18      1.0000 0.54650  0.27510  0.64810  Biso   1.000  H
  H19      1.0000 0.34850  0.17210  0.60810  Biso   1.000  H
  H20      1.0000 0.28930  0.96870  0.25180  Biso   1.000  H
  H21      1.0000 0.80340  0.29380  0.49280  Biso   1.000  H
  H22      1.0000 0.48370  0.03850  0.23110  Biso   1.000  H
  H23      1.0000 0.43970  0.34830  0.96290  Biso   1.000  H
  H24      1.0000 0.30560  0.17700  0.76820  Biso   1.000  H
  H25      1.0000 0.32180  0.00460  0.97060  Biso   1.000  H
  H26      1.0000 0.99280  0.20800  0.87230  Biso   1.000  H
  H27      1.0000 0.07730  0.23270  0.01550  Biso   1.000  H
  H28      1.0000 0.32760  0.74100  0.11770  Biso   1.000  H
  H29      1.0000 0.27510  0.54650  0.14810  Biso   1.000  H
  H30      1.0000 0.17210  0.34850  0.10810  Biso   1.000  H
  H31      1.0000 0.96870  0.28930  0.75180  Biso   1.000  H
  H32      1.0000 0.29380  0.80340  0.99280  Biso   1.000  H
  H33      1.0000 0.03850  0.48370  0.73110  Biso   1.000  H
  H34      1.0000 0.65170  0.56030  0.53710  Biso   1.000  H
  H35      1.0000 0.82300  0.69440  0.73180  Biso   1.000  H
  H36      1.0000 0.99540  0.67820  0.52940  Biso   1.000  H
  H37      1.0000 0.79200  0.00720  0.62770  Biso   1.000  H
  H38      1.0000 0.76730  0.92270  0.48450  Biso   1.000  H
  H39      1.0000 0.25900  0.67240  0.38230  Biso   1.000  H
  H40      1.0000 0.45350  0.72490  0.35190  Biso   1.000  H
  H41      1.0000 0.65150  0.82790  0.39190  Biso   1.000  H
  H42      1.0000 0.71070  0.03130  0.74820  Biso   1.000  H
  H43      1.0000 0.19660  0.70620  0.50720  Biso   1.000  H
  H44      1.0000 0.51630  0.96150  0.76890  Biso   1.000  H
  C1       1.0000 0.69280  0.92700  0.13720  Biso   1.000  C
  C2       1.0000 0.59420  0.72080  0.06190  Biso   1.000  C
  C3       1.0000 0.73770  0.03910  0.17870  Biso   1.000  C
  C4       1.0000 0.61170  0.82390  0.01960  Biso   1.000  C
  C5       1.0000 0.67440  0.82320  0.17840  Biso   1.000  C
  C6       1.0000 0.57580  0.82380  0.93320  Biso   1.000  C
  C7       1.0000 0.62700  0.71920  0.14170  Biso   1.000  C
  C8       1.0000 0.66330  0.92630  0.05780  Biso   1.000  C
  C9       1.0000 0.61080  0.60360  0.18430  Biso   1.000  C
  C10      1.0000 0.97800  0.71420  0.13640  Biso   1.000  C
  C11      1.0000 0.89670  0.68970  0.99670  Biso   1.000  C
  C12      1.0000 0.70860  0.31140  0.92010  Biso   1.000  C
  C13      1.0000 0.74130  0.42590  0.90220  Biso   1.000  C
  C14      1.0000 0.84020  0.62100  0.94170  Biso   1.000  C
  C15      1.0000 0.99280  0.66620  0.20740  Biso   1.000  C
  C16      1.0000 0.79800  0.50160  0.95680  Biso   1.000  C
  C17      1.0000 0.91860  0.64700  0.07480  Biso   1.000  C
  C18      1.0000 0.73030  0.27490  0.99500  Biso   1.000  C
  C19      1.0000 0.87670  0.53050  0.09210  Biso   1.000  C
  C20      1.0000 0.94950  0.54870  0.21950  Biso   1.000  C
  C21      1.0000 0.81750  0.45670  0.03260  Biso   1.000  C
  C22      1.0000 0.07300  0.30720  0.36280  Biso   1.000  C
  C23      1.0000 0.27920  0.40580  0.43810  Biso   1.000  C
  C24      1.0000 0.96090  0.26230  0.32130  Biso   1.000  C
  C25      1.0000 0.17610  0.38830  0.48040  Biso   1.000  C
  C26      1.0000 0.17680  0.32560  0.32160  Biso   1.000  C
  C27      1.0000 0.17620  0.42420  0.56680  Biso   1.000  C
  C28      1.0000 0.28080  0.37300  0.35830  Biso   1.000  C
  C29      1.0000 0.07370  0.33670  0.44220  Biso   1.000  C
  C30      1.0000 0.39640  0.38920  0.31570  Biso   1.000  C
  C31      1.0000 0.28580  0.02200  0.36360  Biso   1.000  C
  C32      1.0000 0.31030  0.10330  0.50330  Biso   1.000  C
  C33      1.0000 0.68860  0.29140  0.57990  Biso   1.000  C
  C34      1.0000 0.57410  0.25870  0.59780  Biso   1.000  C
  C35      1.0000 0.37900  0.15980  0.55830  Biso   1.000  C
  C36      1.0000 0.33380  0.00720  0.29260  Biso   1.000  C
  C37      1.0000 0.49840  0.20200  0.54320  Biso   1.000  C
  C38      1.0000 0.35300  0.08140  0.42520  Biso   1.000  C
  C39      1.0000 0.72510  0.26970  0.50500  Biso   1.000  C
  C40      1.0000 0.46950  0.12330  0.40790  Biso   1.000  C
  C41      1.0000 0.45130  0.05050  0.28050  Biso   1.000  C
  C42      1.0000 0.54330  0.18250  0.46740  Biso   1.000  C
  C43      1.0000 0.30720  0.07300  0.86280  Biso   1.000  C
  C44      1.0000 0.40580  0.27920  0.93810  Biso   1.000  C
  C45      1.0000 0.26230  0.96090  0.82130  Biso   1.000  C
  C46      1.0000 0.38830  0.17610  0.98040  Biso   1.000  C
  C47      1.0000 0.32560  0.17680  0.82160  Biso   1.000  C
  C48      1.0000 0.42420  0.17620  0.06680  Biso   1.000  C
  C49      1.0000 0.37300  0.28080  0.85830  Biso   1.000  C
  C50      1.0000 0.33670  0.07370  0.94220  Biso   1.000  C
  C51      1.0000 0.38920  0.39640  0.81570  Biso   1.000  C
  C52      1.0000 0.02200  0.28580  0.86360  Biso   1.000  C
  C53      1.0000 0.10330  0.31030  0.00330  Biso   1.000  C
  C54      1.0000 0.29140  0.68860  0.07990  Biso   1.000  C
  C55      1.0000 0.25870  0.57410  0.09780  Biso   1.000  C
  C56      1.0000 0.15980  0.37900  0.05830  Biso   1.000  C
  C57      1.0000 0.00720  0.33380  0.79260  Biso   1.000  C
  C58      1.0000 0.20200  0.49840  0.04320  Biso   1.000  C
  C59      1.0000 0.08140  0.35300  0.92520  Biso   1.000  C
  C60      1.0000 0.26970  0.72510  0.00500  Biso   1.000  C
  C61      1.0000 0.12330  0.46950  0.90790  Biso   1.000  C
  C62      1.0000 0.05050  0.45130  0.78050  Biso   1.000  C
  C63      1.0000 0.18250  0.54330  0.96740  Biso   1.000  C
  C64      1.0000 0.92700  0.69280  0.63720  Biso   1.000  C
  C65      1.0000 0.72080  0.59420  0.56190  Biso   1.000  C
  C66      1.0000 0.03910  0.73770  0.67870  Biso   1.000  C
  C67      1.0000 0.82390  0.61170  0.51960  Biso   1.000  C
  C68      1.0000 0.82320  0.67440  0.67840  Biso   1.000  C
  C69      1.0000 0.82380  0.57580  0.43320  Biso   1.000  C
  C70      1.0000 0.71920  0.62700  0.64170  Biso   1.000  C
  C71      1.0000 0.92630  0.66330  0.55780  Biso   1.000  C
  C72      1.0000 0.60360  0.61080  0.68430  Biso   1.000  C
  C73      1.0000 0.71420  0.97800  0.63640  Biso   1.000  C
  C74      1.0000 0.68970  0.89670  0.49670  Biso   1.000  C
  C75      1.0000 0.31140  0.70860  0.42010  Biso   1.000  C
  C76      1.0000 0.42590  0.74130  0.40220  Biso   1.000  C
  C77      1.0000 0.62100  0.84020  0.44170  Biso   1.000  C
  C78      1.0000 0.66620  0.99280  0.70740  Biso   1.000  C
  C79      1.0000 0.50160  0.79800  0.45680  Biso   1.000  C
  C80      1.0000 0.64700  0.91860  0.57480  Biso   1.000  C
  C81      1.0000 0.27490  0.73030  0.49500  Biso   1.000  C
  C82      1.0000 0.53050  0.87670  0.59210  Biso   1.000  C
  C83      1.0000 0.54870  0.94950  0.71950  Biso   1.000  C
  C84      1.0000 0.45670  0.81750  0.53260  Biso   1.000  C
  N1       1.0000 0.89280  0.48180  0.16440  Biso   1.000  N
  N2       1.0000 0.78330  0.34370  0.05160  Biso   1.000  N
  N3       1.0000 0.51820  0.10720  0.33560  Biso   1.000  N
  N4       1.0000 0.65630  0.21670  0.44840  Biso   1.000  N
  N5       1.0000 0.10720  0.51820  0.83560  Biso   1.000  N
  N6       1.0000 0.21670  0.65630  0.94840  Biso   1.000  N
  N7       1.0000 0.48180  0.89280  0.66440  Biso   1.000  N
  N8       1.0000 0.34370  0.78330  0.55160  Biso   1.000  N
  O1       1.0000 0.50040  0.73800  0.91331  Biso   1.000  O
  O2       1.0000 0.61660  0.89900  0.89070  Biso   1.000  O
  O3       1.0000 0.77640  0.12540  0.13914  Biso   1.000  O
  O4       1.0000 0.73590  0.04230  0.25296  Biso   1.000  O
  O5       1.0000 0.57210  0.51150  0.14645  Biso   1.000  O
  O6       1.0000 0.63920  0.60920  0.25664  Biso   1.000  O
  O7       1.0000 0.26200  0.49960  0.58669  Biso   1.000  O
  O8       1.0000 0.10100  0.38340  0.60930  Biso   1.000  O
  O9       1.0000 0.87460  0.22360  0.36086  Biso   1.000  O
  O10      1.0000 0.95770  0.26410  0.24704  Biso   1.000  O
  O11      1.0000 0.48850  0.42790  0.35355  Biso   1.000  O
  O12      1.0000 0.39080  0.36080  0.24336  Biso   1.000  O
  O13      1.0000 0.49960  0.26200  0.08669  Biso   1.000  O
  O14      1.0000 0.38340  0.10100  0.10930  Biso   1.000  O
  O15      1.0000 0.22360  0.87460  0.86086  Biso   1.000  O
  O16      1.0000 0.26410  0.95770  0.74704  Biso   1.000  O
  O17      1.0000 0.42790  0.48850  0.85355  Biso   1.000  O
  O18      1.0000 0.36080  0.39080  0.74336  Biso   1.000  O
  O19      1.0000 0.73800  0.50040  0.41331  Biso   1.000  O
  O20      1.0000 0.89900  0.61660  0.39070  Biso   1.000  O
  O21      1.0000 0.12540  0.77640  0.63914  Biso   1.000  O
  O22      1.0000 0.04230  0.73590  0.75296  Biso   1.000  O
  O23      1.0000 0.51150  0.57210  0.64645  Biso   1.000  O
  O24      1.0000 0.60920  0.63920  0.75664  Biso   1.000  O
  O25      1.0000 0.31970  0.68030  0.75000  Biso   1.000  O
  O26      1.0000 0.68030  0.31970  0.25000  Biso   1.000  O
