data_image0
_cell_length_a       8.7433
_cell_length_b       11.256
_cell_length_c       17.7306
_cell_angle_alpha    84.505
_cell_angle_beta     75.726
_cell_angle_gamma    67.1462

_symmetry_space_group_name_H-M    P 1
_symmetry_int_tables_number       1

loop_
  _symmetry_equiv_pos_as_xyz
  'x, y, z'

loop_
  _atom_site_label
  _atom_site_occupancy
  _atom_site_fract_x
  _atom_site_fract_y
  _atom_site_fract_z
  _atom_site_thermal_displace_type
  _atom_site_B_iso_or_equiv
  _atom_site_type_symbol
  Sc1      1.0000 0.63568  0.75000  0.72864  Biso   1.000  Sc
  Sc2      1.0000 0.11432  0.75000  0.77136  Biso   1.000  Sc
  Sc3      1.0000 0.36432  0.25000  0.27136  Biso   1.000  Sc
  Sc4      1.0000 0.88568  0.25000  0.22864  Biso   1.000  Sc
  H1       1.0000 0.22050  0.55080  0.98220  Biso   1.000  H
  H2       1.0000 0.68380  0.57180  0.90860  Biso   1.000  H
  H3       1.0000 0.84510  0.36220  0.74960  Biso   1.000  H
  H4       1.0000 0.79730  0.94920  0.98220  Biso   1.000  H
  H5       1.0000 0.40760  0.92820  0.90860  Biso   1.000  H
  H6       1.0000 0.40530  0.13780  0.74960  Biso   1.000  H
  H7       1.0000 0.72870  0.55080  0.51780  Biso   1.000  H
  H8       1.0000 0.24440  0.57180  0.59140  Biso   1.000  H
  H9       1.0000 0.29270  0.36220  0.75040  Biso   1.000  H
  H10      1.0000 0.75350  0.94920  0.51780  Biso   1.000  H
  H11      1.0000 0.16420  0.92820  0.59140  Biso   1.000  H
  H12      1.0000 0.95690  0.13780  0.75040  Biso   1.000  H
  H13      1.0000 0.77950  0.44920  0.01780  Biso   1.000  H
  H14      1.0000 0.31620  0.42820  0.09140  Biso   1.000  H
  H15      1.0000 0.15490  0.63780  0.25040  Biso   1.000  H
  H16      1.0000 0.20270  0.05080  0.01780  Biso   1.000  H
  H17      1.0000 0.59240  0.07180  0.09140  Biso   1.000  H
  H18      1.0000 0.59470  0.86220  0.25040  Biso   1.000  H
  H19      1.0000 0.27130  0.44920  0.48220  Biso   1.000  H
  H20      1.0000 0.75560  0.42820  0.40860  Biso   1.000  H
  H21      1.0000 0.70730  0.63780  0.24960  Biso   1.000  H
  H22      1.0000 0.24650  0.05080  0.48220  Biso   1.000  H
  H23      1.0000 0.83580  0.07180  0.40860  Biso   1.000  H
  H24      1.0000 0.04310  0.86220  0.24960  Biso   1.000  H
  C1       1.0000 0.95629  0.31660  0.74902  Biso   1.000  C
  C2       1.0000 0.44930  0.56714  0.93504  Biso   1.000  C
  C3       1.0000 0.39579  0.63944  0.86460  Biso   1.000  C
  C4       1.0000 0.61196  0.53892  0.94456  Biso   1.000  C
  C5       1.0000 0.33738  0.52830  0.99054  Biso   1.000  C
  C6       1.0000 0.29469  0.18340  0.74902  Biso   1.000  C
  C7       1.0000 0.61566  0.93286  0.93504  Biso   1.000  C
  C8       1.0000 0.73961  0.86056  0.86460  Biso   1.000  C
  C9       1.0000 0.44348  0.96108  0.94456  Biso   1.000  C
  C10      1.0000 0.67208  0.97170  0.99054  Biso   1.000  C
  C11      1.0000 0.22711  0.31660  0.75098  Biso   1.000  C
  C12      1.0000 0.48356  0.56714  0.56496  Biso   1.000  C
  C13      1.0000 0.46477  0.63944  0.63540  Biso   1.000  C
  C14      1.0000 0.34912  0.53892  0.55544  Biso   1.000  C
  C15      1.0000 0.63432  0.52830  0.50946  Biso   1.000  C
  C16      1.0000 0.02191  0.18340  0.75098  Biso   1.000  C
  C17      1.0000 0.95148  0.93286  0.56496  Biso   1.000  C
  C18      1.0000 0.89983  0.86056  0.63540  Biso   1.000  C
  C19      1.0000 0.09544  0.96108  0.55544  Biso   1.000  C
  C20      1.0000 0.85622  0.97170  0.50946  Biso   1.000  C
  C21      1.0000 0.04371  0.68340  0.25098  Biso   1.000  C
  C22      1.0000 0.55070  0.43286  0.06496  Biso   1.000  C
  C23      1.0000 0.60421  0.36056  0.13540  Biso   1.000  C
  C24      1.0000 0.38804  0.46108  0.05544  Biso   1.000  C
  C25      1.0000 0.66262  0.47170  0.00946  Biso   1.000  C
  C26      1.0000 0.70531  0.81660  0.25098  Biso   1.000  C
  C27      1.0000 0.38434  0.06714  0.06496  Biso   1.000  C
  C28      1.0000 0.26039  0.13944  0.13540  Biso   1.000  C
  C29      1.0000 0.55652  0.03892  0.05544  Biso   1.000  C
  C30      1.0000 0.32792  0.02830  0.00946  Biso   1.000  C
  C31      1.0000 0.77289  0.68340  0.24902  Biso   1.000  C
  C32      1.0000 0.51644  0.43286  0.43504  Biso   1.000  C
  C33      1.0000 0.53523  0.36056  0.36460  Biso   1.000  C
  C34      1.0000 0.65088  0.46108  0.44456  Biso   1.000  C
  C35      1.0000 0.36568  0.47170  0.49054  Biso   1.000  C
  C36      1.0000 0.97809  0.81660  0.24902  Biso   1.000  C
  C37      1.0000 0.04852  0.06714  0.43504  Biso   1.000  C
  C38      1.0000 0.10017  0.13944  0.36460  Biso   1.000  C
  C39      1.0000 0.90456  0.03892  0.44456  Biso   1.000  C
  C40      1.0000 0.14378  0.02830  0.49054  Biso   1.000  C
  C41      1.0000 0.98643  0.52714  0.75000  Biso   1.000  C
  C42      1.0000 0.05810  0.38380  0.75000  Biso   1.000  C
  C43      1.0000 0.26357  0.97286  0.75000  Biso   1.000  C
  C44      1.0000 0.19190  0.11620  0.75000  Biso   1.000  C
  C45      1.0000 0.01357  0.47286  0.25000  Biso   1.000  C
  C46      1.0000 0.94190  0.61620  0.25000  Biso   1.000  C
  C47      1.0000 0.73643  0.02714  0.25000  Biso   1.000  C
  C48      1.0000 0.80810  0.88380  0.25000  Biso   1.000  C
  O1       1.0000 0.84877  0.58362  0.72938  Biso   1.000  O
  O2       1.0000 0.50362  0.66850  0.81486  Biso   1.000  O
  O3       1.0000 0.24597  0.66664  0.85892  Biso   1.000  O
  O4       1.0000 0.42185  0.91638  0.72938  Biso   1.000  O
  O5       1.0000 0.68152  0.83150  0.81486  Biso   1.000  O
  O6       1.0000 0.89511  0.83336  0.85892  Biso   1.000  O
  O7       1.0000 0.06761  0.58362  0.77062  Biso   1.000  O
  O8       1.0000 0.32788  0.66850  0.68514  Biso   1.000  O
  O9       1.0000 0.58739  0.66664  0.64108  Biso   1.000  O
  O10      1.0000 0.16177  0.91638  0.77062  Biso   1.000  O
  O11      1.0000 0.98698  0.83150  0.68514  Biso   1.000  O
  O12      1.0000 0.77153  0.83336  0.64108  Biso   1.000  O
  O13      1.0000 0.15123  0.41638  0.27062  Biso   1.000  O
  O14      1.0000 0.49638  0.33150  0.18514  Biso   1.000  O
  O15      1.0000 0.75403  0.33336  0.14108  Biso   1.000  O
  O16      1.0000 0.57815  0.08362  0.27062  Biso   1.000  O
  O17      1.0000 0.31848  0.16850  0.18514  Biso   1.000  O
  O18      1.0000 0.10489  0.16664  0.14108  Biso   1.000  O
  O19      1.0000 0.93239  0.41638  0.22938  Biso   1.000  O
  O20      1.0000 0.67212  0.33150  0.31486  Biso   1.000  O
  O21      1.0000 0.41261  0.33336  0.35892  Biso   1.000  O
  O22      1.0000 0.83823  0.08362  0.22938  Biso   1.000  O
  O23      1.0000 0.01302  0.16850  0.31486  Biso   1.000  O
  O24      1.0000 0.22847  0.16664  0.35892  Biso   1.000  O
