data_image0
_cell_length_a       11.7089
_cell_length_b       11.7089
_cell_length_c       14.7332
_cell_angle_alpha    109.164
_cell_angle_beta     109.164
_cell_angle_gamma    98.4153

_symmetry_space_group_name_H-M    P 1
_symmetry_int_tables_number       1

loop_
  _symmetry_equiv_pos_as_xyz
  'x, y, z'

loop_
  _atom_site_label
  _atom_site_occupancy
  _atom_site_fract_x
  _atom_site_fract_y
  _atom_site_fract_z
  _atom_site_thermal_displace_type
  _atom_site_B_iso_or_equiv
  _atom_site_type_symbol
  Cd1      1.0000 0.78034  0.02408  0.78750  Biso   1.000  Cd
  Cd2      1.0000 0.97592  0.21966  0.71250  Biso   1.000  Cd
  Cd3      1.0000 0.21966  0.97592  0.21250  Biso   1.000  Cd
  Cd4      1.0000 0.02408  0.78034  0.28750  Biso   1.000  Cd
  H1       1.0000 0.80810  0.25790  0.80670  Biso   1.000  H
  H2       1.0000 0.12090  0.04450  0.01930  Biso   1.000  H
  H3       1.0000 0.19330  0.41410  0.08780  Biso   1.000  H
  H4       1.0000 0.29510  0.28270  0.31210  Biso   1.000  H
  H5       1.0000 0.90900  0.51980  0.09170  Biso   1.000  H
  H6       1.0000 0.90880  0.21360  0.15560  Biso   1.000  H
  H7       1.0000 0.04540  0.56020  0.38410  Biso   1.000  H
  H8       1.0000 0.74210  0.19190  0.69330  Biso   1.000  H
  H9       1.0000 0.95550  0.87910  0.48070  Biso   1.000  H
  H10      1.0000 0.58590  0.80670  0.41220  Biso   1.000  H
  H11      1.0000 0.71730  0.70490  0.18790  Biso   1.000  H
  H12      1.0000 0.48020  0.09100  0.40830  Biso   1.000  H
  H13      1.0000 0.78640  0.09120  0.34440  Biso   1.000  H
  H14      1.0000 0.43980  0.95460  0.11590  Biso   1.000  H
  H15      1.0000 0.19190  0.74210  0.19330  Biso   1.000  H
  H16      1.0000 0.87910  0.95550  0.98070  Biso   1.000  H
  H17      1.0000 0.80670  0.58590  0.91220  Biso   1.000  H
  H18      1.0000 0.70490  0.71730  0.68790  Biso   1.000  H
  H19      1.0000 0.09100  0.48020  0.90830  Biso   1.000  H
  H20      1.0000 0.09120  0.78640  0.84440  Biso   1.000  H
  H21      1.0000 0.95460  0.43980  0.61590  Biso   1.000  H
  H22      1.0000 0.25790  0.80810  0.30670  Biso   1.000  H
  H23      1.0000 0.04450  0.12090  0.51930  Biso   1.000  H
  H24      1.0000 0.41410  0.19330  0.58780  Biso   1.000  H
  H25      1.0000 0.28270  0.29510  0.81210  Biso   1.000  H
  H26      1.0000 0.51980  0.90900  0.59170  Biso   1.000  H
  H27      1.0000 0.21360  0.90880  0.65560  Biso   1.000  H
  H28      1.0000 0.56020  0.04540  0.88410  Biso   1.000  H
  C1       1.0000 0.15530  0.12730  0.06890  Biso   1.000  C
  C2       1.0000 0.14620  0.22340  0.03460  Biso   1.000  C
  C3       1.0000 0.19600  0.34700  0.10820  Biso   1.000  C
  C4       1.0000 0.25010  0.36770  0.21320  Biso   1.000  C
  C5       1.0000 0.25720  0.26720  0.24140  Biso   1.000  C
  C6       1.0000 0.07450  0.18930  0.91890  Biso   1.000  C
  C7       1.0000 0.92720  0.48420  0.14070  Biso   1.000  C
  C8       1.0000 0.89670  0.35390  0.10490  Biso   1.000  C
  C9       1.0000 0.92580  0.30060  0.17690  Biso   1.000  C
  C10      1.0000 0.98110  0.38030  0.28130  Biso   1.000  C
  C11      1.0000 0.00800  0.50860  0.31280  Biso   1.000  C
  C12      1.0000 0.83720  0.27720  0.98790  Biso   1.000  C
  C13      1.0000 0.87270  0.84470  0.43110  Biso   1.000  C
  C14      1.0000 0.77660  0.85380  0.46540  Biso   1.000  C
  C15      1.0000 0.65300  0.80400  0.39180  Biso   1.000  C
  C16      1.0000 0.63230  0.74990  0.28680  Biso   1.000  C
  C17      1.0000 0.73280  0.74280  0.25860  Biso   1.000  C
  C18      1.0000 0.81070  0.92550  0.58110  Biso   1.000  C
  C19      1.0000 0.51580  0.07280  0.35930  Biso   1.000  C
  C20      1.0000 0.64610  0.10330  0.39510  Biso   1.000  C
  C21      1.0000 0.69940  0.07420  0.32310  Biso   1.000  C
  C22      1.0000 0.61970  0.01890  0.21870  Biso   1.000  C
  C23      1.0000 0.49140  0.99200  0.18720  Biso   1.000  C
  C24      1.0000 0.72280  0.16280  0.51210  Biso   1.000  C
  C25      1.0000 0.84470  0.87270  0.93110  Biso   1.000  C
  C26      1.0000 0.85380  0.77660  0.96540  Biso   1.000  C
  C27      1.0000 0.80400  0.65300  0.89180  Biso   1.000  C
  C28      1.0000 0.74990  0.63230  0.78680  Biso   1.000  C
  C29      1.0000 0.74280  0.73280  0.75860  Biso   1.000  C
  C30      1.0000 0.92550  0.81070  0.08110  Biso   1.000  C
  C31      1.0000 0.07280  0.51580  0.85930  Biso   1.000  C
  C32      1.0000 0.10330  0.64610  0.89510  Biso   1.000  C
  C33      1.0000 0.07420  0.69940  0.82310  Biso   1.000  C
  C34      1.0000 0.01890  0.61970  0.71870  Biso   1.000  C
  C35      1.0000 0.99200  0.49140  0.68720  Biso   1.000  C
  C36      1.0000 0.16280  0.72280  0.01210  Biso   1.000  C
  C37      1.0000 0.12730  0.15530  0.56890  Biso   1.000  C
  C38      1.0000 0.22340  0.14620  0.53460  Biso   1.000  C
  C39      1.0000 0.34700  0.19600  0.60820  Biso   1.000  C
  C40      1.0000 0.36770  0.25010  0.71320  Biso   1.000  C
  C41      1.0000 0.26720  0.25720  0.74140  Biso   1.000  C
  C42      1.0000 0.18930  0.07450  0.41890  Biso   1.000  C
  C43      1.0000 0.48420  0.92720  0.64070  Biso   1.000  C
  C44      1.0000 0.35390  0.89670  0.60490  Biso   1.000  C
  C45      1.0000 0.30060  0.92580  0.67690  Biso   1.000  C
  C46      1.0000 0.38030  0.98110  0.78130  Biso   1.000  C
  C47      1.0000 0.50860  0.00800  0.81280  Biso   1.000  C
  C48      1.0000 0.27720  0.83720  0.48790  Biso   1.000  C
  Br1      1.0000 0.31205  0.53263  0.31857  Biso   1.000  Br
  Br2      1.0000 0.02388  0.31354  0.38533  Biso   1.000  Br
  Br3      1.0000 0.46737  0.68795  0.18143  Biso   1.000  Br
  Br4      1.0000 0.68646  0.97612  0.11467  Biso   1.000  Br
  Br5      1.0000 0.68795  0.46737  0.68143  Biso   1.000  Br
  Br6      1.0000 0.97612  0.68646  0.61467  Biso   1.000  Br
  Br7      1.0000 0.53263  0.31205  0.81857  Biso   1.000  Br
  Br8      1.0000 0.31354  0.02388  0.88533  Biso   1.000  Br
  N1       1.0000 0.21120  0.14760  0.17010  Biso   1.000  N
  N2       1.0000 0.98160  0.56100  0.24270  Biso   1.000  N
  N3       1.0000 0.85240  0.78880  0.32990  Biso   1.000  N
  N4       1.0000 0.43900  0.01840  0.25730  Biso   1.000  N
  N5       1.0000 0.78880  0.85240  0.82990  Biso   1.000  N
  N6       1.0000 0.01840  0.43900  0.75730  Biso   1.000  N
  N7       1.0000 0.14760  0.21120  0.67010  Biso   1.000  N
  N8       1.0000 0.56100  0.98160  0.74270  Biso   1.000  N
  O1       1.0000 0.99771  0.08209  0.86710  Biso   1.000  O
  O2       1.0000 0.09772  0.27068  0.88460  Biso   1.000  O
  O3       1.0000 0.81990  0.33850  0.93160  Biso   1.000  O
  O4       1.0000 0.81145  0.15935  0.95660  Biso   1.000  O
  O5       1.0000 0.91791  0.00229  0.63290  Biso   1.000  O
  O6       1.0000 0.72932  0.90228  0.61540  Biso   1.000  O
  O7       1.0000 0.66150  0.18010  0.56840  Biso   1.000  O
  O8       1.0000 0.84065  0.18855  0.54340  Biso   1.000  O
  O9       1.0000 0.00229  0.91791  0.13290  Biso   1.000  O
  O10      1.0000 0.90228  0.72932  0.11540  Biso   1.000  O
  O11      1.0000 0.18010  0.66150  0.06840  Biso   1.000  O
  O12      1.0000 0.18855  0.84065  0.04340  Biso   1.000  O
  O13      1.0000 0.08209  0.99771  0.36710  Biso   1.000  O
  O14      1.0000 0.27068  0.09772  0.38460  Biso   1.000  O
  O15      1.0000 0.33850  0.81990  0.43160  Biso   1.000  O
  O16      1.0000 0.15935  0.81145  0.45660  Biso   1.000  O
  O17      1.0000 0.80000  0.20000  0.75000  Biso   1.000  O
  O18      1.0000 0.20000  0.80000  0.25000  Biso   1.000  O
