data_image0
_cell_length_a       15.401
_cell_length_b       17.3812
_cell_length_c       15.0538
_cell_angle_alpha    90
_cell_angle_beta     120.435
_cell_angle_gamma    90

_symmetry_space_group_name_H-M    "P 1"
_symmetry_int_tables_number       1

loop_
  _symmetry_equiv_pos_as_xyz
  'x, y, z'

loop_
  _atom_site_label
  _atom_site_occupancy
  _atom_site_fract_x
  _atom_site_fract_y
  _atom_site_fract_z
  _atom_site_thermal_displace_type
  _atom_site_B_iso_or_equiv
  _atom_site_type_symbol
  Cd1      1.0000 0.36611  0.36744  0.71423  Biso   1.000  Cd
  Br1      1.0000 0.63795  0.36721  0.30801  Biso   1.000  Br
  Br2      1.0000 0.03682  0.40109  0.12956  Biso   1.000  Br
  O1       1.0000 0.44880  0.32964  0.88250  Biso   1.000  O
  O2       1.0000 0.57610  0.28620  0.86540  Biso   1.000  O
  O3       1.0000 0.40440  0.50730  0.57110  Biso   1.000  O
  O4       1.0000 0.28450  0.42370  0.54970  Biso   1.000  O
  H1       1.0000 0.52270  0.47050  0.80650  Biso   1.000  H
  N1       1.0000 0.73850  0.22030  0.16680  Biso   1.000  N
  N2       1.0000 0.28120  0.54490  0.26410  Biso   1.000  N
  C1       1.0000 0.72480  0.25960  0.23520  Biso   1.000  C
  H2       1.0000 0.76860  0.25120  0.30510  Biso   1.000  H
  C2       1.0000 0.64810  0.31180  0.20540  Biso   1.000  C
  C3       1.0000 0.58170  0.32570  0.10220  Biso   1.000  C
  H3       1.0000 0.52850  0.36010  0.08110  Biso   1.000  H
  C4       1.0000 0.59730  0.28650  0.03100  Biso   1.000  C
  C5       1.0000 0.67620  0.23500  0.06640  Biso   1.000  C
  H4       1.0000 0.68660  0.20920  0.01850  Biso   1.000  H
  C6       1.0000 0.53510  0.30200  0.91710  Biso   1.000  C
  C7       1.0000 0.19780  0.50680  0.19720  Biso   1.000  C
  H5       1.0000 0.16980  0.51580  0.12700  Biso   1.000  H
  C8       1.0000 0.15260  0.45480  0.22950  Biso   1.000  C
  C9       1.0000 0.19070  0.44050  0.33280  Biso   1.000  C
  H6       1.0000 0.16030  0.40520  0.35480  Biso   1.000  H
  C10      1.0000 0.27580  0.48070  0.40250  Biso   1.000  C
  C11      1.0000 0.31900  0.53150  0.36470  Biso   1.000  C
  H7       1.0000 0.37720  0.55750  0.41160  Biso   1.000  H
  C12      1.0000 0.32570  0.46920  0.51780  Biso   1.000  C
  Cd2      1.0000 0.86611  0.86744  0.71423  Biso   1.000  Cd
  Br3      1.0000 0.13795  0.86721  0.30801  Biso   1.000  Br
  Br4      1.0000 0.53682  0.90109  0.12956  Biso   1.000  Br
  O5       1.0000 0.94880  0.82964  0.88250  Biso   1.000  O
  O6       1.0000 0.07610  0.78620  0.86540  Biso   1.000  O
  O7       1.0000 0.90440  0.00730  0.57110  Biso   1.000  O
  O8       1.0000 0.78450  0.92370  0.54970  Biso   1.000  O
  H8       1.0000 0.02270  0.97050  0.80650  Biso   1.000  H
  N3       1.0000 0.23850  0.72030  0.16680  Biso   1.000  N
  N4       1.0000 0.78120  0.04490  0.26410  Biso   1.000  N
  C13      1.0000 0.22480  0.75960  0.23520  Biso   1.000  C
  H9       1.0000 0.26860  0.75120  0.30510  Biso   1.000  H
  C14      1.0000 0.14810  0.81180  0.20540  Biso   1.000  C
  C15      1.0000 0.08170  0.82570  0.10220  Biso   1.000  C
  H10      1.0000 0.02850  0.86010  0.08110  Biso   1.000  H
  C16      1.0000 0.09730  0.78650  0.03100  Biso   1.000  C
  C17      1.0000 0.17620  0.73500  0.06640  Biso   1.000  C
  H11      1.0000 0.18660  0.70920  0.01850  Biso   1.000  H
  C18      1.0000 0.03510  0.80200  0.91710  Biso   1.000  C
  C19      1.0000 0.69780  0.00680  0.19720  Biso   1.000  C
  H12      1.0000 0.66980  0.01580  0.12700  Biso   1.000  H
  C20      1.0000 0.65260  0.95480  0.22950  Biso   1.000  C
  C21      1.0000 0.69070  0.94050  0.33280  Biso   1.000  C
  H13      1.0000 0.66030  0.90520  0.35480  Biso   1.000  H
  C22      1.0000 0.77580  0.98070  0.40250  Biso   1.000  C
  C23      1.0000 0.81900  0.03150  0.36470  Biso   1.000  C
  H14      1.0000 0.87720  0.05750  0.41160  Biso   1.000  H
  C24      1.0000 0.82570  0.96920  0.51780  Biso   1.000  C
  Cd3      1.0000 0.63389  0.36744  0.78577  Biso   1.000  Cd
  Br5      1.0000 0.36205  0.36721  0.19199  Biso   1.000  Br
  Br6      1.0000 0.96318  0.40109  0.37044  Biso   1.000  Br
  O9       1.0000 0.55120  0.32964  0.61750  Biso   1.000  O
  O10      1.0000 0.42390  0.28620  0.63460  Biso   1.000  O
  O11      1.0000 0.59560  0.50730  0.92890  Biso   1.000  O
  O12      1.0000 0.71550  0.42370  0.95030  Biso   1.000  O
  H15      1.0000 0.47730  0.47050  0.69350  Biso   1.000  H
  N5       1.0000 0.26150  0.22030  0.33320  Biso   1.000  N
  N6       1.0000 0.71880  0.54490  0.23590  Biso   1.000  N
  C25      1.0000 0.27520  0.25960  0.26480  Biso   1.000  C
  H16      1.0000 0.23140  0.25120  0.19490  Biso   1.000  H
  C26      1.0000 0.35190  0.31180  0.29460  Biso   1.000  C
  C27      1.0000 0.41830  0.32570  0.39780  Biso   1.000  C
  H17      1.0000 0.47150  0.36010  0.41890  Biso   1.000  H
  C28      1.0000 0.40270  0.28650  0.46900  Biso   1.000  C
  C29      1.0000 0.32380  0.23500  0.43360  Biso   1.000  C
  H18      1.0000 0.31340  0.20920  0.48150  Biso   1.000  H
  C30      1.0000 0.46490  0.30200  0.58290  Biso   1.000  C
  C31      1.0000 0.80220  0.50680  0.30280  Biso   1.000  C
  H19      1.0000 0.83020  0.51580  0.37300  Biso   1.000  H
  C32      1.0000 0.84740  0.45480  0.27050  Biso   1.000  C
  C33      1.0000 0.80930  0.44050  0.16720  Biso   1.000  C
  H20      1.0000 0.83970  0.40520  0.14520  Biso   1.000  H
  C34      1.0000 0.72420  0.48070  0.09750  Biso   1.000  C
  C35      1.0000 0.68100  0.53150  0.13530  Biso   1.000  C
  H21      1.0000 0.62280  0.55750  0.08840  Biso   1.000  H
  C36      1.0000 0.67430  0.46920  0.98220  Biso   1.000  C
  Cd4      1.0000 0.13389  0.86744  0.78577  Biso   1.000  Cd
  Br7      1.0000 0.86205  0.86721  0.19199  Biso   1.000  Br
  Br8      1.0000 0.46318  0.90109  0.37044  Biso   1.000  Br
  O13      1.0000 0.05120  0.82964  0.61750  Biso   1.000  O
  O14      1.0000 0.92390  0.78620  0.63460  Biso   1.000  O
  O15      1.0000 0.09560  0.00730  0.92890  Biso   1.000  O
  O16      1.0000 0.21550  0.92370  0.95030  Biso   1.000  O
  H22      1.0000 0.97730  0.97050  0.69350  Biso   1.000  H
  N7       1.0000 0.76150  0.72030  0.33320  Biso   1.000  N
  N8       1.0000 0.21880  0.04490  0.23590  Biso   1.000  N
  C37      1.0000 0.77520  0.75960  0.26480  Biso   1.000  C
  H23      1.0000 0.73140  0.75120  0.19490  Biso   1.000  H
  C38      1.0000 0.85190  0.81180  0.29460  Biso   1.000  C
  C39      1.0000 0.91830  0.82570  0.39780  Biso   1.000  C
  H24      1.0000 0.97150  0.86010  0.41890  Biso   1.000  H
  C40      1.0000 0.90270  0.78650  0.46900  Biso   1.000  C
  C41      1.0000 0.82380  0.73500  0.43360  Biso   1.000  C
  H25      1.0000 0.81340  0.70920  0.48150  Biso   1.000  H
  C42      1.0000 0.96490  0.80200  0.58290  Biso   1.000  C
  C43      1.0000 0.30220  0.00680  0.30280  Biso   1.000  C
  H26      1.0000 0.33020  0.01580  0.37300  Biso   1.000  H
  C44      1.0000 0.34740  0.95480  0.27050  Biso   1.000  C
  C45      1.0000 0.30930  0.94050  0.16720  Biso   1.000  C
  H27      1.0000 0.33970  0.90520  0.14520  Biso   1.000  H
  C46      1.0000 0.22420  0.98070  0.09750  Biso   1.000  C
  C47      1.0000 0.18100  0.03150  0.13530  Biso   1.000  C
  H28      1.0000 0.12280  0.05750  0.08840  Biso   1.000  H
  C48      1.0000 0.17430  0.96920  0.98220  Biso   1.000  C
  Cd5      1.0000 0.63389  0.63256  0.28577  Biso   1.000  Cd
  Br9      1.0000 0.36205  0.63279  0.69199  Biso   1.000  Br
  Br10     1.0000 0.96318  0.59891  0.87044  Biso   1.000  Br
  O17      1.0000 0.55120  0.67036  0.11750  Biso   1.000  O
  O18      1.0000 0.42390  0.71380  0.13460  Biso   1.000  O
  O19      1.0000 0.59560  0.49270  0.42890  Biso   1.000  O
  O20      1.0000 0.71550  0.57630  0.45030  Biso   1.000  O
  H29      1.0000 0.47730  0.52950  0.19350  Biso   1.000  H
  N9       1.0000 0.26150  0.77970  0.83320  Biso   1.000  N
  N10      1.0000 0.71880  0.45510  0.73590  Biso   1.000  N
  C49      1.0000 0.27520  0.74040  0.76480  Biso   1.000  C
  H30      1.0000 0.23140  0.74880  0.69490  Biso   1.000  H
  C50      1.0000 0.35190  0.68820  0.79460  Biso   1.000  C
  C51      1.0000 0.41830  0.67430  0.89780  Biso   1.000  C
  H31      1.0000 0.47150  0.63990  0.91890  Biso   1.000  H
  C52      1.0000 0.40270  0.71350  0.96900  Biso   1.000  C
  C53      1.0000 0.32380  0.76500  0.93360  Biso   1.000  C
  H32      1.0000 0.31340  0.79080  0.98150  Biso   1.000  H
  C54      1.0000 0.46490  0.69800  0.08290  Biso   1.000  C
  C55      1.0000 0.80220  0.49320  0.80280  Biso   1.000  C
  H33      1.0000 0.83020  0.48420  0.87300  Biso   1.000  H
  C56      1.0000 0.84740  0.54520  0.77050  Biso   1.000  C
  C57      1.0000 0.80930  0.55950  0.66720  Biso   1.000  C
  H34      1.0000 0.83970  0.59480  0.64520  Biso   1.000  H
  C58      1.0000 0.72420  0.51930  0.59750  Biso   1.000  C
  C59      1.0000 0.68100  0.46850  0.63530  Biso   1.000  C
  H35      1.0000 0.62280  0.44250  0.58840  Biso   1.000  H
  C60      1.0000 0.67430  0.53080  0.48220  Biso   1.000  C
  Cd6      1.0000 0.13389  0.13256  0.28577  Biso   1.000  Cd
  Br11     1.0000 0.86205  0.13279  0.69199  Biso   1.000  Br
  Br12     1.0000 0.46318  0.09891  0.87044  Biso   1.000  Br
  O21      1.0000 0.05120  0.17036  0.11750  Biso   1.000  O
  O22      1.0000 0.92390  0.21380  0.13460  Biso   1.000  O
  O23      1.0000 0.09560  0.99270  0.42890  Biso   1.000  O
  O24      1.0000 0.21550  0.07630  0.45030  Biso   1.000  O
  H36      1.0000 0.97730  0.02950  0.19350  Biso   1.000  H
  N11      1.0000 0.76150  0.27970  0.83320  Biso   1.000  N
  N12      1.0000 0.21880  0.95510  0.73590  Biso   1.000  N
  C61      1.0000 0.77520  0.24040  0.76480  Biso   1.000  C
  H37      1.0000 0.73140  0.24880  0.69490  Biso   1.000  H
  C62      1.0000 0.85190  0.18820  0.79460  Biso   1.000  C
  C63      1.0000 0.91830  0.17430  0.89780  Biso   1.000  C
  H38      1.0000 0.97150  0.13990  0.91890  Biso   1.000  H
  C64      1.0000 0.90270  0.21350  0.96900  Biso   1.000  C
  C65      1.0000 0.82380  0.26500  0.93360  Biso   1.000  C
  H39      1.0000 0.81340  0.29080  0.98150  Biso   1.000  H
  C66      1.0000 0.96490  0.19800  0.08290  Biso   1.000  C
  C67      1.0000 0.30220  0.99320  0.80280  Biso   1.000  C
  H40      1.0000 0.33020  0.98420  0.87300  Biso   1.000  H
  C68      1.0000 0.34740  0.04520  0.77050  Biso   1.000  C
  C69      1.0000 0.30930  0.05950  0.66720  Biso   1.000  C
  H41      1.0000 0.33970  0.09480  0.64520  Biso   1.000  H
  C70      1.0000 0.22420  0.01930  0.59750  Biso   1.000  C
  C71      1.0000 0.18100  0.96850  0.63530  Biso   1.000  C
  H42      1.0000 0.12280  0.94250  0.58840  Biso   1.000  H
  C72      1.0000 0.17430  0.03080  0.48220  Biso   1.000  C
  Cd7      1.0000 0.36611  0.63256  0.21423  Biso   1.000  Cd
  Br13     1.0000 0.63795  0.63279  0.80801  Biso   1.000  Br
  Br14     1.0000 0.03682  0.59891  0.62956  Biso   1.000  Br
  O25      1.0000 0.44880  0.67036  0.38250  Biso   1.000  O
  O26      1.0000 0.57610  0.71380  0.36540  Biso   1.000  O
  O27      1.0000 0.40440  0.49270  0.07110  Biso   1.000  O
  O28      1.0000 0.28450  0.57630  0.04970  Biso   1.000  O
  H43      1.0000 0.52270  0.52950  0.30650  Biso   1.000  H
  N13      1.0000 0.73850  0.77970  0.66680  Biso   1.000  N
  N14      1.0000 0.28120  0.45510  0.76410  Biso   1.000  N
  C73      1.0000 0.72480  0.74040  0.73520  Biso   1.000  C
  H44      1.0000 0.76860  0.74880  0.80510  Biso   1.000  H
  C74      1.0000 0.64810  0.68820  0.70540  Biso   1.000  C
  C75      1.0000 0.58170  0.67430  0.60220  Biso   1.000  C
  H45      1.0000 0.52850  0.63990  0.58110  Biso   1.000  H
  C76      1.0000 0.59730  0.71350  0.53100  Biso   1.000  C
  C77      1.0000 0.67620  0.76500  0.56640  Biso   1.000  C
  H46      1.0000 0.68660  0.79080  0.51850  Biso   1.000  H
  C78      1.0000 0.53510  0.69800  0.41710  Biso   1.000  C
  C79      1.0000 0.19780  0.49320  0.69720  Biso   1.000  C
  H47      1.0000 0.16980  0.48420  0.62700  Biso   1.000  H
  C80      1.0000 0.15260  0.54520  0.72950  Biso   1.000  C
  C81      1.0000 0.19070  0.55950  0.83280  Biso   1.000  C
  H48      1.0000 0.16030  0.59480  0.85480  Biso   1.000  H
  C82      1.0000 0.27580  0.51930  0.90250  Biso   1.000  C
  C83      1.0000 0.31900  0.46850  0.86470  Biso   1.000  C
  H49      1.0000 0.37720  0.44250  0.91160  Biso   1.000  H
  C84      1.0000 0.32570  0.53080  0.01780  Biso   1.000  C
  Cd8      1.0000 0.86611  0.13256  0.21423  Biso   1.000  Cd
  Br15     1.0000 0.13795  0.13279  0.80801  Biso   1.000  Br
  Br16     1.0000 0.53682  0.09891  0.62956  Biso   1.000  Br
  O29      1.0000 0.94880  0.17036  0.38250  Biso   1.000  O
  O30      1.0000 0.07610  0.21380  0.36540  Biso   1.000  O
  O31      1.0000 0.90440  0.99270  0.07110  Biso   1.000  O
  O32      1.0000 0.78450  0.07630  0.04970  Biso   1.000  O
  H50      1.0000 0.02270  0.02950  0.30650  Biso   1.000  H
  N15      1.0000 0.23850  0.27970  0.66680  Biso   1.000  N
  N16      1.0000 0.78120  0.95510  0.76410  Biso   1.000  N
  C85      1.0000 0.22480  0.24040  0.73520  Biso   1.000  C
  H51      1.0000 0.26860  0.24880  0.80510  Biso   1.000  H
  C86      1.0000 0.14810  0.18820  0.70540  Biso   1.000  C
  C87      1.0000 0.08170  0.17430  0.60220  Biso   1.000  C
  H52      1.0000 0.02850  0.13990  0.58110  Biso   1.000  H
  C88      1.0000 0.09730  0.21350  0.53100  Biso   1.000  C
  C89      1.0000 0.17620  0.26500  0.56640  Biso   1.000  C
  H53      1.0000 0.18660  0.29080  0.51850  Biso   1.000  H
  C90      1.0000 0.03510  0.19800  0.41710  Biso   1.000  C
  C91      1.0000 0.69780  0.99320  0.69720  Biso   1.000  C
  H54      1.0000 0.66980  0.98420  0.62700  Biso   1.000  H
  C92      1.0000 0.65260  0.04520  0.72950  Biso   1.000  C
  C93      1.0000 0.69070  0.05950  0.83280  Biso   1.000  C
  H55      1.0000 0.66030  0.09480  0.85480  Biso   1.000  H
  C94      1.0000 0.77580  0.01930  0.90250  Biso   1.000  C
  C95      1.0000 0.81900  0.96850  0.86470  Biso   1.000  C
  H56      1.0000 0.87720  0.94250  0.91160  Biso   1.000  H
  C96      1.0000 0.82570  0.03080  0.01780  Biso   1.000  C
  O33      1.0000 0.50000  0.44630  0.75000  Biso   1.000  O
  O34      1.0000 0.00000  0.94630  0.75000  Biso   1.000  O
  O35      1.0000 0.50000  0.55370  0.25000  Biso   1.000  O
  O36      1.0000 0.00000  0.05370  0.25000  Biso   1.000  O
