data_image0
_cell_length_a       15.3959
_cell_length_b       17.3775
_cell_length_c       15.0543
_cell_angle_alpha    90
_cell_angle_beta     120.42
_cell_angle_gamma    90

_symmetry_space_group_name_H-M    "P 1"
_symmetry_int_tables_number       1

loop_
  _symmetry_equiv_pos_as_xyz
  'x, y, z'

loop_
  _atom_site_label
  _atom_site_occupancy
  _atom_site_fract_x
  _atom_site_fract_y
  _atom_site_fract_z
  _atom_site_thermal_displace_type
  _atom_site_B_iso_or_equiv
  _atom_site_type_symbol
  Cd1      1.0000 0.86611  0.63271  0.71430  Biso   1.000  Cd
  Br1      1.0000 0.53698  0.59895  0.12981  Biso   1.000  Br
  Br2      1.0000 0.13792  0.63254  0.30796  Biso   1.000  Br
  O1       1.0000 0.90470  0.49280  0.57170  Biso   1.000  O
  O2       1.0000 0.78440  0.57630  0.55000  Biso   1.000  O
  O3       1.0000 0.94900  0.67050  0.88260  Biso   1.000  O
  O4       1.0000 0.07620  0.71380  0.86560  Biso   1.000  O
  H1       1.0000 0.02630  0.52930  0.80630  Biso   1.000  H
  N1       1.0000 0.78130  0.45540  0.26470  Biso   1.000  N
  N2       1.0000 0.23870  0.77940  0.16690  Biso   1.000  N
  C1       1.0000 0.81930  0.46860  0.36480  Biso   1.000  C
  H2       1.0000 0.87790  0.44300  0.41160  Biso   1.000  H
  C2       1.0000 0.69800  0.49320  0.19720  Biso   1.000  C
  H3       1.0000 0.67050  0.48440  0.12700  Biso   1.000  H
  C3       1.0000 0.65250  0.54470  0.22960  Biso   1.000  C
  C4       1.0000 0.69060  0.55960  0.33340  Biso   1.000  C
  H4       1.0000 0.66040  0.59520  0.35550  Biso   1.000  H
  C5       1.0000 0.77540  0.51920  0.40240  Biso   1.000  C
  C6       1.0000 0.82570  0.53060  0.51830  Biso   1.000  C
  C7       1.0000 0.17610  0.76560  0.06640  Biso   1.000  C
  H5       1.0000 0.18570  0.79220  0.01840  Biso   1.000  H
  C8       1.0000 0.22450  0.74050  0.23510  Biso   1.000  C
  H6       1.0000 0.26770  0.74950  0.30500  Biso   1.000  H
  C9       1.0000 0.14830  0.68790  0.20530  Biso   1.000  C
  C10      1.0000 0.08200  0.67440  0.10270  Biso   1.000  C
  H7       1.0000 0.02850  0.64030  0.08170  Biso   1.000  H
  C11      1.0000 0.09760  0.71340  0.03150  Biso   1.000  C
  C12      1.0000 0.03520  0.69780  0.91660  Biso   1.000  C
  Cd2      1.0000 0.36611  0.13271  0.71430  Biso   1.000  Cd
  Br3      1.0000 0.03698  0.09895  0.12981  Biso   1.000  Br
  Br4      1.0000 0.63792  0.13254  0.30796  Biso   1.000  Br
  O5       1.0000 0.40470  0.99280  0.57170  Biso   1.000  O
  O6       1.0000 0.28440  0.07630  0.55000  Biso   1.000  O
  O7       1.0000 0.44900  0.17050  0.88260  Biso   1.000  O
  O8       1.0000 0.57620  0.21380  0.86560  Biso   1.000  O
  H8       1.0000 0.52630  0.02930  0.80630  Biso   1.000  H
  N3       1.0000 0.28130  0.95540  0.26470  Biso   1.000  N
  N4       1.0000 0.73870  0.27940  0.16690  Biso   1.000  N
  C13      1.0000 0.31930  0.96860  0.36480  Biso   1.000  C
  H9       1.0000 0.37790  0.94300  0.41160  Biso   1.000  H
  C14      1.0000 0.19800  0.99320  0.19720  Biso   1.000  C
  H10      1.0000 0.17050  0.98440  0.12700  Biso   1.000  H
  C15      1.0000 0.15250  0.04470  0.22960  Biso   1.000  C
  C16      1.0000 0.19060  0.05960  0.33340  Biso   1.000  C
  H11      1.0000 0.16040  0.09520  0.35550  Biso   1.000  H
  C17      1.0000 0.27540  0.01920  0.40240  Biso   1.000  C
  C18      1.0000 0.32570  0.03060  0.51830  Biso   1.000  C
  C19      1.0000 0.67610  0.26560  0.06640  Biso   1.000  C
  H12      1.0000 0.68570  0.29220  0.01840  Biso   1.000  H
  C20      1.0000 0.72450  0.24050  0.23510  Biso   1.000  C
  H13      1.0000 0.76770  0.24950  0.30500  Biso   1.000  H
  C21      1.0000 0.64830  0.18790  0.20530  Biso   1.000  C
  C22      1.0000 0.58200  0.17440  0.10270  Biso   1.000  C
  H14      1.0000 0.52850  0.14030  0.08170  Biso   1.000  H
  C23      1.0000 0.59760  0.21340  0.03150  Biso   1.000  C
  C24      1.0000 0.53520  0.19780  0.91660  Biso   1.000  C
  Cd3      1.0000 0.13389  0.63271  0.78570  Biso   1.000  Cd
  Br5      1.0000 0.46302  0.59895  0.37019  Biso   1.000  Br
  Br6      1.0000 0.86208  0.63254  0.19204  Biso   1.000  Br
  O9       1.0000 0.09530  0.49280  0.92830  Biso   1.000  O
  O10      1.0000 0.21560  0.57630  0.95000  Biso   1.000  O
  O11      1.0000 0.05100  0.67050  0.61740  Biso   1.000  O
  O12      1.0000 0.92380  0.71380  0.63440  Biso   1.000  O
  H15      1.0000 0.97370  0.52930  0.69370  Biso   1.000  H
  N5       1.0000 0.21870  0.45540  0.23530  Biso   1.000  N
  N6       1.0000 0.76130  0.77940  0.33310  Biso   1.000  N
  C25      1.0000 0.18070  0.46860  0.13520  Biso   1.000  C
  H16      1.0000 0.12210  0.44300  0.08840  Biso   1.000  H
  C26      1.0000 0.30200  0.49320  0.30280  Biso   1.000  C
  H17      1.0000 0.32950  0.48440  0.37300  Biso   1.000  H
  C27      1.0000 0.34750  0.54470  0.27040  Biso   1.000  C
  C28      1.0000 0.30940  0.55960  0.16660  Biso   1.000  C
  H18      1.0000 0.33960  0.59520  0.14450  Biso   1.000  H
  C29      1.0000 0.22460  0.51920  0.09760  Biso   1.000  C
  C30      1.0000 0.17430  0.53060  0.98170  Biso   1.000  C
  C31      1.0000 0.82390  0.76560  0.43360  Biso   1.000  C
  H19      1.0000 0.81430  0.79220  0.48160  Biso   1.000  H
  C32      1.0000 0.77550  0.74050  0.26490  Biso   1.000  C
  H20      1.0000 0.73230  0.74950  0.19500  Biso   1.000  H
  C33      1.0000 0.85170  0.68790  0.29470  Biso   1.000  C
  C34      1.0000 0.91800  0.67440  0.39730  Biso   1.000  C
  H21      1.0000 0.97150  0.64030  0.41830  Biso   1.000  H
  C35      1.0000 0.90240  0.71340  0.46850  Biso   1.000  C
  C36      1.0000 0.96480  0.69780  0.58340  Biso   1.000  C
  Cd4      1.0000 0.63389  0.13271  0.78570  Biso   1.000  Cd
  Br7      1.0000 0.96302  0.09895  0.37019  Biso   1.000  Br
  Br8      1.0000 0.36208  0.13254  0.19204  Biso   1.000  Br
  O13      1.0000 0.59530  0.99280  0.92830  Biso   1.000  O
  O14      1.0000 0.71560  0.07630  0.95000  Biso   1.000  O
  O15      1.0000 0.55100  0.17050  0.61740  Biso   1.000  O
  O16      1.0000 0.42380  0.21380  0.63440  Biso   1.000  O
  H22      1.0000 0.47370  0.02930  0.69370  Biso   1.000  H
  N7       1.0000 0.71870  0.95540  0.23530  Biso   1.000  N
  N8       1.0000 0.26130  0.27940  0.33310  Biso   1.000  N
  C37      1.0000 0.68070  0.96860  0.13520  Biso   1.000  C
  H23      1.0000 0.62210  0.94300  0.08840  Biso   1.000  H
  C38      1.0000 0.80200  0.99320  0.30280  Biso   1.000  C
  H24      1.0000 0.82950  0.98440  0.37300  Biso   1.000  H
  C39      1.0000 0.84750  0.04470  0.27040  Biso   1.000  C
  C40      1.0000 0.80940  0.05960  0.16660  Biso   1.000  C
  H25      1.0000 0.83960  0.09520  0.14450  Biso   1.000  H
  C41      1.0000 0.72460  0.01920  0.09760  Biso   1.000  C
  C42      1.0000 0.67430  0.03060  0.98170  Biso   1.000  C
  C43      1.0000 0.32390  0.26560  0.43360  Biso   1.000  C
  H26      1.0000 0.31430  0.29220  0.48160  Biso   1.000  H
  C44      1.0000 0.27550  0.24050  0.26490  Biso   1.000  C
  H27      1.0000 0.23230  0.24950  0.19500  Biso   1.000  H
  C45      1.0000 0.35170  0.18790  0.29470  Biso   1.000  C
  C46      1.0000 0.41800  0.17440  0.39730  Biso   1.000  C
  H28      1.0000 0.47150  0.14030  0.41830  Biso   1.000  H
  C47      1.0000 0.40240  0.21340  0.46850  Biso   1.000  C
  C48      1.0000 0.46480  0.19780  0.58340  Biso   1.000  C
  Cd5      1.0000 0.13389  0.36729  0.28570  Biso   1.000  Cd
  Br9      1.0000 0.46302  0.40105  0.87019  Biso   1.000  Br
  Br10     1.0000 0.86208  0.36746  0.69204  Biso   1.000  Br
  O17      1.0000 0.09530  0.50720  0.42830  Biso   1.000  O
  O18      1.0000 0.21560  0.42370  0.45000  Biso   1.000  O
  O19      1.0000 0.05100  0.32950  0.11740  Biso   1.000  O
  O20      1.0000 0.92380  0.28620  0.13440  Biso   1.000  O
  H29      1.0000 0.97370  0.47070  0.19370  Biso   1.000  H
  N9       1.0000 0.21870  0.54460  0.73530  Biso   1.000  N
  N10      1.0000 0.76130  0.22060  0.83310  Biso   1.000  N
  C49      1.0000 0.18070  0.53140  0.63520  Biso   1.000  C
  H30      1.0000 0.12210  0.55700  0.58840  Biso   1.000  H
  C50      1.0000 0.30200  0.50680  0.80280  Biso   1.000  C
  H31      1.0000 0.32950  0.51560  0.87300  Biso   1.000  H
  C51      1.0000 0.34750  0.45530  0.77040  Biso   1.000  C
  C52      1.0000 0.30940  0.44040  0.66660  Biso   1.000  C
  H32      1.0000 0.33960  0.40480  0.64450  Biso   1.000  H
  C53      1.0000 0.22460  0.48080  0.59760  Biso   1.000  C
  C54      1.0000 0.17430  0.46940  0.48170  Biso   1.000  C
  C55      1.0000 0.82390  0.23440  0.93360  Biso   1.000  C
  H33      1.0000 0.81430  0.20780  0.98160  Biso   1.000  H
  C56      1.0000 0.77550  0.25950  0.76490  Biso   1.000  C
  H34      1.0000 0.73230  0.25050  0.69500  Biso   1.000  H
  C57      1.0000 0.85170  0.31210  0.79470  Biso   1.000  C
  C58      1.0000 0.91800  0.32560  0.89730  Biso   1.000  C
  H35      1.0000 0.97150  0.35970  0.91830  Biso   1.000  H
  C59      1.0000 0.90240  0.28660  0.96850  Biso   1.000  C
  C60      1.0000 0.96480  0.30220  0.08340  Biso   1.000  C
  Cd6      1.0000 0.63389  0.86729  0.28570  Biso   1.000  Cd
  Br11     1.0000 0.96302  0.90105  0.87019  Biso   1.000  Br
  Br12     1.0000 0.36208  0.86746  0.69204  Biso   1.000  Br
  O21      1.0000 0.59530  0.00720  0.42830  Biso   1.000  O
  O22      1.0000 0.71560  0.92370  0.45000  Biso   1.000  O
  O23      1.0000 0.55100  0.82950  0.11740  Biso   1.000  O
  O24      1.0000 0.42380  0.78620  0.13440  Biso   1.000  O
  H36      1.0000 0.47370  0.97070  0.19370  Biso   1.000  H
  N11      1.0000 0.71870  0.04460  0.73530  Biso   1.000  N
  N12      1.0000 0.26130  0.72060  0.83310  Biso   1.000  N
  C61      1.0000 0.68070  0.03140  0.63520  Biso   1.000  C
  H37      1.0000 0.62210  0.05700  0.58840  Biso   1.000  H
  C62      1.0000 0.80200  0.00680  0.80280  Biso   1.000  C
  H38      1.0000 0.82950  0.01560  0.87300  Biso   1.000  H
  C63      1.0000 0.84750  0.95530  0.77040  Biso   1.000  C
  C64      1.0000 0.80940  0.94040  0.66660  Biso   1.000  C
  H39      1.0000 0.83960  0.90480  0.64450  Biso   1.000  H
  C65      1.0000 0.72460  0.98080  0.59760  Biso   1.000  C
  C66      1.0000 0.67430  0.96940  0.48170  Biso   1.000  C
  C67      1.0000 0.32390  0.73440  0.93360  Biso   1.000  C
  H40      1.0000 0.31430  0.70780  0.98160  Biso   1.000  H
  C68      1.0000 0.27550  0.75950  0.76490  Biso   1.000  C
  H41      1.0000 0.23230  0.75050  0.69500  Biso   1.000  H
  C69      1.0000 0.35170  0.81210  0.79470  Biso   1.000  C
  C70      1.0000 0.41800  0.82560  0.89730  Biso   1.000  C
  H42      1.0000 0.47150  0.85970  0.91830  Biso   1.000  H
  C71      1.0000 0.40240  0.78660  0.96850  Biso   1.000  C
  C72      1.0000 0.46480  0.80220  0.08340  Biso   1.000  C
  Cd7      1.0000 0.86611  0.36729  0.21430  Biso   1.000  Cd
  Br13     1.0000 0.53698  0.40105  0.62981  Biso   1.000  Br
  Br14     1.0000 0.13792  0.36746  0.80796  Biso   1.000  Br
  O25      1.0000 0.90470  0.50720  0.07170  Biso   1.000  O
  O26      1.0000 0.78440  0.42370  0.05000  Biso   1.000  O
  O27      1.0000 0.94900  0.32950  0.38260  Biso   1.000  O
  O28      1.0000 0.07620  0.28620  0.36560  Biso   1.000  O
  H43      1.0000 0.02630  0.47070  0.30630  Biso   1.000  H
  N13      1.0000 0.78130  0.54460  0.76470  Biso   1.000  N
  N14      1.0000 0.23870  0.22060  0.66690  Biso   1.000  N
  C73      1.0000 0.81930  0.53140  0.86480  Biso   1.000  C
  H44      1.0000 0.87790  0.55700  0.91160  Biso   1.000  H
  C74      1.0000 0.69800  0.50680  0.69720  Biso   1.000  C
  H45      1.0000 0.67050  0.51560  0.62700  Biso   1.000  H
  C75      1.0000 0.65250  0.45530  0.72960  Biso   1.000  C
  C76      1.0000 0.69060  0.44040  0.83340  Biso   1.000  C
  H46      1.0000 0.66040  0.40480  0.85550  Biso   1.000  H
  C77      1.0000 0.77540  0.48080  0.90240  Biso   1.000  C
  C78      1.0000 0.82570  0.46940  0.01830  Biso   1.000  C
  C79      1.0000 0.17610  0.23440  0.56640  Biso   1.000  C
  H47      1.0000 0.18570  0.20780  0.51840  Biso   1.000  H
  C80      1.0000 0.22450  0.25950  0.73510  Biso   1.000  C
  H48      1.0000 0.26770  0.25050  0.80500  Biso   1.000  H
  C81      1.0000 0.14830  0.31210  0.70530  Biso   1.000  C
  C82      1.0000 0.08200  0.32560  0.60270  Biso   1.000  C
  H49      1.0000 0.02850  0.35970  0.58170  Biso   1.000  H
  C83      1.0000 0.09760  0.28660  0.53150  Biso   1.000  C
  C84      1.0000 0.03520  0.30220  0.41660  Biso   1.000  C
  Cd8      1.0000 0.36611  0.86729  0.21430  Biso   1.000  Cd
  Br15     1.0000 0.03698  0.90105  0.62981  Biso   1.000  Br
  Br16     1.0000 0.63792  0.86746  0.80796  Biso   1.000  Br
  O29      1.0000 0.40470  0.00720  0.07170  Biso   1.000  O
  O30      1.0000 0.28440  0.92370  0.05000  Biso   1.000  O
  O31      1.0000 0.44900  0.82950  0.38260  Biso   1.000  O
  O32      1.0000 0.57620  0.78620  0.36560  Biso   1.000  O
  H50      1.0000 0.52630  0.97070  0.30630  Biso   1.000  H
  N15      1.0000 0.28130  0.04460  0.76470  Biso   1.000  N
  N16      1.0000 0.73870  0.72060  0.66690  Biso   1.000  N
  C85      1.0000 0.31930  0.03140  0.86480  Biso   1.000  C
  H51      1.0000 0.37790  0.05700  0.91160  Biso   1.000  H
  C86      1.0000 0.19800  0.00680  0.69720  Biso   1.000  C
  H52      1.0000 0.17050  0.01560  0.62700  Biso   1.000  H
  C87      1.0000 0.15250  0.95530  0.72960  Biso   1.000  C
  C88      1.0000 0.19060  0.94040  0.83340  Biso   1.000  C
  H53      1.0000 0.16040  0.90480  0.85550  Biso   1.000  H
  C89      1.0000 0.27540  0.98080  0.90240  Biso   1.000  C
  C90      1.0000 0.32570  0.96940  0.01830  Biso   1.000  C
  C91      1.0000 0.67610  0.73440  0.56640  Biso   1.000  C
  H54      1.0000 0.68570  0.70780  0.51840  Biso   1.000  H
  C92      1.0000 0.72450  0.75950  0.73510  Biso   1.000  C
  H55      1.0000 0.76770  0.75050  0.80500  Biso   1.000  H
  C93      1.0000 0.64830  0.81210  0.70530  Biso   1.000  C
  C94      1.0000 0.58200  0.82560  0.60270  Biso   1.000  C
  H56      1.0000 0.52850  0.85970  0.58170  Biso   1.000  H
  C95      1.0000 0.59760  0.78660  0.53150  Biso   1.000  C
  C96      1.0000 0.53520  0.80220  0.41660  Biso   1.000  C
  O33      1.0000 0.00000  0.55420  0.75000  Biso   1.000  O
  O34      1.0000 0.50000  0.05420  0.75000  Biso   1.000  O
  O35      1.0000 0.00000  0.44580  0.25000  Biso   1.000  O
  O36      1.0000 0.50000  0.94580  0.25000  Biso   1.000  O
