data_image0
_cell_length_a       9.54028
_cell_length_b       9.5403
_cell_length_c       26.6081
_cell_angle_alpha    82.89
_cell_angle_beta     82.8899
_cell_angle_gamma    108.034

_symmetry_space_group_name_H-M    P 1
_symmetry_int_tables_number       1

loop_
  _symmetry_equiv_pos_as_xyz
  'x, y, z'

loop_
  _atom_site_label
  _atom_site_occupancy
  _atom_site_fract_x
  _atom_site_fract_y
  _atom_site_fract_z
  _atom_site_thermal_displace_type
  _atom_site_B_iso_or_equiv
  _atom_site_type_symbol
  Cu1      1.0000 0.36683  0.43011  0.21194  Biso   1.000  Cu
  Cu2      1.0000 0.30271  0.96301  0.23274  Biso   1.000  Cu
  Cu3      1.0000 0.64205  0.57877  0.78806  Biso   1.000  Cu
  Cu4      1.0000 0.19575  0.53545  0.76726  Biso   1.000  Cu
  Cu5      1.0000 0.82877  0.39205  0.28806  Biso   1.000  Cu
  Cu6      1.0000 0.78545  0.94575  0.26726  Biso   1.000  Cu
  Cu7      1.0000 0.68011  0.11683  0.71194  Biso   1.000  Cu
  Cu8      1.0000 0.21301  0.05271  0.73274  Biso   1.000  Cu
  P1       1.0000 0.59326  0.60892  0.26942  Biso   1.000  P
  P2       1.0000 0.62430  0.18320  0.23470  Biso   1.000  P
  P3       1.0000 0.87834  0.86268  0.73058  Biso   1.000  P
  P4       1.0000 0.41790  0.85900  0.76530  Biso   1.000  P
  P5       1.0000 0.11268  0.62834  0.23058  Biso   1.000  P
  P6       1.0000 0.10900  0.16790  0.26530  Biso   1.000  P
  P7       1.0000 0.85892  0.34326  0.76942  Biso   1.000  P
  P8       1.0000 0.43320  0.37430  0.73470  Biso   1.000  P
  H1       1.0000 0.39910  0.29250  0.29160  Biso   1.000  H
  H2       1.0000 0.93050  0.61650  0.17880  Biso   1.000  H
  H3       1.0000 0.04780  0.54760  0.15480  Biso   1.000  H
  H4       1.0000 0.77680  0.31140  0.15680  Biso   1.000  H
  H5       1.0000 0.70710  0.41910  0.18320  Biso   1.000  H
  H6       1.0000 0.72710  0.50830  0.38060  Biso   1.000  H
  H7       1.0000 0.70860  0.45880  0.46840  Biso   1.000  H
  H8       1.0000 0.55350  0.27970  0.54640  Biso   1.000  H
  H9       1.0000 0.53030  0.22490  0.63340  Biso   1.000  H
  H10      1.0000 0.58410  0.69070  0.70840  Biso   1.000  H
  H11      1.0000 0.79530  0.10930  0.82120  Biso   1.000  H
  H12      1.0000 0.70240  0.20260  0.84520  Biso   1.000  H
  H13      1.0000 0.46820  0.93360  0.84320  Biso   1.000  H
  H14      1.0000 0.60230  0.89030  0.81680  Biso   1.000  H
  H15      1.0000 0.88890  0.10770  0.61940  Biso   1.000  H
  H16      1.0000 0.92720  0.17700  0.53160  Biso   1.000  H
  H17      1.0000 0.82610  0.09990  0.45360  Biso   1.000  H
  H18      1.0000 0.85830  0.16370  0.36660  Biso   1.000  H
  H19      1.0000 0.94070  0.33410  0.20840  Biso   1.000  H
  H20      1.0000 0.35930  0.54530  0.32120  Biso   1.000  H
  H21      1.0000 0.45260  0.45240  0.34520  Biso   1.000  H
  H22      1.0000 0.18360  0.21820  0.34320  Biso   1.000  H
  H23      1.0000 0.14030  0.35230  0.31680  Biso   1.000  H
  H24      1.0000 0.35770  0.63890  0.11940  Biso   1.000  H
  H25      1.0000 0.42700  0.67720  0.03160  Biso   1.000  H
  H26      1.0000 0.34990  0.57610  0.95360  Biso   1.000  H
  H27      1.0000 0.41370  0.60830  0.86660  Biso   1.000  H
  H28      1.0000 0.54250  0.14910  0.79160  Biso   1.000  H
  H29      1.0000 0.86650  0.68050  0.67880  Biso   1.000  H
  H30      1.0000 0.79760  0.79780  0.65480  Biso   1.000  H
  H31      1.0000 0.56140  0.52680  0.65680  Biso   1.000  H
  H32      1.0000 0.66910  0.45710  0.68320  Biso   1.000  H
  H33      1.0000 0.75830  0.47710  0.88060  Biso   1.000  H
  H34      1.0000 0.70880  0.45860  0.96840  Biso   1.000  H
  H35      1.0000 0.52970  0.30350  0.04640  Biso   1.000  H
  H36      1.0000 0.47490  0.28030  0.13340  Biso   1.000  H
  C1       1.0000 0.42600  0.48920  0.31340  Biso   1.000  C
  C2       1.0000 0.75210  0.34170  0.18940  Biso   1.000  C
  C3       1.0000 0.75170  0.42730  0.39520  Biso   1.000  C
  C4       1.0000 0.73620  0.39560  0.44820  Biso   1.000  C
  C5       1.0000 0.76166  0.27106  0.47088  Biso   1.000  C
  C6       1.0000 0.62450  0.24690  0.56060  Biso   1.000  C
  C7       1.0000 0.61070  0.21370  0.61280  Biso   1.000  C
  C8       1.0000 0.80260  0.73940  0.68660  Biso   1.000  C
  C9       1.0000 0.53110  0.94150  0.81060  Biso   1.000  C
  C10      1.0000 0.82250  0.14690  0.60480  Biso   1.000  C
  C11      1.0000 0.84380  0.18440  0.55180  Biso   1.000  C
  C12      1.0000 0.74194  0.23254  0.52912  Biso   1.000  C
  C13      1.0000 0.80750  0.18510  0.43940  Biso   1.000  C
  C14      1.0000 0.82650  0.22350  0.38720  Biso   1.000  C
  C15      1.0000 0.98940  0.55260  0.18660  Biso   1.000  C
  C16      1.0000 0.19150  0.28110  0.31060  Biso   1.000  C
  C17      1.0000 0.39690  0.57250  0.10480  Biso   1.000  C
  C18      1.0000 0.43440  0.59380  0.05180  Biso   1.000  C
  C19      1.0000 0.48254  0.49194  0.02912  Biso   1.000  C
  C20      1.0000 0.43510  0.55750  0.93940  Biso   1.000  C
  C21      1.0000 0.47350  0.57650  0.88720  Biso   1.000  C
  C22      1.0000 0.73920  0.17600  0.81340  Biso   1.000  C
  C23      1.0000 0.59170  0.50210  0.68940  Biso   1.000  C
  C24      1.0000 0.67730  0.50170  0.89520  Biso   1.000  C
  C25      1.0000 0.64560  0.48620  0.94820  Biso   1.000  C
  C26      1.0000 0.52106  0.51166  0.97088  Biso   1.000  C
  C27      1.0000 0.49690  0.37450  0.06060  Biso   1.000  C
  C28      1.0000 0.46370  0.36070  0.11280  Biso   1.000  C
  N1       1.0000 0.34951  0.35991  0.28818  Biso   1.000  N
  N2       1.0000 0.80006  0.34606  0.36468  Biso   1.000  N
  N3       1.0000 0.64809  0.63769  0.71182  Biso   1.000  N
  N4       1.0000 0.71074  0.16474  0.63532  Biso   1.000  N
  N5       1.0000 0.88769  0.39809  0.21182  Biso   1.000  N
  N6       1.0000 0.41474  0.46074  0.13532  Biso   1.000  N
  N7       1.0000 0.60991  0.09951  0.78818  Biso   1.000  N
  N8       1.0000 0.59606  0.55006  0.86468  Biso   1.000  N
  O1       1.0000 0.72849  0.57329  0.28262  Biso   1.000  O
  O2       1.0000 0.02535  0.54315  0.28370  Biso   1.000  O
  O3       1.0000 0.13163  0.79483  0.22354  Biso   1.000  O
  O4       1.0000 0.67749  0.04889  0.22922  Biso   1.000  O
  O5       1.0000 0.46577  0.15397  0.22326  Biso   1.000  O
  O6       1.0000 0.63921  0.23181  0.28678  Biso   1.000  O
  O7       1.0000 0.88251  0.82251  0.30778  Biso   1.000  O
  O8       1.0000 0.85591  0.01111  0.71738  Biso   1.000  O
  O9       1.0000 0.82685  0.30905  0.71630  Biso   1.000  O
  O10      1.0000 0.01837  0.35517  0.77646  Biso   1.000  O
  O11      1.0000 0.27811  0.90671  0.77078  Biso   1.000  O
  O12      1.0000 0.37723  0.68903  0.77674  Biso   1.000  O
  O13      1.0000 0.51859  0.92599  0.71322  Biso   1.000  O
  O14      1.0000 0.13029  0.19029  0.69222  Biso   1.000  O
  O15      1.0000 0.26111  0.60591  0.21738  Biso   1.000  O
  O16      1.0000 0.55905  0.57685  0.21630  Biso   1.000  O
  O17      1.0000 0.60517  0.76837  0.27646  Biso   1.000  O
  O18      1.0000 0.15671  0.02811  0.27078  Biso   1.000  O
  O19      1.0000 0.93903  0.12723  0.27674  Biso   1.000  O
  O20      1.0000 0.17599  0.26859  0.21322  Biso   1.000  O
  O21      1.0000 0.44029  0.88029  0.19222  Biso   1.000  O
  O22      1.0000 0.82329  0.47849  0.78262  Biso   1.000  O
  O23      1.0000 0.79315  0.77535  0.78370  Biso   1.000  O
  O24      1.0000 0.04483  0.88163  0.72354  Biso   1.000  O
  O25      1.0000 0.29889  0.42749  0.72922  Biso   1.000  O
  O26      1.0000 0.40397  0.21577  0.72326  Biso   1.000  O
  O27      1.0000 0.48181  0.38921  0.78678  Biso   1.000  O
  O28      1.0000 0.07251  0.63251  0.80778  Biso   1.000  O
