data_image0
_cell_length_a       11.0763
_cell_length_b       11.0763
_cell_length_c       27.4307
_cell_angle_alpha    90
_cell_angle_beta     90
_cell_angle_gamma    90

_symmetry_space_group_name_H-M    "P 1"
_symmetry_int_tables_number       1

loop_
  _symmetry_equiv_pos_as_xyz
  'x, y, z'

loop_
  _atom_site_label
  _atom_site_occupancy
  _atom_site_fract_x
  _atom_site_fract_y
  _atom_site_fract_z
  _atom_site_thermal_displace_type
  _atom_site_B_iso_or_equiv
  _atom_site_type_symbol
  H1       1.0000 0.39030  0.30000  0.00860  Biso   1.000  H
  O1       1.0000 0.36980  0.65620  0.99145  Biso   1.000  O
  H2       1.0000 0.30290  0.62670  0.97770  Biso   1.000  H
  H3       1.0000 0.35180  0.68380  0.02120  Biso   1.000  H
  H4       1.0000 0.34100  0.60570  0.78140  Biso   1.000  H
  O2       1.0000 0.65000  0.60280  0.74526  Biso   1.000  O
  H5       1.0000 0.71100  0.59800  0.75460  Biso   1.000  H
  H6       1.0000 0.63320  0.67940  0.73740  Biso   1.000  H
  N1       1.0000 0.53390  0.50280  0.92688  Biso   1.000  N
  N2       1.0000 0.59350  0.70630  0.91961  Biso   1.000  N
  N3       1.0000 0.53510  0.48460  0.82564  Biso   1.000  N
  C1       1.0000 0.51220  0.39680  0.90407  Biso   1.000  C
  H7       1.0000 0.49590  0.32700  0.92310  Biso   1.000  H
  C2       1.0000 0.51290  0.38720  0.85424  Biso   1.000  C
  H8       1.0000 0.49770  0.31110  0.83950  Biso   1.000  H
  C3       1.0000 0.55850  0.58840  0.84807  Biso   1.000  C
  H9       1.0000 0.57380  0.65830  0.82900  Biso   1.000  H
  C4       1.0000 0.56140  0.59800  0.89911  Biso   1.000  C
  C5       1.0000 0.66220  0.72080  0.96204  Biso   1.000  C
  C6       1.0000 0.74770  0.81230  0.96293  Biso   1.000  C
  H10      1.0000 0.86750  0.75170  0.06350  Biso   1.000  H
  H11      1.0000 0.60970  0.70000  0.50860  Biso   1.000  H
  O3       1.0000 0.63020  0.34380  0.49145  Biso   1.000  O
  H12      1.0000 0.69710  0.37330  0.47770  Biso   1.000  H
  H13      1.0000 0.64820  0.31620  0.52120  Biso   1.000  H
  H14      1.0000 0.65900  0.39430  0.28140  Biso   1.000  H
  O4       1.0000 0.35000  0.39720  0.24526  Biso   1.000  O
  H15      1.0000 0.28900  0.40200  0.25460  Biso   1.000  H
  H16      1.0000 0.36680  0.32060  0.23740  Biso   1.000  H
  N4       1.0000 0.46610  0.49720  0.42688  Biso   1.000  N
  N5       1.0000 0.40650  0.29370  0.41961  Biso   1.000  N
  N6       1.0000 0.46490  0.51540  0.32564  Biso   1.000  N
  C7       1.0000 0.48780  0.60320  0.40407  Biso   1.000  C
  H17      1.0000 0.50410  0.67300  0.42310  Biso   1.000  H
  C8       1.0000 0.48710  0.61280  0.35424  Biso   1.000  C
  H18      1.0000 0.50230  0.68890  0.33950  Biso   1.000  H
  C9       1.0000 0.44150  0.41160  0.34807  Biso   1.000  C
  H19      1.0000 0.42620  0.34170  0.32900  Biso   1.000  H
  C10      1.0000 0.43860  0.40200  0.39911  Biso   1.000  C
  C11      1.0000 0.33780  0.27920  0.46204  Biso   1.000  C
  C12      1.0000 0.25230  0.18770  0.46293  Biso   1.000  C
  H20      1.0000 0.13250  0.24830  0.56350  Biso   1.000  H
  H21      1.0000 0.20000  0.89030  0.75860  Biso   1.000  H
  O5       1.0000 0.84380  0.86980  0.74145  Biso   1.000  O
  H22      1.0000 0.87330  0.80290  0.72770  Biso   1.000  H
  H23      1.0000 0.81620  0.85180  0.77120  Biso   1.000  H
  H24      1.0000 0.89430  0.84100  0.53140  Biso   1.000  H
  O6       1.0000 0.89720  0.15000  0.49526  Biso   1.000  O
  H25      1.0000 0.90200  0.21100  0.50460  Biso   1.000  H
  H26      1.0000 0.82060  0.13320  0.48740  Biso   1.000  H
  N7       1.0000 0.99720  0.03390  0.67688  Biso   1.000  N
  N8       1.0000 0.79370  0.09350  0.66961  Biso   1.000  N
  N9       1.0000 0.01540  0.03510  0.57564  Biso   1.000  N
  C13      1.0000 0.10320  0.01220  0.65407  Biso   1.000  C
  H27      1.0000 0.17300  0.99590  0.67310  Biso   1.000  H
  C14      1.0000 0.11280  0.01290  0.60424  Biso   1.000  C
  H28      1.0000 0.18890  0.99770  0.58950  Biso   1.000  H
  C15      1.0000 0.91160  0.05850  0.59807  Biso   1.000  C
  H29      1.0000 0.84170  0.07380  0.57900  Biso   1.000  H
  C16      1.0000 0.90200  0.06140  0.64911  Biso   1.000  C
  C17      1.0000 0.77920  0.16220  0.71204  Biso   1.000  C
  C18      1.0000 0.68770  0.24770  0.71293  Biso   1.000  C
  H30      1.0000 0.74830  0.36750  0.81350  Biso   1.000  H
  H31      1.0000 0.80000  0.10970  0.25860  Biso   1.000  H
  O7       1.0000 0.15620  0.13020  0.24145  Biso   1.000  O
  H32      1.0000 0.12670  0.19710  0.22770  Biso   1.000  H
  H33      1.0000 0.18380  0.14820  0.27120  Biso   1.000  H
  H34      1.0000 0.10570  0.15900  0.03140  Biso   1.000  H
  O8       1.0000 0.10280  0.85000  0.99526  Biso   1.000  O
  H35      1.0000 0.09800  0.78900  0.00460  Biso   1.000  H
  H36      1.0000 0.17940  0.86680  0.98740  Biso   1.000  H
  N10      1.0000 0.00280  0.96610  0.17688  Biso   1.000  N
  N11      1.0000 0.20630  0.90650  0.16961  Biso   1.000  N
  N12      1.0000 0.98460  0.96490  0.07564  Biso   1.000  N
  C19      1.0000 0.89680  0.98780  0.15407  Biso   1.000  C
  H37      1.0000 0.82700  0.00410  0.17310  Biso   1.000  H
  C20      1.0000 0.88720  0.98710  0.10424  Biso   1.000  C
  H38      1.0000 0.81110  0.00230  0.08950  Biso   1.000  H
  C21      1.0000 0.08840  0.94150  0.09807  Biso   1.000  C
  H39      1.0000 0.15830  0.92620  0.07900  Biso   1.000  H
  C22      1.0000 0.09800  0.93860  0.14911  Biso   1.000  C
  C23      1.0000 0.22080  0.83780  0.21204  Biso   1.000  C
  C24      1.0000 0.31230  0.75230  0.21293  Biso   1.000  C
  H40      1.0000 0.25170  0.63250  0.31350  Biso   1.000  H
  H41      1.0000 0.10970  0.80000  0.74140  Biso   1.000  H
  O9       1.0000 0.13020  0.15620  0.75855  Biso   1.000  O
  H42      1.0000 0.19710  0.12670  0.77230  Biso   1.000  H
  H43      1.0000 0.14820  0.18380  0.72880  Biso   1.000  H
  H44      1.0000 0.15900  0.10570  0.96860  Biso   1.000  H
  O10      1.0000 0.85000  0.10280  0.00474  Biso   1.000  O
  H45      1.0000 0.78900  0.09800  0.99540  Biso   1.000  H
  H46      1.0000 0.86680  0.17940  0.01260  Biso   1.000  H
  N13      1.0000 0.96610  0.00280  0.82312  Biso   1.000  N
  N14      1.0000 0.90650  0.20630  0.83039  Biso   1.000  N
  N15      1.0000 0.96490  0.98460  0.92436  Biso   1.000  N
  C25      1.0000 0.98780  0.89680  0.84593  Biso   1.000  C
  H47      1.0000 0.00410  0.82700  0.82690  Biso   1.000  H
  C26      1.0000 0.98710  0.88720  0.89576  Biso   1.000  C
  H48      1.0000 0.00230  0.81110  0.91050  Biso   1.000  H
  C27      1.0000 0.94150  0.08840  0.90193  Biso   1.000  C
  H49      1.0000 0.92620  0.15830  0.92100  Biso   1.000  H
  C28      1.0000 0.93860  0.09800  0.85089  Biso   1.000  C
  C29      1.0000 0.83780  0.22080  0.78796  Biso   1.000  C
  C30      1.0000 0.75230  0.31230  0.78707  Biso   1.000  C
  H50      1.0000 0.63250  0.25170  0.68650  Biso   1.000  H
  H51      1.0000 0.89030  0.20000  0.24140  Biso   1.000  H
  O11      1.0000 0.86980  0.84380  0.25855  Biso   1.000  O
  H52      1.0000 0.80290  0.87330  0.27230  Biso   1.000  H
  H53      1.0000 0.85180  0.81620  0.22880  Biso   1.000  H
  H54      1.0000 0.84100  0.89430  0.46860  Biso   1.000  H
  O12      1.0000 0.15000  0.89720  0.50474  Biso   1.000  O
  H55      1.0000 0.21100  0.90200  0.49540  Biso   1.000  H
  H56      1.0000 0.13320  0.82060  0.51260  Biso   1.000  H
  N16      1.0000 0.03390  0.99720  0.32312  Biso   1.000  N
  N17      1.0000 0.09350  0.79370  0.33039  Biso   1.000  N
  N18      1.0000 0.03510  0.01540  0.42436  Biso   1.000  N
  C31      1.0000 0.01220  0.10320  0.34593  Biso   1.000  C
  H57      1.0000 0.99590  0.17300  0.32690  Biso   1.000  H
  C32      1.0000 0.01290  0.11280  0.39576  Biso   1.000  C
  H58      1.0000 0.99770  0.18890  0.41050  Biso   1.000  H
  C33      1.0000 0.05850  0.91160  0.40193  Biso   1.000  C
  H59      1.0000 0.07380  0.84170  0.42100  Biso   1.000  H
  C34      1.0000 0.06140  0.90200  0.35089  Biso   1.000  C
  C35      1.0000 0.16220  0.77920  0.28796  Biso   1.000  C
  C36      1.0000 0.24770  0.68770  0.28707  Biso   1.000  C
  H60      1.0000 0.36750  0.74830  0.18650  Biso   1.000  H
  H61      1.0000 0.30000  0.39030  0.99140  Biso   1.000  H
  O13      1.0000 0.65620  0.36980  0.00855  Biso   1.000  O
  H62      1.0000 0.62670  0.30290  0.02230  Biso   1.000  H
  H63      1.0000 0.68380  0.35180  0.97880  Biso   1.000  H
  H64      1.0000 0.60570  0.34100  0.21860  Biso   1.000  H
  O14      1.0000 0.60280  0.65000  0.25474  Biso   1.000  O
  H65      1.0000 0.59800  0.71100  0.24540  Biso   1.000  H
  H66      1.0000 0.67940  0.63320  0.26260  Biso   1.000  H
  N19      1.0000 0.50280  0.53390  0.07312  Biso   1.000  N
  N20      1.0000 0.70630  0.59350  0.08039  Biso   1.000  N
  N21      1.0000 0.48460  0.53510  0.17436  Biso   1.000  N
  C37      1.0000 0.39680  0.51220  0.09593  Biso   1.000  C
  H67      1.0000 0.32700  0.49590  0.07690  Biso   1.000  H
  C38      1.0000 0.38720  0.51290  0.14576  Biso   1.000  C
  H68      1.0000 0.31110  0.49770  0.16050  Biso   1.000  H
  C39      1.0000 0.58840  0.55850  0.15193  Biso   1.000  C
  H69      1.0000 0.65830  0.57380  0.17100  Biso   1.000  H
  C40      1.0000 0.59800  0.56140  0.10089  Biso   1.000  C
  C41      1.0000 0.72080  0.66220  0.03796  Biso   1.000  C
  C42      1.0000 0.81230  0.74770  0.03707  Biso   1.000  C
  H70      1.0000 0.75170  0.86750  0.93650  Biso   1.000  H
  H71      1.0000 0.70000  0.60970  0.49140  Biso   1.000  H
  O15      1.0000 0.34380  0.63020  0.50855  Biso   1.000  O
  H72      1.0000 0.37330  0.69710  0.52230  Biso   1.000  H
  H73      1.0000 0.31620  0.64820  0.47880  Biso   1.000  H
  H74      1.0000 0.39430  0.65900  0.71860  Biso   1.000  H
  O16      1.0000 0.39720  0.35000  0.75474  Biso   1.000  O
  H75      1.0000 0.40200  0.28900  0.74540  Biso   1.000  H
  H76      1.0000 0.32060  0.36680  0.76260  Biso   1.000  H
  N22      1.0000 0.49720  0.46610  0.57312  Biso   1.000  N
  N23      1.0000 0.29370  0.40650  0.58039  Biso   1.000  N
  N24      1.0000 0.51540  0.46490  0.67436  Biso   1.000  N
  C43      1.0000 0.60320  0.48780  0.59593  Biso   1.000  C
  H77      1.0000 0.67300  0.50410  0.57690  Biso   1.000  H
  C44      1.0000 0.61280  0.48710  0.64576  Biso   1.000  C
  H78      1.0000 0.68890  0.50230  0.66050  Biso   1.000  H
  C45      1.0000 0.41160  0.44150  0.65193  Biso   1.000  C
  H79      1.0000 0.34170  0.42620  0.67100  Biso   1.000  H
  C46      1.0000 0.40200  0.43860  0.60089  Biso   1.000  C
  C47      1.0000 0.27920  0.33780  0.53796  Biso   1.000  C
  C48      1.0000 0.18770  0.25230  0.53707  Biso   1.000  C
  H80      1.0000 0.24830  0.13250  0.43650  Biso   1.000  H
  Cu1      1.0000 0.51609  0.51609  0.00000  Biso   1.000  Cu
  O17      1.0000 0.38910  0.38910  0.00000  Biso   1.000  O
  N25      1.0000 0.64600  0.64600  0.00000  Biso   1.000  N
  N26      1.0000 0.82450  0.82450  0.00000  Biso   1.000  N
  Cu2      1.0000 0.48391  0.48391  0.50000  Biso   1.000  Cu
  O18      1.0000 0.61090  0.61090  0.50000  Biso   1.000  O
  N27      1.0000 0.35400  0.35400  0.50000  Biso   1.000  N
  N28      1.0000 0.17550  0.17550  0.50000  Biso   1.000  N
  Cu3      1.0000 0.98391  0.01609  0.75000  Biso   1.000  Cu
  O19      1.0000 0.11090  0.88910  0.75000  Biso   1.000  O
  N29      1.0000 0.85400  0.14600  0.75000  Biso   1.000  N
  N30      1.0000 0.67550  0.32450  0.75000  Biso   1.000  N
  Cu4      1.0000 0.01609  0.98391  0.25000  Biso   1.000  Cu
  O20      1.0000 0.88910  0.11090  0.25000  Biso   1.000  O
  N31      1.0000 0.14600  0.85400  0.25000  Biso   1.000  N
  N32      1.0000 0.32450  0.67550  0.25000  Biso   1.000  N
  Ni1      1.0000 0.52836  0.47164  0.75000  Biso   1.000  Ni
  O21      1.0000 0.38910  0.61090  0.75000  Biso   1.000  O
  Ni2      1.0000 0.47164  0.52836  0.25000  Biso   1.000  Ni
  O22      1.0000 0.61090  0.38910  0.25000  Biso   1.000  O
  Ni3      1.0000 0.02836  0.02836  0.50000  Biso   1.000  Ni
  O23      1.0000 0.88910  0.88910  0.50000  Biso   1.000  O
  Ni4      1.0000 0.97164  0.97164  0.00000  Biso   1.000  Ni
  O24      1.0000 0.11090  0.11090  0.00000  Biso   1.000  O
