data_image0
_cell_length_a       9.73
_cell_length_b       10.19
_cell_length_c       19.529
_cell_angle_alpha    78.011
_cell_angle_beta     80.4
_cell_angle_gamma    87.705

_symmetry_space_group_name_H-M    P 1
_symmetry_int_tables_number       1

loop_
  _symmetry_equiv_pos_as_xyz
  'x, y, z'

loop_
  _atom_site_label
  _atom_site_occupancy
  _atom_site_fract_x
  _atom_site_fract_y
  _atom_site_fract_z
  _atom_site_thermal_displace_type
  _atom_site_B_iso_or_equiv
  _atom_site_type_symbol
  Co1      1.0000 0.31389  0.60439  0.27743  Biso   1.000  Co
  Co2      1.0000 0.68611  0.39561  0.72257  Biso   1.000  Co
  Co3      1.0000 0.00000  0.00000  0.00000  Biso   1.000  Co
  H1       1.0000 0.29430  0.07180  0.26360  Biso   1.000  H
  H2       1.0000 0.26380  0.83300  0.45700  Biso   1.000  H
  H3       1.0000 0.23550  0.23340  0.43740  Biso   1.000  H
  H4       1.0000 0.15520  0.83810  0.57130  Biso   1.000  H
  H5       1.0000 0.31850  0.84840  0.56110  Biso   1.000  H
  H6       1.0000 0.42840  0.91160  0.65350  Biso   1.000  H
  H7       1.0000 0.41390  0.92190  0.77160  Biso   1.000  H
  H8       1.0000 0.99540  0.92020  0.79330  Biso   1.000  H
  H9       1.0000 0.01220  0.90180  0.67620  Biso   1.000  H
  H10      1.0000 0.56590  0.77970  0.19920  Biso   1.000  H
  H11      1.0000 0.79100  0.76410  0.14370  Biso   1.000  H
  H12      1.0000 0.77930  0.37060  0.22690  Biso   1.000  H
  H13      1.0000 0.55480  0.39680  0.27860  Biso   1.000  H
  H14      1.0000 0.99460  0.46080  0.15980  Biso   1.000  H
  H15      1.0000 0.01690  0.61600  0.14760  Biso   1.000  H
  H16      1.0000 0.91240  0.36480  0.07190  Biso   1.000  H
  H17      1.0000 0.78300  0.46170  0.06970  Biso   1.000  H
  H18      1.0000 0.14710  0.45840  0.05150  Biso   1.000  H
  H19      1.0000 0.16610  0.61460  0.03630  Biso   1.000  H
  H20      1.0000 0.05050  0.76570  0.23680  Biso   1.000  H
  H21      1.0000 0.82550  0.80750  0.28610  Biso   1.000  H
  H22      1.0000 0.86710  0.51570  0.45370  Biso   1.000  H
  H23      1.0000 0.09180  0.48220  0.39950  Biso   1.000  H
  H24      1.0000 0.61440  0.72210  0.37430  Biso   1.000  H
  H25      1.0000 0.67740  0.77740  0.43150  Biso   1.000  H
  H26      1.0000 0.49690  0.51830  0.40360  Biso   1.000  H
  H27      1.0000 0.64530  0.45150  0.40220  Biso   1.000  H
  H28      1.0000 0.52220  0.70260  0.53260  Biso   1.000  H
  H29      1.0000 0.42220  0.67130  0.48270  Biso   1.000  H
  H30      1.0000 0.26860  0.50160  0.19620  Biso   1.000  H
  H31      1.0000 0.33540  0.59990  0.14060  Biso   1.000  H
  H32      1.0000 0.18900  0.88900  0.07400  Biso   1.000  H
  H33      1.0000 0.21500  0.87500  0.00150  Biso   1.000  H
  H34      1.0000 0.92100  0.75000  0.01900  Biso   1.000  H
  H35      1.0000 0.86000  0.80700  0.96360  Biso   1.000  H
  H36      1.0000 0.70570  0.92820  0.73640  Biso   1.000  H
  H37      1.0000 0.73620  0.16700  0.54300  Biso   1.000  H
  H38      1.0000 0.76450  0.76660  0.56260  Biso   1.000  H
  H39      1.0000 0.84480  0.16190  0.42870  Biso   1.000  H
  H40      1.0000 0.68150  0.15160  0.43890  Biso   1.000  H
  H41      1.0000 0.57160  0.08840  0.34650  Biso   1.000  H
  H42      1.0000 0.58610  0.07810  0.22840  Biso   1.000  H
  H43      1.0000 0.00460  0.07980  0.20670  Biso   1.000  H
  H44      1.0000 0.98780  0.09820  0.32380  Biso   1.000  H
  H45      1.0000 0.43410  0.22030  0.80080  Biso   1.000  H
  H46      1.0000 0.20900  0.23590  0.85630  Biso   1.000  H
  H47      1.0000 0.22070  0.62940  0.77310  Biso   1.000  H
  H48      1.0000 0.44520  0.60320  0.72140  Biso   1.000  H
  H49      1.0000 0.00540  0.53920  0.84020  Biso   1.000  H
  H50      1.0000 0.98310  0.38400  0.85240  Biso   1.000  H
  H51      1.0000 0.08760  0.63520  0.92810  Biso   1.000  H
  H52      1.0000 0.21700  0.53830  0.93030  Biso   1.000  H
  H53      1.0000 0.85290  0.54160  0.94850  Biso   1.000  H
  H54      1.0000 0.83390  0.38540  0.96370  Biso   1.000  H
  H55      1.0000 0.94950  0.23430  0.76320  Biso   1.000  H
  H56      1.0000 0.17450  0.19250  0.71390  Biso   1.000  H
  H57      1.0000 0.13290  0.48430  0.54630  Biso   1.000  H
  H58      1.0000 0.90820  0.51780  0.60050  Biso   1.000  H
  H59      1.0000 0.38560  0.27790  0.62570  Biso   1.000  H
  H60      1.0000 0.32260  0.22260  0.56850  Biso   1.000  H
  H61      1.0000 0.50310  0.48170  0.59640  Biso   1.000  H
  H62      1.0000 0.35470  0.54850  0.59780  Biso   1.000  H
  H63      1.0000 0.47780  0.29740  0.46740  Biso   1.000  H
  H64      1.0000 0.57780  0.32870  0.51730  Biso   1.000  H
  H65      1.0000 0.73140  0.49840  0.80380  Biso   1.000  H
  H66      1.0000 0.66460  0.40010  0.85940  Biso   1.000  H
  H67      1.0000 0.81100  0.11100  0.92600  Biso   1.000  H
  H68      1.0000 0.78500  0.12500  0.99850  Biso   1.000  H
  H69      1.0000 0.07900  0.25000  0.98100  Biso   1.000  H
  H70      1.0000 0.14000  0.19300  0.03640  Biso   1.000  H
  C1       1.0000 0.26520  0.31190  0.29750  Biso   1.000  C
  C2       1.0000 0.26390  0.17420  0.34410  Biso   1.000  C
  C3       1.0000 0.28320  0.06200  0.31270  Biso   1.000  C
  C4       1.0000 0.28530  0.93590  0.35610  Biso   1.000  C
  C5       1.0000 0.31120  0.81300  0.32410  Biso   1.000  C
  C6       1.0000 0.26440  0.91880  0.42890  Biso   1.000  C
  C7       1.0000 0.24420  0.03070  0.46060  Biso   1.000  C
  C8       1.0000 0.24620  0.15810  0.41700  Biso   1.000  C
  C9       1.0000 0.23150  0.89210  0.57610  Biso   1.000  C
  C10      1.0000 0.22180  0.90510  0.65230  Biso   1.000  C
  C11      1.0000 0.34150  0.91200  0.68170  Biso   1.000  C
  C12      1.0000 0.33310  0.91940  0.75230  Biso   1.000  C
  C13      1.0000 0.20270  0.92320  0.79450  Biso   1.000  C
  C14      1.0000 0.08250  0.91730  0.76560  Biso   1.000  C
  C15      1.0000 0.09290  0.90720  0.69510  Biso   1.000  C
  C16      1.0000 0.19160  0.93270  0.87160  Biso   1.000  C
  C17      1.0000 0.60870  0.69580  0.20410  Biso   1.000  C
  C18      1.0000 0.74490  0.68740  0.17050  Biso   1.000  C
  C19      1.0000 0.81250  0.56350  0.17710  Biso   1.000  C
  C20      1.0000 0.73780  0.45510  0.21950  Biso   1.000  C
  C21      1.0000 0.60240  0.47170  0.25070  Biso   1.000  C
  C22      1.0000 0.95810  0.54770  0.13970  Biso   1.000  C
  C23      1.0000 0.87970  0.45150  0.04920  Biso   1.000  C
  C24      1.0000 0.11020  0.54350  0.02910  Biso   1.000  C
  C25      1.0000 0.01360  0.71460  0.28080  Biso   1.000  C
  C26      1.0000 0.87760  0.74060  0.31050  Biso   1.000  C
  C27      1.0000 0.81990  0.66760  0.37590  Biso   1.000  C
  C28      1.0000 0.90180  0.56810  0.40970  Biso   1.000  C
  C29      1.0000 0.03730  0.54830  0.37630  Biso   1.000  C
  C30      1.0000 0.67360  0.69960  0.41050  Biso   1.000  C
  C31      1.0000 0.56680  0.48240  0.43260  Biso   1.000  C
  C32      1.0000 0.49300  0.63340  0.51080  Biso   1.000  C
  C33      1.0000 0.73480  0.68810  0.70250  Biso   1.000  C
  C34      1.0000 0.73610  0.82580  0.65590  Biso   1.000  C
  C35      1.0000 0.71680  0.93800  0.68730  Biso   1.000  C
  C36      1.0000 0.71470  0.06410  0.64390  Biso   1.000  C
  C37      1.0000 0.68880  0.18700  0.67590  Biso   1.000  C
  C38      1.0000 0.73560  0.08120  0.57110  Biso   1.000  C
  C39      1.0000 0.75580  0.96930  0.53940  Biso   1.000  C
  C40      1.0000 0.75380  0.84190  0.58300  Biso   1.000  C
  C41      1.0000 0.76850  0.10790  0.42390  Biso   1.000  C
  C42      1.0000 0.77820  0.09490  0.34770  Biso   1.000  C
  C43      1.0000 0.65850  0.08800  0.31830  Biso   1.000  C
  C44      1.0000 0.66690  0.08060  0.24770  Biso   1.000  C
  C45      1.0000 0.79730  0.07680  0.20550  Biso   1.000  C
  C46      1.0000 0.91750  0.08270  0.23440  Biso   1.000  C
  C47      1.0000 0.90710  0.09280  0.30490  Biso   1.000  C
  C48      1.0000 0.80840  0.06730  0.12840  Biso   1.000  C
  C49      1.0000 0.39130  0.30420  0.79590  Biso   1.000  C
  C50      1.0000 0.25510  0.31260  0.82950  Biso   1.000  C
  C51      1.0000 0.18750  0.43650  0.82290  Biso   1.000  C
  C52      1.0000 0.26220  0.54490  0.78050  Biso   1.000  C
  C53      1.0000 0.39760  0.52830  0.74930  Biso   1.000  C
  C54      1.0000 0.04190  0.45230  0.86030  Biso   1.000  C
  C55      1.0000 0.12030  0.54850  0.95080  Biso   1.000  C
  C56      1.0000 0.88980  0.45650  0.97090  Biso   1.000  C
  C57      1.0000 0.98640  0.28540  0.71920  Biso   1.000  C
  C58      1.0000 0.12240  0.25940  0.68950  Biso   1.000  C
  C59      1.0000 0.18010  0.33240  0.62410  Biso   1.000  C
  C60      1.0000 0.09820  0.43190  0.59030  Biso   1.000  C
  C61      1.0000 0.96270  0.45170  0.62370  Biso   1.000  C
  C62      1.0000 0.32640  0.30040  0.58950  Biso   1.000  C
  C63      1.0000 0.43320  0.51760  0.56740  Biso   1.000  C
  C64      1.0000 0.50700  0.36660  0.48920  Biso   1.000  C
  N1       1.0000 0.53530  0.59070  0.24289  Biso   1.000  N
  N2       1.0000 0.96380  0.55890  0.06265  Biso   1.000  N
  N3       1.0000 0.09330  0.61910  0.31283  Biso   1.000  N
  N4       1.0000 0.61300  0.58860  0.46458  Biso   1.000  N
  N5       1.0000 0.46470  0.40930  0.75711  Biso   1.000  N
  N6       1.0000 0.03620  0.44110  0.93735  Biso   1.000  N
  N7       1.0000 0.90670  0.38090  0.68717  Biso   1.000  N
  N8       1.0000 0.38700  0.41140  0.53542  Biso   1.000  N
  O1       1.0000 0.30220  0.40590  0.32374  Biso   1.000  O
  O2       1.0000 0.23130  0.32550  0.23729  Biso   1.000  O
  O3       1.0000 0.32180  0.82280  0.25753  Biso   1.000  O
  O4       1.0000 0.32060  0.70040  0.36468  Biso   1.000  O
  O5       1.0000 0.08470  0.99450  0.89611  Biso   1.000  O
  O6       1.0000 0.28600  0.88280  0.90534  Biso   1.000  O
  O7       1.0000 0.22510  0.02440  0.53251  Biso   1.000  O
  O8       1.0000 0.27520  0.58480  0.17865  Biso   1.000  O
  O9       1.0000 0.88420  0.82460  0.00021  Biso   1.000  O
  O10      1.0000 0.15560  0.87290  0.03938  Biso   1.000  O
  O11      1.0000 0.69780  0.59410  0.67626  Biso   1.000  O
  O12      1.0000 0.76870  0.67450  0.76271  Biso   1.000  O
  O13      1.0000 0.67820  0.17720  0.74247  Biso   1.000  O
  O14      1.0000 0.67940  0.29960  0.63532  Biso   1.000  O
  O15      1.0000 0.91530  0.00550  0.10389  Biso   1.000  O
  O16      1.0000 0.71400  0.11720  0.09466  Biso   1.000  O
  O17      1.0000 0.77490  0.97560  0.46749  Biso   1.000  O
  O18      1.0000 0.72480  0.41520  0.82135  Biso   1.000  O
  O19      1.0000 0.11580  0.17540  0.99979  Biso   1.000  O
  O20      1.0000 0.84440  0.12710  0.96062  Biso   1.000  O
