data_image0
_cell_length_a       5.8751
_cell_length_b       15.067
_cell_length_c       16.416
_cell_angle_alpha    90
_cell_angle_beta     90
_cell_angle_gamma    90

_symmetry_space_group_name_H-M    P 1
_symmetry_int_tables_number       1

loop_
  _symmetry_equiv_pos_as_xyz
  'x, y, z'

loop_
  _atom_site_label
  _atom_site_occupancy
  _atom_site_fract_x
  _atom_site_fract_y
  _atom_site_fract_z
  _atom_site_thermal_displace_type
  _atom_site_B_iso_or_equiv
  _atom_site_type_symbol
  Cd1      1.0000 0.38700  0.58859  0.96366  Biso   1.000  Cd
  Cd2      1.0000 0.11300  0.41141  0.46366  Biso   1.000  Cd
  Cd3      1.0000 0.61300  0.08859  0.53634  Biso   1.000  Cd
  Cd4      1.0000 0.88700  0.91141  0.03634  Biso   1.000  Cd
  H1       1.0000 0.47080  0.38710  0.24610  Biso   1.000  H
  H2       1.0000 0.65200  0.37060  0.36920  Biso   1.000  H
  H3       1.0000 0.17710  0.50510  0.29220  Biso   1.000  H
  H4       1.0000 0.01190  0.52660  0.16740  Biso   1.000  H
  H5       1.0000 0.78670  0.55460  0.04860  Biso   1.000  H
  H6       1.0000 0.43530  0.47000  0.12370  Biso   1.000  H
  H7       1.0000 0.63730  0.42490  0.07760  Biso   1.000  H
  H8       1.0000 0.74230  0.63870  0.16270  Biso   1.000  H
  H9       1.0000 0.38190  0.70830  0.18270  Biso   1.000  H
  H10      1.0000 0.36850  0.60540  0.19650  Biso   1.000  H
  H11      1.0000 0.19000  0.69000  0.07100  Biso   1.000  H
  H12      1.0000 0.02920  0.61290  0.74610  Biso   1.000  H
  H13      1.0000 0.84800  0.62940  0.86920  Biso   1.000  H
  H14      1.0000 0.32290  0.49490  0.79220  Biso   1.000  H
  H15      1.0000 0.48810  0.47340  0.66740  Biso   1.000  H
  H16      1.0000 0.71330  0.44540  0.54860  Biso   1.000  H
  H17      1.0000 0.06470  0.53000  0.62370  Biso   1.000  H
  H18      1.0000 0.86270  0.57510  0.57760  Biso   1.000  H
  H19      1.0000 0.75770  0.36130  0.66270  Biso   1.000  H
  H20      1.0000 0.11810  0.29170  0.68270  Biso   1.000  H
  H21      1.0000 0.13150  0.39460  0.69650  Biso   1.000  H
  H22      1.0000 0.31000  0.31000  0.57100  Biso   1.000  H
  H23      1.0000 0.52920  0.88710  0.25390  Biso   1.000  H
  H24      1.0000 0.34800  0.87060  0.13080  Biso   1.000  H
  H25      1.0000 0.82290  0.00510  0.20780  Biso   1.000  H
  H26      1.0000 0.98810  0.02660  0.33260  Biso   1.000  H
  H27      1.0000 0.21330  0.05460  0.45140  Biso   1.000  H
  H28      1.0000 0.56470  0.97000  0.37630  Biso   1.000  H
  H29      1.0000 0.36270  0.92490  0.42240  Biso   1.000  H
  H30      1.0000 0.25770  0.13870  0.33730  Biso   1.000  H
  H31      1.0000 0.61810  0.20830  0.31730  Biso   1.000  H
  H32      1.0000 0.63150  0.10540  0.30350  Biso   1.000  H
  H33      1.0000 0.81000  0.19000  0.42900  Biso   1.000  H
  H34      1.0000 0.97080  0.11290  0.75390  Biso   1.000  H
  H35      1.0000 0.15200  0.12940  0.63080  Biso   1.000  H
  H36      1.0000 0.67710  0.99490  0.70780  Biso   1.000  H
  H37      1.0000 0.51190  0.97340  0.83260  Biso   1.000  H
  H38      1.0000 0.28670  0.94540  0.95140  Biso   1.000  H
  H39      1.0000 0.93530  0.03000  0.87630  Biso   1.000  H
  H40      1.0000 0.13730  0.07510  0.92240  Biso   1.000  H
  H41      1.0000 0.24230  0.86130  0.83730  Biso   1.000  H
  H42      1.0000 0.88190  0.79170  0.81730  Biso   1.000  H
  H43      1.0000 0.86850  0.89460  0.80350  Biso   1.000  H
  H44      1.0000 0.69000  0.81000  0.92900  Biso   1.000  H
  C1       1.0000 0.61350  0.41230  0.25430  Biso   1.000  C
  C2       1.0000 0.71900  0.46010  0.19270  Biso   1.000  C
  C3       1.0000 0.72380  0.40270  0.32820  Biso   1.000  C
  C4       1.0000 0.03270  0.48190  0.28290  Biso   1.000  C
  C5       1.0000 0.93520  0.49500  0.20760  Biso   1.000  C
  C6       1.0000 0.59770  0.47360  0.11360  Biso   1.000  C
  C7       1.0000 0.62900  0.64050  0.11890  Biso   1.000  C
  C8       1.0000 0.39250  0.65110  0.15580  Biso   1.000  C
  C9       1.0000 0.67870  0.71960  0.06320  Biso   1.000  C
  C10      1.0000 0.88650  0.58770  0.75430  Biso   1.000  C
  C11      1.0000 0.78100  0.53990  0.69270  Biso   1.000  C
  C12      1.0000 0.77620  0.59730  0.82820  Biso   1.000  C
  C13      1.0000 0.46730  0.51810  0.78290  Biso   1.000  C
  C14      1.0000 0.56480  0.50500  0.70760  Biso   1.000  C
  C15      1.0000 0.90230  0.52640  0.61360  Biso   1.000  C
  C16      1.0000 0.87100  0.35950  0.61890  Biso   1.000  C
  C17      1.0000 0.10750  0.34890  0.65580  Biso   1.000  C
  C18      1.0000 0.82130  0.28040  0.56320  Biso   1.000  C
  C19      1.0000 0.38650  0.91230  0.24570  Biso   1.000  C
  C20      1.0000 0.28100  0.96010  0.30730  Biso   1.000  C
  C21      1.0000 0.27620  0.90270  0.17180  Biso   1.000  C
  C22      1.0000 0.96730  0.98190  0.21710  Biso   1.000  C
  C23      1.0000 0.06480  0.99500  0.29240  Biso   1.000  C
  C24      1.0000 0.40230  0.97360  0.38640  Biso   1.000  C
  C25      1.0000 0.37100  0.14050  0.38110  Biso   1.000  C
  C26      1.0000 0.60750  0.15110  0.34420  Biso   1.000  C
  C27      1.0000 0.32130  0.21960  0.43680  Biso   1.000  C
  C28      1.0000 0.11350  0.08770  0.74570  Biso   1.000  C
  C29      1.0000 0.21900  0.03990  0.80730  Biso   1.000  C
  C30      1.0000 0.22380  0.09730  0.67180  Biso   1.000  C
  C31      1.0000 0.53270  0.01810  0.71710  Biso   1.000  C
  C32      1.0000 0.43520  0.00500  0.79240  Biso   1.000  C
  C33      1.0000 0.09770  0.02640  0.88640  Biso   1.000  C
  C34      1.0000 0.12900  0.85950  0.88110  Biso   1.000  C
  C35      1.0000 0.89250  0.84890  0.84420  Biso   1.000  C
  C36      1.0000 0.17870  0.78040  0.93680  Biso   1.000  C
  N1       1.0000 0.93110  0.43760  0.34330  Biso   1.000  N
  N2       1.0000 0.64430  0.55790  0.07020  Biso   1.000  N
  N3       1.0000 0.56890  0.56240  0.84330  Biso   1.000  N
  N4       1.0000 0.85570  0.44210  0.57020  Biso   1.000  N
  N5       1.0000 0.06890  0.93760  0.15670  Biso   1.000  N
  N6       1.0000 0.35570  0.05790  0.42980  Biso   1.000  N
  N7       1.0000 0.43110  0.06240  0.65670  Biso   1.000  N
  N8       1.0000 0.14430  0.94210  0.92980  Biso   1.000  N
  Cl1      1.0000 0.09910  0.46916  0.96741  Biso   1.000  Cl
  Cl2      1.0000 0.40090  0.53084  0.46741  Biso   1.000  Cl
  Cl3      1.0000 0.90090  0.96916  0.53259  Biso   1.000  Cl
  Cl4      1.0000 0.59910  0.03084  0.03259  Biso   1.000  Cl
  O1       1.0000 0.66360  0.70740  0.98762  Biso   1.000  O
  O2       1.0000 0.21950  0.64480  0.09460  Biso   1.000  O
  O3       1.0000 0.71810  0.79170  0.09764  Biso   1.000  O
  O4       1.0000 0.83640  0.29260  0.48762  Biso   1.000  O
  O5       1.0000 0.28050  0.35520  0.59460  Biso   1.000  O
  O6       1.0000 0.78190  0.20830  0.59764  Biso   1.000  O
  O7       1.0000 0.33640  0.20740  0.51238  Biso   1.000  O
  O8       1.0000 0.78050  0.14480  0.40540  Biso   1.000  O
  O9       1.0000 0.28190  0.29170  0.40236  Biso   1.000  O
  O10      1.0000 0.16360  0.79260  0.01238  Biso   1.000  O
  O11      1.0000 0.71950  0.85520  0.90540  Biso   1.000  O
  O12      1.0000 0.21810  0.70830  0.90236  Biso   1.000  O
