data_HEBPUB_charged
_audit_creation_date              2014-07-02
_audit_creation_method            'Materials Studio'
_symmetry_space_group_name_H-M    'P1'
_symmetry_Int_Tables_number       1
_symmetry_cell_setting            triclinic
loop_
_symmetry_equiv_pos_as_xyz
  x,y,z
_cell_length_a                    13.1698
_cell_length_b                    19.6747
_cell_length_c                    19.6747
_cell_angle_alpha                 64.8289
_cell_angle_beta                  77.1074
_cell_angle_gamma                 102.8930
loop_
_atom_site_label
_atom_site_type_symbol
_atom_site_fract_x
_atom_site_fract_y
_atom_site_fract_z
_atom_site_U_iso_or_equiv
_atom_site_adp_type
_atom_site_occupancy
Zn1    Zn    0.66214   0.49392   0.50503   0.01267  Uiso   1.00
Zn2    Zn    0.38361   0.27969   0.41189   0.01267  Uiso   1.00
Zn3    Zn    0.01680   0.55378   0.56471   0.01267  Uiso   1.00
Zn4    Zn    0.16717   0.50503   0.00105   0.01267  Uiso   1.00
Zn5    Zn    0.79550   0.41189   0.30842   0.01267  Uiso   1.00
Zn6    Zn    0.58151   0.56471   0.88151   0.01267  Uiso   1.00
Zn7    Zn    0.16822   0.00105   0.49392   0.01267  Uiso   1.00
Zn8    Zn    0.10392   0.30842   0.27969   0.01267  Uiso   1.00
Zn9    Zn    0.46302   0.88151   0.55378   0.01267  Uiso   1.00
Zn10   Zn    0.33786   0.50608   0.49497   0.01267  Uiso   1.00
Zn11   Zn    0.61639   0.72031   0.58811   0.01267  Uiso   1.00
Zn12   Zn    0.98320   0.44622   0.43529   0.01267  Uiso   1.00
Zn13   Zn    0.83283   0.49497   0.99895   0.01267  Uiso   1.00
Zn14   Zn    0.20450   0.58811   0.69158   0.01267  Uiso   1.00
Zn15   Zn    0.41849   0.43529   0.11849   0.01267  Uiso   1.00
Zn16   Zn    0.83178   0.99895   0.50608   0.01267  Uiso   1.00
Zn17   Zn    0.89608   0.69158   0.72031   0.01267  Uiso   1.00
Zn18   Zn    0.53698   0.11849   0.44622   0.01267  Uiso   1.00
P1     P     0.81104   0.42220   0.59021   0.01267  Uiso   1.00
P2     P     0.85400   0.54862   0.34493   0.01267  Uiso   1.00
P3     P     0.47780   0.41691   0.44701   0.01267  Uiso   1.00
P4     P     0.31542   0.40706   0.28851   0.01267  Uiso   1.00
P5     P     0.40125   0.59021   0.98759   0.01267  Uiso   1.00
P6     P     0.19893   0.34493   0.10645   0.01267  Uiso   1.00
P7     P     0.92481   0.44701   0.13608   0.01267  Uiso   1.00
P8     P     0.60393   0.28851   0.30443   0.01267  Uiso   1.00
P9     P     0.38884   0.98759   0.42220   0.01267  Uiso   1.00
P10    P     0.30538   0.10645   0.54862   0.01267  Uiso   1.00
P11    P     0.06089   0.13608   0.41691   0.01267  Uiso   1.00
P12    P     0.90836   0.30443   0.40706   0.01267  Uiso   1.00
P13    P     0.18896   0.57780   0.40979   0.01267  Uiso   1.00
P14    P     0.14600   0.45138   0.65507   0.01267  Uiso   1.00
P15    P     0.52220   0.58309   0.55299   0.01267  Uiso   1.00
P16    P     0.68458   0.59294   0.71149   0.01267  Uiso   1.00
P17    P     0.59875   0.40979   0.01241   0.01267  Uiso   1.00
P18    P     0.80107   0.65507   0.89355   0.01267  Uiso   1.00
P19    P     0.07519   0.55299   0.86392   0.01267  Uiso   1.00
P20    P     0.39607   0.71149   0.69557   0.01267  Uiso   1.00
P21    P     0.61116   0.01241   0.57780   0.01267  Uiso   1.00
P22    P     0.69462   0.89355   0.45138   0.01267  Uiso   1.00
P23    P     0.93911   0.86392   0.58309   0.01267  Uiso   1.00
P24    P     0.09164   0.69557   0.59294   0.01267  Uiso   1.00
H1     H     0.78820   0.37220   0.65970   0.01267  Uiso   1.00
H2     H     0.90000   0.61760   0.28500   0.01267  Uiso   1.00
H3     H     0.55010   0.47540   0.36540   0.01267  Uiso   1.00
H4     H     0.33840   0.47850   0.29890   0.01267  Uiso   1.00
H5     H     0.44790   0.65970   0.96810   0.01267  Uiso   1.00
H6     H     0.18500   0.28500   0.09740   0.01267  Uiso   1.00
H7     H     0.91550   0.36540   0.15920   0.01267  Uiso   1.00
H8     H     0.63730   0.29890   0.22260   0.01267  Uiso   1.00
H9     H     0.41600   0.96810   0.37220   0.01267  Uiso   1.00
H10    H     0.28240   0.09740   0.61760   0.01267  Uiso   1.00
H11    H     0.07470   0.15920   0.47540   0.01267  Uiso   1.00
H12    H     0.85990   0.22260   0.47850   0.01267  Uiso   1.00
H13    H     0.21180   0.62780   0.34030   0.01267  Uiso   1.00
H14    H     0.10000   0.38240   0.71500   0.01267  Uiso   1.00
H15    H     0.44990   0.52460   0.63460   0.01267  Uiso   1.00
H16    H     0.66160   0.52150   0.70110   0.01267  Uiso   1.00
H17    H     0.55210   0.34030   0.03190   0.01267  Uiso   1.00
H18    H     0.81500   0.71500   0.90260   0.01267  Uiso   1.00
H19    H     0.08450   0.63460   0.84080   0.01267  Uiso   1.00
H20    H     0.36270   0.70110   0.77740   0.01267  Uiso   1.00
H21    H     0.58400   0.03190   0.62780   0.01267  Uiso   1.00
H22    H     0.71760   0.90260   0.38240   0.01267  Uiso   1.00
H23    H     0.92530   0.84080   0.52460   0.01267  Uiso   1.00
H24    H     0.14010   0.77740   0.52150   0.01267  Uiso   1.00
O1     O     0.37043   0.43231   0.46148   0.01267  Uiso   1.00
O2     O     0.69908   0.41076   0.58132   0.01267  Uiso   1.00
O3     O     0.79820   0.56078   0.41208   0.01267  Uiso   1.00
O4     O     0.53924   0.42865   0.49853   0.01267  Uiso   1.00
O5     O     0.45869   0.33343   0.45866   0.01267  Uiso   1.00
O6     O     0.77256   0.49501   0.33023   0.01267  Uiso   1.00
O7     O     0.29188   0.33623   0.36858   0.01267  Uiso   1.00
O8     O     0.21453   0.40235   0.26376   0.01267  Uiso   1.00
O9     O     0.41683   0.42168   0.22339   0.01267  Uiso   1.00
O10    O     0.86561   0.50542   0.57539   0.01267  Uiso   1.00
O11    O     0.88389   0.39695   0.54348   0.01267  Uiso   1.00
O12    O     0.95305   0.52452   0.35227   0.01267  Uiso   1.00
O13    O     0.83191   0.46148   0.10621   0.01267  Uiso   1.00
O14    O     0.28040   0.58132   0.00792   0.01267  Uiso   1.00
O15    O     0.21028   0.41208   0.02714   0.01267  Uiso   1.00
O16    O     0.03777   0.49853   0.07282   0.01267  Uiso   1.00
O17    O     0.91735   0.45866   0.20791   0.01267  Uiso   1.00
O18    O     0.10279   0.33023   0.17476   0.01267  Uiso   1.00
O19    O     0.66046   0.36858   0.29519   0.01267  Uiso   1.00
O20    O     0.47829   0.26376   0.33389   0.01267  Uiso   1.00
O21    O     0.64022   0.22339   0.35493   0.01267  Uiso   1.00
O22    O     0.44100   0.57539   0.91919   0.01267  Uiso   1.00
O23    O     0.42737   0.54348   0.05957   0.01267  Uiso   1.00
O24    O     0.30532   0.35227   0.12321   0.01267  Uiso   1.00
O25    O     0.93812   0.10621   0.43231   0.01267  Uiso   1.00
O26    O     0.28832   0.00792   0.41076   0.01267  Uiso   1.00
O27    O     0.23742   0.02714   0.56078   0.01267  Uiso   1.00
O28    O     0.11059   0.07282   0.42865   0.01267  Uiso   1.00
O29    O     0.12526   0.20791   0.33343   0.01267  Uiso   1.00
O30    O     0.27755   0.17476   0.49501   0.01267  Uiso   1.00
O31    O     0.95565   0.29519   0.33623   0.01267  Uiso   1.00
O32    O     0.81218   0.33389   0.40235   0.01267  Uiso   1.00
O33    O     0.99515   0.35493   0.42168   0.01267  Uiso   1.00
O34    O     0.36019   0.91919   0.50542   0.01267  Uiso   1.00
O35    O     0.48694   0.05957   0.39695   0.01267  Uiso   1.00
O36    O     0.42853   0.12321   0.52452   0.01267  Uiso   1.00
O37    O     0.62957   0.56769   0.53852   0.01267  Uiso   1.00
O38    O     0.30092   0.58924   0.41868   0.01267  Uiso   1.00
O39    O     0.20180   0.43922   0.58792   0.01267  Uiso   1.00
O40    O     0.46076   0.57135   0.50147   0.01267  Uiso   1.00
O41    O     0.54131   0.66657   0.54134   0.01267  Uiso   1.00
O42    O     0.22744   0.50499   0.66977   0.01267  Uiso   1.00
O43    O     0.70812   0.66377   0.63142   0.01267  Uiso   1.00
O44    O     0.78547   0.59765   0.73624   0.01267  Uiso   1.00
O45    O     0.58317   0.57832   0.77661   0.01267  Uiso   1.00
O46    O     0.13439   0.49458   0.42461   0.01267  Uiso   1.00
O47    O     0.11611   0.60305   0.45652   0.01267  Uiso   1.00
O48    O     0.04695   0.47548   0.64773   0.01267  Uiso   1.00
O49    O     0.16809   0.53852   0.89379   0.01267  Uiso   1.00
O50    O     0.71960   0.41868   0.99208   0.01267  Uiso   1.00
O51    O     0.78972   0.58792   0.97286   0.01267  Uiso   1.00
O52    O     0.96223   0.50147   0.92718   0.01267  Uiso   1.00
O53    O     0.08265   0.54134   0.79209   0.01267  Uiso   1.00
O54    O     0.89721   0.66977   0.82524   0.01267  Uiso   1.00
O55    O     0.33954   0.63142   0.70481   0.01267  Uiso   1.00
O56    O     0.52171   0.73624   0.66611   0.01267  Uiso   1.00
O57    O     0.35978   0.77661   0.64507   0.01267  Uiso   1.00
O58    O     0.55900   0.42461   0.08081   0.01267  Uiso   1.00
O59    O     0.57263   0.45652   0.94043   0.01267  Uiso   1.00
O60    O     0.69468   0.64773   0.87679   0.01267  Uiso   1.00
O61    O     0.06188   0.89379   0.56769   0.01267  Uiso   1.00
O62    O     0.71168   0.99208   0.58924   0.01267  Uiso   1.00
O63    O     0.76258   0.97286   0.43922   0.01267  Uiso   1.00
O64    O     0.88941   0.92718   0.57135   0.01267  Uiso   1.00
O65    O     0.87474   0.79209   0.66657   0.01267  Uiso   1.00
O66    O     0.72245   0.82524   0.50499   0.01267  Uiso   1.00
O67    O     0.04435   0.70481   0.66377   0.01267  Uiso   1.00
O68    O     0.18782   0.66611   0.59765   0.01267  Uiso   1.00
O69    O     0.00485   0.64507   0.57832   0.01267  Uiso   1.00
O70    O     0.63981   0.08081   0.49458   0.01267  Uiso   1.00
O71    O     0.51306   0.94043   0.60305   0.01267  Uiso   1.00
O72    O     0.57147   0.87679   0.47548   0.01267  Uiso   1.00
H25    H     0.38430   0.24300   0.17470   0.01267  Uiso   1.00
H26    H     0.31890   0.06090   0.09070   0.01267  Uiso   1.00
H27    H     0.34240   0.20910   0.07960   0.01267  Uiso   1.00
H28    H     0.22520   0.14450   0.10740   0.01267  Uiso   1.00
H29    H     0.20610   0.15870   0.21460   0.01267  Uiso   1.00
H30    H     0.24400   0.08430   0.24040   0.01267  Uiso   1.00
H31    H     0.26640   0.18760   0.30140   0.01267  Uiso   1.00
H32    H     0.38180   0.21030   0.29620   0.01267  Uiso   1.00
H33    H     0.31530   0.12620   0.32940   0.01267  Uiso   1.00
C1     C     0.36398   0.18588   0.21304   0.01267  Uiso   1.00
C2     C     0.47080   0.16790   0.20010   0.01267  Uiso   1.00
C3     C     0.46860   0.09560   0.19350   0.01267  Uiso   1.00
C4     C     0.46020   0.10200   0.11710   0.01267  Uiso   1.00
C5     C     0.35150   0.09710   0.10530   0.01267  Uiso   1.00
C6     C     0.29400   0.15380   0.11790   0.01267  Uiso   1.00
C7     C     0.26778   0.14148   0.20224   0.01267  Uiso   1.00
N1     N     0.32846   0.17663   0.29265   0.01267  Uiso   1.00
H34    H     0.87510   0.77830   0.44810   0.01267  Uiso   1.00
H35    H     0.13900   0.92010   0.20350   0.01267  Uiso   1.00
H36    H     0.13440   0.89740   0.33170   0.01267  Uiso   1.00
H37    H     0.01090   0.89550   0.35110   0.01267  Uiso   1.00
H38    H     0.04330   0.75810   0.35410   0.01267  Uiso   1.00
H39    H     0.04950   0.76870   0.42800   0.01267  Uiso   1.00
H40    H     0.89560   0.66220   0.51950   0.01267  Uiso   1.00
H41    H     0.86630   0.63360   0.46690   0.01267  Uiso   1.00
H42    H     0.78470   0.64960   0.51530   0.01267  Uiso   1.00
C8     C     0.89550   0.74780   0.42240   0.01267  Uiso   1.00
C9     C     0.82840   0.75340   0.36830   0.01267  Uiso   1.00
C10    C     0.86490   0.83320   0.29420   0.01267  Uiso   1.00
C11    C     0.96670   0.86320   0.22940   0.01267  Uiso   1.00
C12    C     0.07010   0.89170   0.24530   0.01267  Uiso   1.00
C13    C     0.06170   0.87330   0.33160   0.01267  Uiso   1.00
C14    C     0.01850   0.78210   0.38560   0.01267  Uiso   1.00
N2     N     0.85677   0.66532   0.48731   0.01267  Uiso   1.00
H43    H     0.55900   0.17470   0.58230   0.01267  Uiso   1.00
H44    H     0.40960   0.09070   0.84840   0.01267  Uiso   1.00
H45    H     0.42200   0.07960   0.71130   0.01267  Uiso   1.00
H46    H     0.33260   0.10740   0.74810   0.01267  Uiso   1.00
H47    H     0.42070   0.21460   0.62670   0.01267  Uiso   1.00
H48    H     0.48440   0.24040   0.67530   0.01267  Uiso   1.00
H49    H     0.56780   0.30140   0.51100   0.01267  Uiso   1.00
H50    H     0.67800   0.29620   0.49350   0.01267  Uiso   1.00
H51    H     0.64470   0.32940   0.54440   0.01267  Uiso   1.00
C15    C     0.57702   0.21304   0.60108   0.01267  Uiso   1.00
C16    C     0.67090   0.20010   0.63200   0.01267  Uiso   1.00
C17    C     0.66210   0.19350   0.71090   0.01267  Uiso   1.00
C18    C     0.57730   0.11710   0.78090   0.01267  Uiso   1.00
C19    C     0.45680   0.10530   0.79760   0.01267  Uiso   1.00
C20    C     0.41190   0.11790   0.72830   0.01267  Uiso   1.00
C21    C     0.47002   0.20224   0.65628   0.01267  Uiso   1.00
N3     N     0.62111   0.29265   0.53072   0.01267  Uiso   1.00
H52    H     0.32320   0.44810   0.77360   0.01267  Uiso   1.00
H53    H     0.34250   0.20350   0.87640   0.01267  Uiso   1.00
H54    H     0.46610   0.33170   0.77090   0.01267  Uiso   1.00
H55    H     0.36200   0.35110   0.75340   0.01267  Uiso   1.00
H56    H     0.39740   0.35410   0.88780   0.01267  Uiso   1.00
H57    H     0.47750   0.42800   0.80330   0.01267  Uiso   1.00
H58    H     0.41510   0.51950   0.81830   0.01267  Uiso   1.00
H59    H     0.33320   0.46690   0.89950   0.01267  Uiso   1.00
H60    H     0.30000   0.51530   0.83510   0.01267  Uiso   1.00
C22    C     0.31790   0.42240   0.82980   0.01267  Uiso   1.00
C23    C     0.19670   0.36830   0.87830   0.01267  Uiso   1.00
C24    C     0.15910   0.29420   0.87260   0.01267  Uiso   1.00
C25    C     0.19610   0.22940   0.90740   0.01267  Uiso   1.00
C26    C     0.31540   0.24530   0.86300   0.01267  Uiso   1.00
C27    C     0.39330   0.33160   0.79510   0.01267  Uiso   1.00
C28    C     0.40410   0.38560   0.83230   0.01267  Uiso   1.00
N4     N     0.34408   0.48731   0.84737   0.01267  Uiso   1.00
H61    H     0.14130   0.58230   0.24300   0.01267  Uiso   1.00
H62    H     0.25800   0.84840   0.06090   0.01267  Uiso   1.00
H63    H     0.13330   0.71130   0.20910   0.01267  Uiso   1.00
H64    H     0.08070   0.74810   0.14450   0.01267  Uiso   1.00
H65    H     0.04740   0.62670   0.15870   0.01267  Uiso   1.00
H66    H     0.15970   0.67530   0.08430   0.01267  Uiso   1.00
H67    H     0.07880   0.51100   0.18760   0.01267  Uiso   1.00
H68    H     0.17150   0.49350   0.21030   0.01267  Uiso   1.00
H69    H     0.18910   0.54440   0.12620   0.01267  Uiso   1.00
C29    C     0.17810   0.60108   0.18588   0.01267  Uiso   1.00
C30    C     0.30290   0.63200   0.16790   0.01267  Uiso   1.00
C31    C     0.37300   0.71090   0.09560   0.01267  Uiso   1.00
C32    C     0.35820   0.78090   0.10200   0.01267  Uiso   1.00
C33    C     0.25440   0.79760   0.09710   0.01267  Uiso   1.00
C34    C     0.14020   0.72830   0.15380   0.01267  Uiso   1.00
C35    C     0.12630   0.65628   0.14148   0.01267  Uiso   1.00
N5     N     0.15183   0.53072   0.17663   0.01267  Uiso   1.00
H70    H     0.09680   0.77360   0.77830   0.01267  Uiso   1.00
H71    H     0.21890   0.87640   0.92010   0.01267  Uiso   1.00
H72    H     0.23700   0.77090   0.89740   0.01267  Uiso   1.00
H73    H     0.11540   0.75340   0.89550   0.01267  Uiso   1.00
H74    H     0.28520   0.88780   0.75810   0.01267  Uiso   1.00
H75    H     0.28080   0.80330   0.76870   0.01267  Uiso   1.00
H76    H     0.23340   0.81830   0.66220   0.01267  Uiso   1.00
H77    H     0.23270   0.89950   0.63360   0.01267  Uiso   1.00
H78    H     0.13510   0.83510   0.64960   0.01267  Uiso   1.00
C36    C     0.14770   0.82980   0.74780   0.01267  Uiso   1.00
C37    C     0.07500   0.87830   0.75340   0.01267  Uiso   1.00
C38    C     0.03170   0.87260   0.83320   0.01267  Uiso   1.00
C39    C     0.10350   0.90740   0.86320   0.01267  Uiso   1.00
C40    C     0.17840   0.86300   0.89170   0.01267  Uiso   1.00
C41    C     0.18840   0.79510   0.87330   0.01267  Uiso   1.00
C42    C     0.23640   0.83230   0.78210   0.01267  Uiso   1.00
N6     N     0.19145   0.84737   0.66532   0.01267  Uiso   1.00
H79    H     0.61570   0.75700   0.82530   0.01267  Uiso   1.00
H80    H     0.68110   0.93910   0.90930   0.01267  Uiso   1.00
H81    H     0.65760   0.79090   0.92040   0.01267  Uiso   1.00
H82    H     0.77480   0.85550   0.89260   0.01267  Uiso   1.00
H83    H     0.79390   0.84130   0.78540   0.01267  Uiso   1.00
H84    H     0.75600   0.91570   0.75960   0.01267  Uiso   1.00
H85    H     0.73360   0.81240   0.69860   0.01267  Uiso   1.00
H86    H     0.61820   0.78970   0.70380   0.01267  Uiso   1.00
H87    H     0.68470   0.87380   0.67060   0.01267  Uiso   1.00
C43    C     0.63602   0.81412   0.78696   0.01267  Uiso   1.00
C44    C     0.52920   0.83210   0.79990   0.01267  Uiso   1.00
C45    C     0.53140   0.90440   0.80650   0.01267  Uiso   1.00
C46    C     0.53980   0.89800   0.88290   0.01267  Uiso   1.00
C47    C     0.64850   0.90290   0.89470   0.01267  Uiso   1.00
C48    C     0.70600   0.84620   0.88210   0.01267  Uiso   1.00
C49    C     0.73222   0.85852   0.79776   0.01267  Uiso   1.00
N7     N     0.67154   0.82337   0.70735   0.01267  Uiso   1.00
H88    H     0.12490   0.22170   0.55190   0.01267  Uiso   1.00
H89    H     0.86100   0.07990   0.79650   0.01267  Uiso   1.00
H90    H     0.86560   0.10260   0.66830   0.01267  Uiso   1.00
H91    H     0.98910   0.10450   0.64890   0.01267  Uiso   1.00
H92    H     0.95670   0.24190   0.64590   0.01267  Uiso   1.00
H93    H     0.95050   0.23130   0.57200   0.01267  Uiso   1.00
H94    H     0.10440   0.33780   0.48050   0.01267  Uiso   1.00
H95    H     0.13370   0.36640   0.53310   0.01267  Uiso   1.00
H96    H     0.21530   0.35040   0.48470   0.01267  Uiso   1.00
C50    C     0.10450   0.25220   0.57760   0.01267  Uiso   1.00
C51    C     0.17160   0.24660   0.63170   0.01267  Uiso   1.00
C52    C     0.13510   0.16680   0.70580   0.01267  Uiso   1.00
C53    C     0.03330   0.13680   0.77060   0.01267  Uiso   1.00
C54    C     0.92990   0.10830   0.75470   0.01267  Uiso   1.00
C55    C     0.93830   0.12670   0.66840   0.01267  Uiso   1.00
C56    C     0.98150   0.21790   0.61440   0.01267  Uiso   1.00
N8     N     0.14323   0.33468   0.51269   0.01267  Uiso   1.00
H97    H     0.44100   0.82530   0.41770   0.01267  Uiso   1.00
H98    H     0.59040   0.90930   0.15160   0.01267  Uiso   1.00
H99    H     0.57800   0.92040   0.28870   0.01267  Uiso   1.00
H100   H     0.66740   0.89260   0.25190   0.01267  Uiso   1.00
H101   H     0.57930   0.78540   0.37330   0.01267  Uiso   1.00
H102   H     0.51560   0.75960   0.32470   0.01267  Uiso   1.00
H103   H     0.43220   0.69860   0.48900   0.01267  Uiso   1.00
H104   H     0.32200   0.70380   0.50650   0.01267  Uiso   1.00
H105   H     0.35530   0.67060   0.45560   0.01267  Uiso   1.00
C57    C     0.42298   0.78696   0.39892   0.01267  Uiso   1.00
C58    C     0.32910   0.79990   0.36800   0.01267  Uiso   1.00
C59    C     0.33790   0.80650   0.28910   0.01267  Uiso   1.00
C60    C     0.42270   0.88290   0.21910   0.01267  Uiso   1.00
C61    C     0.54320   0.89470   0.20240   0.01267  Uiso   1.00
C62    C     0.58810   0.88210   0.27170   0.01267  Uiso   1.00
C63    C     0.52998   0.79776   0.34372   0.01267  Uiso   1.00
N9     N     0.37889   0.70735   0.46928   0.01267  Uiso   1.00
H106   H     0.67680   0.55190   0.22640   0.01267  Uiso   1.00
H107   H     0.65750   0.79650   0.12360   0.01267  Uiso   1.00
H108   H     0.53390   0.66830   0.22910   0.01267  Uiso   1.00
H109   H     0.63800   0.64890   0.24660   0.01267  Uiso   1.00
H110   H     0.60260   0.64590   0.11220   0.01267  Uiso   1.00
H111   H     0.52250   0.57200   0.19670   0.01267  Uiso   1.00
H112   H     0.58490   0.48050   0.18170   0.01267  Uiso   1.00
H113   H     0.66680   0.53310   0.10050   0.01267  Uiso   1.00
H114   H     0.70000   0.48470   0.16490   0.01267  Uiso   1.00
C64    C     0.68210   0.57760   0.17020   0.01267  Uiso   1.00
C65    C     0.80330   0.63170   0.12170   0.01267  Uiso   1.00
C66    C     0.84090   0.70580   0.12740   0.01267  Uiso   1.00
C67    C     0.80390   0.77060   0.09260   0.01267  Uiso   1.00
C68    C     0.68460   0.75470   0.13700   0.01267  Uiso   1.00
C69    C     0.60670   0.66840   0.20490   0.01267  Uiso   1.00
C70    C     0.59590   0.61440   0.16770   0.01267  Uiso   1.00
N10    N     0.65592   0.51269   0.15263   0.01267  Uiso   1.00
H115   H     0.85870   0.41770   0.75700   0.01267  Uiso   1.00
H116   H     0.74200   0.15160   0.93910   0.01267  Uiso   1.00
H117   H     0.86670   0.28870   0.79090   0.01267  Uiso   1.00
H118   H     0.91930   0.25190   0.85550   0.01267  Uiso   1.00
H119   H     0.95260   0.37330   0.84130   0.01267  Uiso   1.00
H120   H     0.84030   0.32470   0.91570   0.01267  Uiso   1.00
H121   H     0.92120   0.48900   0.81240   0.01267  Uiso   1.00
H122   H     0.82850   0.50650   0.78970   0.01267  Uiso   1.00
H123   H     0.81090   0.45560   0.87380   0.01267  Uiso   1.00
C71    C     0.82190   0.39892   0.81412   0.01267  Uiso   1.00
C72    C     0.69710   0.36800   0.83210   0.01267  Uiso   1.00
C73    C     0.62700   0.28910   0.90440   0.01267  Uiso   1.00
C74    C     0.64180   0.21910   0.89800   0.01267  Uiso   1.00
C75    C     0.74560   0.20240   0.90290   0.01267  Uiso   1.00
C76    C     0.85980   0.27170   0.84620   0.01267  Uiso   1.00
C77    C     0.87370   0.34372   0.85852   0.01267  Uiso   1.00
N11    N     0.84817   0.46928   0.82337   0.01267  Uiso   1.00
H124   H     0.90320   0.22640   0.22170   0.01267  Uiso   1.00
H125   H     0.78110   0.12360   0.07990   0.01267  Uiso   1.00
H126   H     0.76300   0.22910   0.10260   0.01267  Uiso   1.00
H127   H     0.88460   0.24660   0.10450   0.01267  Uiso   1.00
H128   H     0.71480   0.11220   0.24190   0.01267  Uiso   1.00
H129   H     0.71920   0.19670   0.23130   0.01267  Uiso   1.00
H130   H     0.76660   0.18170   0.33780   0.01267  Uiso   1.00
H131   H     0.76730   0.10050   0.36640   0.01267  Uiso   1.00
H132   H     0.86490   0.16490   0.35040   0.01267  Uiso   1.00
C78    C     0.85230   0.17020   0.25220   0.01267  Uiso   1.00
C79    C     0.92500   0.12170   0.24660   0.01267  Uiso   1.00
C80    C     0.96830   0.12740   0.16680   0.01267  Uiso   1.00
C81    C     0.89650   0.09260   0.13680   0.01267  Uiso   1.00
C82    C     0.82160   0.13700   0.10830   0.01267  Uiso   1.00
C83    C     0.81160   0.20490   0.12670   0.01267  Uiso   1.00
C84    C     0.76360   0.16770   0.21790   0.01267  Uiso   1.00
N12    N     0.80855   0.15263   0.33468   0.01267  Uiso   1.00
