data_image0
_cell_length_a       7.336
_cell_length_b       11.316
_cell_length_c       17.653
_cell_angle_alpha    90
_cell_angle_beta     90.594
_cell_angle_gamma    90

_symmetry_space_group_name_H-M    P 1
_symmetry_int_tables_number       1

loop_
  _symmetry_equiv_pos_as_xyz
  'x, y, z'

loop_
  _atom_site_label
  _atom_site_occupancy
  _atom_site_fract_x
  _atom_site_fract_y
  _atom_site_fract_z
  _atom_site_thermal_displace_type
  _atom_site_B_iso_or_equiv
  _atom_site_type_symbol
  Zn1      1.0000 0.50000  0.50000  0.00000  Biso   1.000  Zn
  Zn2      1.0000 0.50000  0.00000  0.50000  Biso   1.000  Zn
  Zn3      1.0000 0.00000  0.50000  0.00000  Biso   1.000  Zn
  Zn4      1.0000 0.00000  0.00000  0.50000  Biso   1.000  Zn
  H1       1.0000 0.51800  0.31200  0.79380  Biso   1.000  H
  H2       1.0000 0.50300  0.20300  0.67770  Biso   1.000  H
  H3       1.0000 0.96200  0.51030  0.80890  Biso   1.000  H
  H4       1.0000 0.71200  0.52500  0.73180  Biso   1.000  H
  H5       1.0000 0.68400  0.41080  0.61950  Biso   1.000  H
  H6       1.0000 0.92800  0.29800  0.58200  Biso   1.000  H
  H7       1.0000 0.48200  0.81200  0.70620  Biso   1.000  H
  H8       1.0000 0.49700  0.70300  0.82230  Biso   1.000  H
  H9       1.0000 0.03800  0.01030  0.69110  Biso   1.000  H
  H10      1.0000 0.28800  0.02500  0.76820  Biso   1.000  H
  H11      1.0000 0.31600  0.91080  0.88050  Biso   1.000  H
  H12      1.0000 0.07200  0.79800  0.91800  Biso   1.000  H
  H13      1.0000 0.48200  0.68800  0.20620  Biso   1.000  H
  H14      1.0000 0.49700  0.79700  0.32230  Biso   1.000  H
  H15      1.0000 0.03800  0.48970  0.19110  Biso   1.000  H
  H16      1.0000 0.28800  0.47500  0.26820  Biso   1.000  H
  H17      1.0000 0.31600  0.58920  0.38050  Biso   1.000  H
  H18      1.0000 0.07200  0.70200  0.41800  Biso   1.000  H
  H19      1.0000 0.51800  0.18800  0.29380  Biso   1.000  H
  H20      1.0000 0.50300  0.29700  0.17770  Biso   1.000  H
  H21      1.0000 0.96200  0.98970  0.30890  Biso   1.000  H
  H22      1.0000 0.71200  0.97500  0.23180  Biso   1.000  H
  H23      1.0000 0.68400  0.08920  0.11950  Biso   1.000  H
  H24      1.0000 0.92800  0.20200  0.08200  Biso   1.000  H
  C1       1.0000 0.26350  0.37749  0.78946  Biso   1.000  C
  C2       1.0000 0.09220  0.32561  0.67341  Biso   1.000  C
  C3       1.0000 0.10180  0.38851  0.74324  Biso   1.000  C
  C4       1.0000 0.40050  0.25359  0.69394  Biso   1.000  C
  C5       1.0000 0.23360  0.17064  0.58448  Biso   1.000  C
  C6       1.0000 0.27370  0.42525  0.86928  Biso   1.000  C
  C7       1.0000 0.24390  0.25433  0.65113  Biso   1.000  C
  C8       1.0000 0.93280  0.33950  0.62739  Biso   1.000  C
  C9       1.0000 0.40970  0.31554  0.76297  Biso   1.000  C
  C10      1.0000 0.95470  0.46380  0.76326  Biso   1.000  C
  C11      1.0000 0.79430  0.41090  0.64931  Biso   1.000  C
  C12      1.0000 0.80500  0.47430  0.71739  Biso   1.000  C
  C13      1.0000 0.73650  0.87749  0.71054  Biso   1.000  C
  C14      1.0000 0.90780  0.82561  0.82659  Biso   1.000  C
  C15      1.0000 0.89820  0.88851  0.75676  Biso   1.000  C
  C16      1.0000 0.59950  0.75359  0.80606  Biso   1.000  C
  C17      1.0000 0.76640  0.67064  0.91552  Biso   1.000  C
  C18      1.0000 0.72630  0.92525  0.63072  Biso   1.000  C
  C19      1.0000 0.75610  0.75433  0.84887  Biso   1.000  C
  C20      1.0000 0.06720  0.83950  0.87261  Biso   1.000  C
  C21      1.0000 0.59030  0.81554  0.73703  Biso   1.000  C
  C22      1.0000 0.04530  0.96380  0.73674  Biso   1.000  C
  C23      1.0000 0.20570  0.91090  0.85069  Biso   1.000  C
  C24      1.0000 0.19500  0.97430  0.78261  Biso   1.000  C
  C25      1.0000 0.73650  0.62251  0.21054  Biso   1.000  C
  C26      1.0000 0.90780  0.67439  0.32659  Biso   1.000  C
  C27      1.0000 0.89820  0.61149  0.25676  Biso   1.000  C
  C28      1.0000 0.59950  0.74641  0.30606  Biso   1.000  C
  C29      1.0000 0.76640  0.82936  0.41552  Biso   1.000  C
  C30      1.0000 0.72630  0.57475  0.13072  Biso   1.000  C
  C31      1.0000 0.75610  0.74567  0.34887  Biso   1.000  C
  C32      1.0000 0.06720  0.66050  0.37261  Biso   1.000  C
  C33      1.0000 0.59030  0.68446  0.23703  Biso   1.000  C
  C34      1.0000 0.04530  0.53620  0.23674  Biso   1.000  C
  C35      1.0000 0.20570  0.58910  0.35069  Biso   1.000  C
  C36      1.0000 0.19500  0.52570  0.28261  Biso   1.000  C
  C37      1.0000 0.26350  0.12251  0.28946  Biso   1.000  C
  C38      1.0000 0.09220  0.17439  0.17341  Biso   1.000  C
  C39      1.0000 0.10180  0.11149  0.24324  Biso   1.000  C
  C40      1.0000 0.40050  0.24641  0.19394  Biso   1.000  C
  C41      1.0000 0.23360  0.32936  0.08448  Biso   1.000  C
  C42      1.0000 0.27370  0.07475  0.36928  Biso   1.000  C
  C43      1.0000 0.24390  0.24567  0.15113  Biso   1.000  C
  C44      1.0000 0.93280  0.16050  0.12739  Biso   1.000  C
  C45      1.0000 0.40970  0.18446  0.26297  Biso   1.000  C
  C46      1.0000 0.95470  0.03620  0.26326  Biso   1.000  C
  C47      1.0000 0.79430  0.08910  0.14931  Biso   1.000  C
  C48      1.0000 0.80500  0.02570  0.21739  Biso   1.000  C
  O1       1.0000 0.13195  0.41778  0.90846  Biso   1.000  O
  O2       1.0000 0.42596  0.46343  0.89198  Biso   1.000  O
  O3       1.0000 0.37568  0.15389  0.54703  Biso   1.000  O
  O4       1.0000 0.08289  0.12068  0.57435  Biso   1.000  O
  O5       1.0000 0.86805  0.91778  0.59154  Biso   1.000  O
  O6       1.0000 0.57404  0.96343  0.60802  Biso   1.000  O
  O7       1.0000 0.62432  0.65389  0.95297  Biso   1.000  O
  O8       1.0000 0.91711  0.62068  0.92565  Biso   1.000  O
  O9       1.0000 0.86805  0.58222  0.09154  Biso   1.000  O
  O10      1.0000 0.57404  0.53657  0.10802  Biso   1.000  O
  O11      1.0000 0.62432  0.84611  0.45297  Biso   1.000  O
  O12      1.0000 0.91711  0.87932  0.42565  Biso   1.000  O
  O13      1.0000 0.13195  0.08222  0.40846  Biso   1.000  O
  O14      1.0000 0.42596  0.03657  0.39198  Biso   1.000  O
  O15      1.0000 0.37568  0.34611  0.04703  Biso   1.000  O
  O16      1.0000 0.08289  0.37932  0.07435  Biso   1.000  O
