data_image0
_cell_length_a       10.8981
_cell_length_b       11.5452
_cell_length_c       13.4086
_cell_angle_alpha    69.399
_cell_angle_beta     79.959
_cell_angle_gamma    62.242

_symmetry_space_group_name_H-M    P 1
_symmetry_int_tables_number       1

loop_
  _symmetry_equiv_pos_as_xyz
  'x, y, z'

loop_
  _atom_site_label
  _atom_site_occupancy
  _atom_site_fract_x
  _atom_site_fract_y
  _atom_site_fract_z
  _atom_site_thermal_displace_type
  _atom_site_B_iso_or_equiv
  _atom_site_type_symbol
  Nd1      1.0000 0.62032  0.21632  0.77591  Biso   1.000  Nd
  Nd2      1.0000 0.37968  0.78368  0.22409  Biso   1.000  Nd
  U1       1.0000 0.36923  0.29599  0.16749  Biso   1.000  U
  U2       1.0000 0.63077  0.70401  0.83251  Biso   1.000  U
  U3       1.0000 0.00000  0.50000  0.50000  Biso   1.000  U
  H1       1.0000 0.18441  0.09619  0.73261  Biso   1.000  H
  H2       1.0000 0.70723  0.99898  0.41687  Biso   1.000  H
  H3       1.0000 0.09665  0.36347  0.95335  Biso   1.000  H
  H4       1.0000 0.81559  0.90381  0.26739  Biso   1.000  H
  H5       1.0000 0.29277  0.00102  0.58313  Biso   1.000  H
  H6       1.0000 0.90335  0.63653  0.04665  Biso   1.000  H
  C1       1.0000 0.41910  0.02900  0.81040  Biso   1.000  C
  C2       1.0000 0.91930  0.27740  0.71700  Biso   1.000  C
  C3       1.0000 0.03320  0.25800  0.78070  Biso   1.000  C
  C4       1.0000 0.27800  0.13570  0.82900  Biso   1.000  C
  C5       1.0000 0.00850  0.33780  0.84590  Biso   1.000  C
  C6       1.0000 0.25010  0.21560  0.89610  Biso   1.000  C
  C7       1.0000 0.16770  0.15460  0.77460  Biso   1.000  C
  C8       1.0000 0.25750  0.25560  0.49670  Biso   1.000  C
  C9       1.0000 0.52550  0.25260  0.38590  Biso   1.000  C
  C10      1.0000 0.87320  0.45700  0.84790  Biso   1.000  C
  C11      1.0000 0.35490  0.20080  0.96330  Biso   1.000  C
  C12      1.0000 0.62190  0.99950  0.45090  Biso   1.000  C
  C13      1.0000 0.38460  0.12460  0.49760  Biso   1.000  C
  C14      1.0000 0.50880  0.12440  0.44730  Biso   1.000  C
  C15      1.0000 0.11600  0.31230  0.90490  Biso   1.000  C
  C16      1.0000 0.58090  0.97100  0.18960  Biso   1.000  C
  C17      1.0000 0.08070  0.72260  0.28300  Biso   1.000  C
  C18      1.0000 0.96680  0.74200  0.21930  Biso   1.000  C
  C19      1.0000 0.72200  0.86430  0.17100  Biso   1.000  C
  C20      1.0000 0.99150  0.66220  0.15410  Biso   1.000  C
  C21      1.0000 0.74990  0.78440  0.10390  Biso   1.000  C
  C22      1.0000 0.83230  0.84540  0.22540  Biso   1.000  C
  C23      1.0000 0.74250  0.74440  0.50330  Biso   1.000  C
  C24      1.0000 0.47450  0.74740  0.61410  Biso   1.000  C
  C25      1.0000 0.12680  0.54300  0.15210  Biso   1.000  C
  C26      1.0000 0.64510  0.79920  0.03670  Biso   1.000  C
  C27      1.0000 0.37810  0.00050  0.54910  Biso   1.000  C
  C28      1.0000 0.61540  0.87540  0.50240  Biso   1.000  C
  C29      1.0000 0.49120  0.87560  0.55270  Biso   1.000  C
  C30      1.0000 0.88400  0.68770  0.09510  Biso   1.000  C
  O1       1.0000 0.90050  0.35680  0.62250  Biso   1.000  O
  O2       1.0000 0.49470  0.30700  0.28750  Biso   1.000  O
  O3       1.0000 0.31070  0.21500  0.05450  Biso   1.000  O
  O4       1.0000 0.42720  0.90980  0.82770  Biso   1.000  O
  O5       1.0000 0.77380  0.48640  0.79370  Biso   1.000  O
  O6       1.0000 0.45100  0.37910  0.06190  Biso   1.000  O
  O7       1.0000 0.05920  0.50280  0.61210  Biso   1.000  O
  O8       1.0000 0.28550  0.21410  0.27260  Biso   1.000  O
  O9       1.0000 0.26500  0.36780  0.47030  Biso   1.000  O
  O10      1.0000 0.85370  0.20850  0.76120  Biso   1.000  O
  O11      1.0000 0.14350  0.25030  0.52480  Biso   1.000  O
  O12      1.0000 0.51700  0.05980  0.77870  Biso   1.000  O
  O13      1.0000 0.85660  0.53040  0.90400  Biso   1.000  O
  O14      1.0000 0.47480  0.17910  0.93180  Biso   1.000  O
  O15      1.0000 0.62500  0.41210  0.61940  Biso   1.000  O
  O16      1.0000 0.70690  0.13720  0.61790  Biso   1.000  O
  O17      1.0000 0.79530  0.97350  0.83710  Biso   1.000  O
  O18      1.0000 0.49800  0.43430  0.82630  Biso   1.000  O
  O19      1.0000 0.39120  0.35700  0.67790  Biso   1.000  O
  O20      1.0000 0.71440  0.17250  0.95560  Biso   1.000  O
  O21      1.0000 0.57700  0.29720  0.42960  Biso   1.000  O
  O22      1.0000 0.09950  0.64320  0.37750  Biso   1.000  O
  O23      1.0000 0.50530  0.69300  0.71250  Biso   1.000  O
  O24      1.0000 0.68930  0.78500  0.94550  Biso   1.000  O
  O25      1.0000 0.57280  0.09020  0.17230  Biso   1.000  O
  O26      1.0000 0.22620  0.51360  0.20630  Biso   1.000  O
  O27      1.0000 0.54900  0.62090  0.93810  Biso   1.000  O
  O28      1.0000 0.94080  0.49720  0.38790  Biso   1.000  O
  O29      1.0000 0.71450  0.78590  0.72740  Biso   1.000  O
  O30      1.0000 0.73500  0.63220  0.52970  Biso   1.000  O
  O31      1.0000 0.14630  0.79150  0.23880  Biso   1.000  O
  O32      1.0000 0.85650  0.74970  0.47520  Biso   1.000  O
  O33      1.0000 0.48300  0.94020  0.22130  Biso   1.000  O
  O34      1.0000 0.14340  0.46960  0.09600  Biso   1.000  O
  O35      1.0000 0.52520  0.82090  0.06820  Biso   1.000  O
  O36      1.0000 0.37500  0.58790  0.38060  Biso   1.000  O
  O37      1.0000 0.29310  0.86280  0.38210  Biso   1.000  O
  O38      1.0000 0.20470  0.02650  0.16290  Biso   1.000  O
  O39      1.0000 0.50200  0.56570  0.17370  Biso   1.000  O
  O40      1.0000 0.60880  0.64300  0.32210  Biso   1.000  O
  O41      1.0000 0.28560  0.82750  0.04440  Biso   1.000  O
  O42      1.0000 0.42300  0.70280  0.57040  Biso   1.000  O
