data_image0
_cell_length_a       4.693
_cell_length_b       11.096
_cell_length_c       19.849
_cell_angle_alpha    90
_cell_angle_beta     90
_cell_angle_gamma    96.9

_symmetry_space_group_name_H-M    P 1
_symmetry_int_tables_number       1

loop_
  _symmetry_equiv_pos_as_xyz
  'x, y, z'

loop_
  _atom_site_label
  _atom_site_occupancy
  _atom_site_fract_x
  _atom_site_fract_y
  _atom_site_fract_z
  _atom_site_thermal_displace_type
  _atom_site_B_iso_or_equiv
  _atom_site_type_symbol
  Cu1      1.0000 0.28000  0.93580  0.83935  Biso   1.000  Cu
  Cu2      1.0000 0.72000  0.56420  0.33935  Biso   1.000  Cu
  Cu3      1.0000 0.72000  0.06420  0.16065  Biso   1.000  Cu
  Cu4      1.0000 0.28000  0.43580  0.66065  Biso   1.000  Cu
  H1       1.0000 0.23950  0.89720  0.58660  Biso   1.000  H
  H2       1.0000 0.41960  0.99150  0.68640  Biso   1.000  H
  H3       1.0000 0.56280  0.82240  0.94920  Biso   1.000  H
  H4       1.0000 0.24740  0.13290  0.94580  Biso   1.000  H
  H5       1.0000 0.76050  0.60280  0.08660  Biso   1.000  H
  H6       1.0000 0.58040  0.50850  0.18640  Biso   1.000  H
  H7       1.0000 0.43720  0.67760  0.44920  Biso   1.000  H
  H8       1.0000 0.75260  0.36710  0.44580  Biso   1.000  H
  H9       1.0000 0.76050  0.10280  0.41340  Biso   1.000  H
  H10      1.0000 0.58040  0.00850  0.31360  Biso   1.000  H
  H11      1.0000 0.43720  0.17760  0.05080  Biso   1.000  H
  H12      1.0000 0.75260  0.86710  0.05420  Biso   1.000  H
  H13      1.0000 0.23950  0.39720  0.91340  Biso   1.000  H
  H14      1.0000 0.41960  0.49150  0.81360  Biso   1.000  H
  H15      1.0000 0.56280  0.32240  0.55080  Biso   1.000  H
  H16      1.0000 0.24740  0.63290  0.55420  Biso   1.000  H
  C1       1.0000 0.03800  0.76300  0.74890  Biso   1.000  C
  C2       1.0000 0.93100  0.70800  0.69040  Biso   1.000  C
  C3       1.0000 0.18200  0.86000  0.63020  Biso   1.000  C
  C4       1.0000 0.28900  0.91900  0.68760  Biso   1.000  C
  C5       1.0000 0.97900  0.71200  0.81990  Biso   1.000  C
  C6       1.0000 0.74300  0.59000  0.68410  Biso   1.000  C
  C7       1.0000 0.53500  0.89900  0.96860  Biso   1.000  C
  C8       1.0000 0.35300  0.07700  0.96720  Biso   1.000  C
  C9       1.0000 0.96200  0.73700  0.24890  Biso   1.000  C
  C10      1.0000 0.06900  0.79200  0.19040  Biso   1.000  C
  C11      1.0000 0.81800  0.64000  0.13020  Biso   1.000  C
  C12      1.0000 0.71100  0.58100  0.18760  Biso   1.000  C
  C13      1.0000 0.02100  0.78800  0.31990  Biso   1.000  C
  C14      1.0000 0.25700  0.91000  0.18410  Biso   1.000  C
  C15      1.0000 0.46500  0.60100  0.46860  Biso   1.000  C
  C16      1.0000 0.64700  0.42300  0.46720  Biso   1.000  C
  C17      1.0000 0.96200  0.23700  0.25110  Biso   1.000  C
  C18      1.0000 0.06900  0.29200  0.30960  Biso   1.000  C
  C19      1.0000 0.81800  0.14000  0.36980  Biso   1.000  C
  C20      1.0000 0.71100  0.08100  0.31240  Biso   1.000  C
  C21      1.0000 0.02100  0.28800  0.18010  Biso   1.000  C
  C22      1.0000 0.25700  0.41000  0.31590  Biso   1.000  C
  C23      1.0000 0.46500  0.10100  0.03140  Biso   1.000  C
  C24      1.0000 0.64700  0.92300  0.03280  Biso   1.000  C
  C25      1.0000 0.03800  0.26300  0.75110  Biso   1.000  C
  C26      1.0000 0.93100  0.20800  0.80960  Biso   1.000  C
  C27      1.0000 0.18200  0.36000  0.86980  Biso   1.000  C
  C28      1.0000 0.28900  0.41900  0.81240  Biso   1.000  C
  C29      1.0000 0.97900  0.21200  0.68010  Biso   1.000  C
  C30      1.0000 0.74300  0.09000  0.81590  Biso   1.000  C
  C31      1.0000 0.53500  0.39900  0.53140  Biso   1.000  C
  C32      1.0000 0.35300  0.57700  0.53280  Biso   1.000  C
  N1       1.0000 0.21200  0.86740  0.74740  Biso   1.000  N
  N2       1.0000 0.00600  0.75800  0.63140  Biso   1.000  N
  N3       1.0000 0.39500  0.97500  0.93660  Biso   1.000  N
  N4       1.0000 0.78800  0.63260  0.24740  Biso   1.000  N
  N5       1.0000 0.99400  0.74200  0.13140  Biso   1.000  N
  N6       1.0000 0.60500  0.52500  0.43660  Biso   1.000  N
  N7       1.0000 0.78800  0.13260  0.25260  Biso   1.000  N
  N8       1.0000 0.99400  0.24200  0.36860  Biso   1.000  N
  N9       1.0000 0.60500  0.02500  0.06340  Biso   1.000  N
  N10      1.0000 0.21200  0.36740  0.75260  Biso   1.000  N
  N11      1.0000 0.00600  0.25800  0.86860  Biso   1.000  N
  N12      1.0000 0.39500  0.47500  0.56340  Biso   1.000  N
  O1       1.0000 0.10400  0.77450  0.86510  Biso   1.000  O
  O2       1.0000 0.83800  0.61310  0.82660  Biso   1.000  O
  O3       1.0000 0.47900  0.59370  0.69030  Biso   1.000  O
  O4       1.0000 0.85200  0.49830  0.66850  Biso   1.000  O
  O5       1.0000 0.89600  0.72550  0.36510  Biso   1.000  O
  O6       1.0000 0.16200  0.88690  0.32660  Biso   1.000  O
  O7       1.0000 0.52100  0.90630  0.19030  Biso   1.000  O
  O8       1.0000 0.14800  0.00170  0.16850  Biso   1.000  O
  O9       1.0000 0.89600  0.22550  0.13490  Biso   1.000  O
  O10      1.0000 0.16200  0.38690  0.17340  Biso   1.000  O
  O11      1.0000 0.52100  0.40630  0.30970  Biso   1.000  O
  O12      1.0000 0.14800  0.50170  0.33150  Biso   1.000  O
  O13      1.0000 0.10400  0.27450  0.63490  Biso   1.000  O
  O14      1.0000 0.83800  0.11310  0.67340  Biso   1.000  O
  O15      1.0000 0.47900  0.09370  0.80970  Biso   1.000  O
  O16      1.0000 0.85200  0.99830  0.83150  Biso   1.000  O
