data_image0
_cell_length_a       12.763
_cell_length_b       17.7075
_cell_length_c       17.7075
_cell_angle_alpha    65.5804
_cell_angle_beta     76.0984
_cell_angle_gamma    103.902

_symmetry_space_group_name_H-M    P 1
_symmetry_int_tables_number       1

loop_
  _symmetry_equiv_pos_as_xyz
  'x, y, z'

loop_
  _atom_site_label
  _atom_site_occupancy
  _atom_site_fract_x
  _atom_site_fract_y
  _atom_site_fract_z
  _atom_site_thermal_displace_type
  _atom_site_B_iso_or_equiv
  _atom_site_type_symbol
  Mn1      1.0000 0.86427  0.30059  0.16879  Biso   1.000  Mn
  Mn2      1.0000 0.53870  0.75149  0.82913  Biso   1.000  Mn
  Mn3      1.0000 0.03306  0.16879  0.53062  Biso   1.000  Mn
  Mn4      1.0000 0.36783  0.82913  0.41938  Biso   1.000  Mn
  Mn5      1.0000 0.56368  0.53062  0.30059  Biso   1.000  Mn
  Mn6      1.0000 0.78721  0.41938  0.75149  Biso   1.000  Mn
  Mo1      1.0000 0.71820  0.53319  0.99543  Biso   1.000  Mo
  Mo2      1.0000 0.71363  0.99543  0.47138  Biso   1.000  Mo
  Mo3      1.0000 0.18501  0.47138  0.53319  Biso   1.000  Mo
  H1       1.0000 0.53640  0.14360  0.23800  Biso   1.000  H
  H2       1.0000 0.60670  0.24160  0.15570  Biso   1.000  H
  H3       1.0000 0.52870  0.24680  0.28840  Biso   1.000  H
  H4       1.0000 0.59840  0.19170  0.33230  Biso   1.000  H
  H5       1.0000 0.73480  0.29980  0.34350  Biso   1.000  H
  H6       1.0000 0.66170  0.36000  0.32150  Biso   1.000  H
  H7       1.0000 0.75340  0.82190  0.88430  Biso   1.000  H
  H8       1.0000 0.81370  0.92590  0.81610  Biso   1.000  H
  H9       1.0000 0.05540  0.53440  0.91690  Biso   1.000  H
  H10      1.0000 0.27040  0.52830  0.08030  Biso   1.000  H
  H11      1.0000 0.82050  0.74760  0.68220  Biso   1.000  H
  H12      1.0000 0.74070  0.79820  0.64970  Biso   1.000  H
  H13      1.0000 0.82440  0.48090  0.20480  Biso   1.000  H
  H14      1.0000 0.86000  0.44460  0.28820  Biso   1.000  H
  H15      1.0000 0.37930  0.46310  0.02320  Biso   1.000  H
  H16      1.0000 0.02920  0.58260  0.15050  Biso   1.000  H
  H17      1.0000 0.15710  0.58730  0.11590  Biso   1.000  H
  H18      1.0000 0.08170  0.53520  0.21950  Biso   1.000  H
  H19      1.0000 0.65010  0.65620  0.67600  Biso   1.000  H
  H20      1.0000 0.66530  0.61140  0.76800  Biso   1.000  H
  H21      1.0000 0.81150  0.89930  0.69740  Biso   1.000  H
  H22      1.0000 0.88190  0.85030  0.74770  Biso   1.000  H
  H23      1.0000 0.84920  0.09600  0.16790  Biso   1.000  H
  H24      1.0000 0.88890  0.14460  0.06260  Biso   1.000  H
  H25      1.0000 0.28410  0.33220  0.02610  Biso   1.000  H
  H26      1.0000 0.05360  0.12660  0.09350  Biso   1.000  H
  H27      1.0000 0.17270  0.19000  0.08220  Biso   1.000  H
  H28      1.0000 0.13710  0.21030  0.99930  Biso   1.000  H
  H29      1.0000 0.09050  0.64810  0.95050  Biso   1.000  H
  H30      1.0000 0.41270  0.52470  0.73860  Biso   1.000  H
  H31      1.0000 0.36680  0.46380  0.84330  Biso   1.000  H
  H32      1.0000 0.50110  0.50510  0.78470  Biso   1.000  H
  H33      1.0000 0.62460  0.92510  0.91400  Biso   1.000  H
  H34      1.0000 0.58030  0.82000  0.96640  Biso   1.000  H
  H35      1.0000 0.20860  0.50540  0.85220  Biso   1.000  H
  H36      1.0000 0.22260  0.79780  0.00480  Biso   1.000  H
  H37      1.0000 0.14080  0.75570  0.96720  Biso   1.000  H
  H38      1.0000 0.23500  0.85390  0.90550  Biso   1.000  H
  H39      1.0000 0.75490  0.21310  0.06840  Biso   1.000  H
  H40      1.0000 0.68630  0.10910  0.13420  Biso   1.000  H
  H41      1.0000 0.41520  0.85210  0.98020  Biso   1.000  H
  H42      1.0000 0.46330  0.91990  0.87610  Biso   1.000  H
  H43      1.0000 0.77440  0.23800  0.61840  Biso   1.000  H
  H44      1.0000 0.76240  0.15570  0.60270  Biso   1.000  H
  H45      1.0000 0.81710  0.28840  0.46480  Biso   1.000  H
  H46      1.0000 0.93070  0.33230  0.47600  Biso   1.000  H
  H47      1.0000 0.07830  0.34350  0.35670  Biso   1.000  H
  H48      1.0000 0.98320  0.32150  0.31850  Biso   1.000  H
  H49      1.0000 0.63770  0.88430  0.29380  Biso   1.000  H
  H50      1.0000 0.62980  0.81610  0.25800  Biso   1.000  H
  H51      1.0000 0.97230  0.91690  0.54870  Biso   1.000  H
  H52      1.0000 0.35070  0.08030  0.39140  Biso   1.000  H
  H53      1.0000 0.50270  0.68220  0.57020  Biso   1.000  H
  H54      1.0000 0.39040  0.64970  0.55210  Biso   1.000  H
  H55      1.0000 0.02920  0.20480  0.31430  Biso   1.000  H
  H56      1.0000 0.14820  0.28820  0.26720  Biso   1.000  H
  H57      1.0000 0.40250  0.02320  0.51370  Biso   1.000  H
  H58      1.0000 0.17970  0.15050  0.26690  Biso   1.000  H
  H59      1.0000 0.27300  0.11590  0.29680  Biso   1.000  H
  H60      1.0000 0.30120  0.21950  0.24530  Biso   1.000  H
  H61      1.0000 0.32610  0.67600  0.66780  Biso   1.000  H
  H62      1.0000 0.43330  0.76800  0.62060  Biso   1.000  H
  H63      1.0000 0.50890  0.69740  0.40330  Biso   1.000  H
  H64      1.0000 0.62960  0.74770  0.40200  Biso   1.000  H
  H65      1.0000 0.01710  0.16790  0.73610  Biso   1.000  H
  H66      1.0000 0.95150  0.06260  0.79280  Biso   1.000  H
  H67      1.0000 0.31020  0.02610  0.64170  Biso   1.000  H
  H68      1.0000 0.14710  0.09350  0.77990  Biso   1.000  H
  H69      1.0000 0.25490  0.08220  0.72780  Biso   1.000  H
  H70      1.0000 0.13640  0.99930  0.79040  Biso   1.000  H
  H71      1.0000 0.04100  0.95050  0.40140  Biso   1.000  H
  H72      1.0000 0.15130  0.73860  0.73670  Biso   1.000  H
  H73      1.0000 0.21010  0.84330  0.69290  Biso   1.000  H
  H74      1.0000 0.28580  0.78470  0.71020  Biso   1.000  H
  H75      1.0000 0.53860  0.91400  0.16090  Biso   1.000  H
  H76      1.0000 0.54670  0.96640  0.21360  Biso   1.000  H
  H77      1.0000 0.06080  0.85220  0.64240  Biso   1.000  H
  H78      1.0000 0.22740  0.00480  0.19740  Biso   1.000  H
  H79      1.0000 0.10800  0.96720  0.27710  Biso   1.000  H
  H80      1.0000 0.14050  0.90550  0.24060  Biso   1.000  H
  H81      1.0000 0.82330  0.06840  0.71850  Biso   1.000  H
  H82      1.0000 0.82050  0.13420  0.75670  Biso   1.000  H
  H83      1.0000 0.39540  0.98020  0.16770  Biso   1.000  H
  H84      1.0000 0.33940  0.87610  0.20400  Biso   1.000  H
  H85      1.0000 0.39280  0.61840  0.14360  Biso   1.000  H
  H86      1.0000 0.36510  0.60270  0.24160  Biso   1.000  H
  H87      1.0000 0.28190  0.46480  0.24680  Biso   1.000  H
  H88      1.0000 0.40670  0.47600  0.19170  Biso   1.000  H
  H89      1.0000 0.43500  0.35670  0.29980  Biso   1.000  H
  H90      1.0000 0.30170  0.31850  0.36000  Biso   1.000  H
  H91      1.0000 0.93150  0.29380  0.82190  Biso   1.000  H
  H92      1.0000 0.88780  0.25800  0.92590  Biso   1.000  H
  H93      1.0000 0.52100  0.54870  0.53440  Biso   1.000  H
  H94      1.0000 0.74210  0.39140  0.52830  Biso   1.000  H
  H95      1.0000 0.07290  0.57020  0.74760  Biso   1.000  H
  H96      1.0000 0.94250  0.55210  0.79820  Biso   1.000  H
  H97      1.0000 0.34350  0.31430  0.48090  Biso   1.000  H
  H98      1.0000 0.41540  0.26720  0.44460  Biso   1.000  H
  H99      1.0000 0.91620  0.51370  0.46310  Biso   1.000  H
  H100     1.0000 0.44660  0.26690  0.58260  Biso   1.000  H
  H101     1.0000 0.56980  0.29680  0.58730  Biso   1.000  H
  H102     1.0000 0.54650  0.24530  0.53520  Biso   1.000  H
  H103     1.0000 0.99390  0.66780  0.65620  Biso   1.000  H
  H104     1.0000 0.05390  0.62060  0.61140  Biso   1.000  H
  H105     1.0000 0.91220  0.40330  0.89930  Biso   1.000  H
  H106     1.0000 0.03160  0.40200  0.85030  Biso   1.000  H
  H107     1.0000 0.75320  0.73610  0.09600  Biso   1.000  H
  H108     1.0000 0.74430  0.79280  0.14460  Biso   1.000  H
  H109     1.0000 0.95190  0.64170  0.33220  Biso   1.000  H
  H110     1.0000 0.92700  0.77990  0.12660  Biso   1.000  H
  H111     1.0000 0.98270  0.72780  0.19000  Biso   1.000  H
  H112     1.0000 0.92680  0.79040  0.21030  Biso   1.000  H
  H113     1.0000 0.44240  0.40140  0.64810  Biso   1.000  H
  H114     1.0000 0.88800  0.73670  0.52470  Biso   1.000  H
  H115     1.0000 0.90300  0.69290  0.46380  Biso   1.000  H
  H116     1.0000 0.99600  0.71020  0.50510  Biso   1.000  H
  H117     1.0000 0.69950  0.16090  0.92510  Biso   1.000  H
  H118     1.0000 0.76030  0.21360  0.82000  Biso   1.000  H
  H119     1.0000 0.70320  0.64240  0.50540  Biso   1.000  H
  H120     1.0000 0.42480  0.19740  0.79780  Biso   1.000  H
  H121     1.0000 0.38510  0.27710  0.75570  Biso   1.000  H
  H122     1.0000 0.38110  0.24060  0.85390  Biso   1.000  H
  H123     1.0000 0.54180  0.71850  0.21310  Biso   1.000  H
  H124     1.0000 0.57720  0.75670  0.10910  Biso   1.000  H
  H125     1.0000 0.56310  0.16770  0.85210  Biso   1.000  H
  H126     1.0000 0.54340  0.20400  0.91990  Biso   1.000  H
  C1       1.0000 0.60520  0.19800  0.21200  Biso   1.000  C
  C2       1.0000 0.33440  0.60440  0.84590  Biso   1.000  C
  C3       1.0000 0.59950  0.23500  0.27600  Biso   1.000  C
  C4       1.0000 0.04950  0.24350  0.08410  Biso   1.000  C
  C5       1.0000 0.03450  0.46670  0.15790  Biso   1.000  C
  C6       1.0000 0.81390  0.44940  0.02360  Biso   1.000  C
  C7       1.0000 0.12250  0.32480  0.08110  Biso   1.000  C
  C8       1.0000 0.60530  0.60560  0.97250  Biso   1.000  C
  C9       1.0000 0.72630  0.34720  0.29520  Biso   1.000  C
  C10      1.0000 0.66020  0.50480  0.13000  Biso   1.000  C
  C11      1.0000 0.85120  0.63630  0.86790  Biso   1.000  C
  C12      1.0000 0.75970  0.86930  0.82820  Biso   1.000  C
  C13      1.0000 0.30510  0.75930  0.92250  Biso   1.000  C
  C14      1.0000 0.13160  0.56880  0.90420  Biso   1.000  C
  C15      1.0000 0.23360  0.47570  0.08110  Biso   1.000  C
  C16      1.0000 0.74390  0.75000  0.70050  Biso   1.000  C
  C17      1.0000 0.26700  0.68610  0.90420  Biso   1.000  C
  C18      1.0000 0.83690  0.43040  0.24580  Biso   1.000  C
  C19      1.0000 0.29810  0.43720  0.04680  Biso   1.000  C
  C20      1.0000 0.07970  0.55040  0.16120  Biso   1.000  C
  C21      1.0000 0.64990  0.66110  0.72860  Biso   1.000  C
  C22      1.0000 0.80490  0.85170  0.75360  Biso   1.000  C
  C23      1.0000 0.86000  0.15010  0.11520  Biso   1.000  C
  C24      1.0000 0.24170  0.35990  0.04780  Biso   1.000  C
  C25      1.0000 0.10850  0.18770  0.06280  Biso   1.000  C
  C26      1.0000 0.15200  0.63610  0.92410  Biso   1.000  C
  C27      1.0000 0.42970  0.51530  0.79100  Biso   1.000  C
  C28      1.0000 0.44260  0.59550  0.80100  Biso   1.000  C
  C29      1.0000 0.83780  0.62520  0.01430  Biso   1.000  C
  C30      1.0000 0.58410  0.87110  0.91430  Biso   1.000  C
  C31      1.0000 0.11320  0.43530  0.11660  Biso   1.000  C
  C32      1.0000 0.56370  0.41070  0.07100  Biso   1.000  C
  C33      1.0000 0.22230  0.55180  0.86530  Biso   1.000  C
  C34      1.0000 0.21810  0.79490  0.95270  Biso   1.000  C
  C35      1.0000 0.74540  0.16250  0.12370  Biso   1.000  C
  C36      1.0000 0.46170  0.86430  0.92130  Biso   1.000  C
  C37      1.0000 0.70130  0.48520  0.90280  Biso   1.000  C
  C38      1.0000 0.81720  0.21200  0.59000  Biso   1.000  C
  C39      1.0000 0.18030  0.84590  0.54970  Biso   1.000  C
  C40      1.0000 0.87550  0.27600  0.48900  Biso   1.000  C
  C41      1.0000 0.13360  0.08410  0.67240  Biso   1.000  C
  C42      1.0000 0.19240  0.15790  0.37540  Biso   1.000  C
  C43      1.0000 0.83750  0.02360  0.52700  Biso   1.000  C
  C44      1.0000 0.20360  0.08110  0.59410  Biso   1.000  C
  C45      1.0000 0.57780  0.97250  0.42190  Biso   1.000  C
  C46      1.0000 0.02150  0.29520  0.35760  Biso   1.000  C
  C47      1.0000 0.79020  0.13000  0.36520  Biso   1.000  C
  C48      1.0000 0.71910  0.86790  0.49580  Biso   1.000  C
  C49      1.0000 0.58790  0.82820  0.30250  Biso   1.000  C
  C50      1.0000 0.22760  0.92250  0.31820  Biso   1.000  C
  C51      1.0000 0.03580  0.90420  0.52700  Biso   1.000  C
  C52      1.0000 0.31470  0.08110  0.44320  Biso   1.000  C
  C53      1.0000 0.44440  0.70050  0.54950  Biso   1.000  C
  C54      1.0000 0.17120  0.90420  0.40970  Biso   1.000  C
  C55      1.0000 0.08270  0.24580  0.32380  Biso   1.000  C
  C56      1.0000 0.34490  0.04680  0.51600  Biso   1.000  C
  C57      1.0000 0.24090  0.16120  0.28840  Biso   1.000  C
  C58      1.0000 0.37850  0.72860  0.61030  Biso   1.000  C
  C59      1.0000 0.55850  0.75360  0.39470  Biso   1.000  C
  C60      1.0000 0.97520  0.11520  0.73470  Biso   1.000  C
  C61      1.0000 0.28950  0.04780  0.59230  Biso   1.000  C
  C62      1.0000 0.17130  0.06280  0.74950  Biso   1.000  C
  C63      1.0000 0.07610  0.92410  0.43980  Biso   1.000  C
  C64      1.0000 0.22070  0.79100  0.69370  Biso   1.000  C
  C65      1.0000 0.24360  0.80100  0.60350  Biso   1.000  C
  C66      1.0000 0.85210  0.01430  0.36050  Biso   1.000  C
  C67      1.0000 0.49840  0.91430  0.21460  Biso   1.000  C
  C68      1.0000 0.22980  0.11660  0.44810  Biso   1.000  C
  C69      1.0000 0.63470  0.07100  0.51830  Biso   1.000  C
  C70      1.0000 0.08760  0.86530  0.58290  Biso   1.000  C
  C71      1.0000 0.17080  0.95270  0.25240  Biso   1.000  C
  C72      1.0000 0.86910  0.12370  0.71380  Biso   1.000  C
  C73      1.0000 0.38300  0.92130  0.21440  Biso   1.000  C
  C74      1.0000 0.60410  0.90280  0.61200  Biso   1.000  C
  C75      1.0000 0.40720  0.59000  0.19800  Biso   1.000  C
  C76      1.0000 0.73000  0.54970  0.60440  Biso   1.000  C
  C77      1.0000 0.36450  0.48900  0.23500  Biso   1.000  C
  C78      1.0000 0.80600  0.67240  0.24350  Biso   1.000  C
  C79      1.0000 0.56780  0.37540  0.46670  Biso   1.000  C
  C80      1.0000 0.36450  0.52700  0.44940  Biso   1.000  C
  C81      1.0000 0.79770  0.59410  0.32480  Biso   1.000  C
  C82      1.0000 0.99970  0.42190  0.60560  Biso   1.000  C
  C83      1.0000 0.37910  0.35760  0.34720  Biso   1.000  C
  C84      1.0000 0.15540  0.36520  0.50480  Biso   1.000  C
  C85      1.0000 0.21490  0.49580  0.63630  Biso   1.000  C
  C86      1.0000 0.89040  0.30250  0.86930  Biso   1.000  C
  C87      1.0000 0.54580  0.31820  0.75930  Biso   1.000  C
  C88      1.0000 0.56280  0.52700  0.56880  Biso   1.000  C
  C89      1.0000 0.75790  0.44320  0.47570  Biso   1.000  C
  C90      1.0000 0.99390  0.54950  0.75000  Biso   1.000  C
  C91      1.0000 0.58090  0.40970  0.68610  Biso   1.000  C
  C92      1.0000 0.40650  0.32380  0.43040  Biso   1.000  C
  C93      1.0000 0.86090  0.51600  0.43720  Biso   1.000  C
  C94      1.0000 0.52930  0.28840  0.55040  Biso   1.000  C
  C95      1.0000 0.98880  0.61030  0.66110  Biso   1.000  C
  C96      1.0000 0.95320  0.39470  0.85170  Biso   1.000  C
  C97      1.0000 0.70990  0.73470  0.15010  Biso   1.000  C
  C98      1.0000 0.88180  0.59230  0.35990  Biso   1.000  C
  C99      1.0000 0.92080  0.74950  0.18770  Biso   1.000  C
  C100     1.0000 0.51590  0.43980  0.63610  Biso   1.000  C
  C101     1.0000 0.91440  0.69370  0.51530  Biso   1.000  C
  C102     1.0000 0.84710  0.60350  0.59550  Biso   1.000  C
  C103     1.0000 0.21260  0.36050  0.62520  Biso   1.000  C
  C104     1.0000 0.71300  0.21460  0.87110  Biso   1.000  C
  C105     1.0000 0.67790  0.44810  0.43530  Biso   1.000  C
  C106     1.0000 0.15300  0.51830  0.41070  Biso   1.000  C
  C107     1.0000 0.67050  0.58290  0.55180  Biso   1.000  C
  C108     1.0000 0.42320  0.25240  0.79490  Biso   1.000  C
  C109     1.0000 0.58290  0.71380  0.16250  Biso   1.000  C
  C110     1.0000 0.59740  0.21440  0.86430  Biso   1.000  C
  C111     1.0000 0.21610  0.61200  0.48520  Biso   1.000  C
  N1       1.0000 0.70890  0.17830  0.19650  Biso   1.000  N
  N2       1.0000 0.35410  0.66860  0.86510  Biso   1.000  N
  N3       1.0000 0.92620  0.41300  0.19720  Biso   1.000  N
  N4       1.0000 0.92260  0.69470  0.80120  Biso   1.000  N
  N5       1.0000 0.06180  0.36230  0.11470  Biso   1.000  N
  N6       1.0000 0.85730  0.39910  0.04320  Biso   1.000  N
  N7       1.0000 0.94190  0.22770  0.10700  Biso   1.000  N
  N8       1.0000 0.54770  0.64740  0.95820  Biso   1.000  N
  N9       1.0000 0.53560  0.65800  0.77560  Biso   1.000  N
  N10      1.0000 0.70130  0.31740  0.23450  Biso   1.000  N
  N11      1.0000 0.64800  0.87340  0.83500  Biso   1.000  N
  N12      1.0000 0.72640  0.76710  0.77280  Biso   1.000  N
  N13      1.0000 0.48280  0.34560  0.11210  Biso   1.000  N
  N14      1.0000 0.41370  0.79120  0.90700  Biso   1.000  N
  N15      1.0000 0.90170  0.67190  0.02620  Biso   1.000  N
  N16      1.0000 0.63210  0.49170  0.20120  Biso   1.000  N
  N17      1.0000 0.70030  0.45370  0.85720  Biso   1.000  N
  N18      1.0000 0.90540  0.19650  0.62520  Biso   1.000  N
  N19      1.0000 0.21920  0.86510  0.46630  Biso   1.000  N
  N20      1.0000 0.12340  0.19720  0.38980  Biso   1.000  N
  N21      1.0000 0.72380  0.80120  0.50410  Biso   1.000  N
  N22      1.0000 0.17650  0.11470  0.52300  Biso   1.000  N
  N23      1.0000 0.90050  0.04320  0.55770  Biso   1.000  N
  N24      1.0000 0.04890  0.10700  0.66530  Biso   1.000  N
  N25      1.0000 0.50590  0.95820  0.39440  Biso   1.000  N
  N26      1.0000 0.31120  0.77560  0.56640  Biso   1.000  N
  N27      1.0000 0.93580  0.23450  0.44810  Biso   1.000  N
  N28      1.0000 0.48300  0.83500  0.29160  Biso   1.000  N
  N29      1.0000 0.49920  0.77280  0.46010  Biso   1.000  N
  N30      1.0000 0.59490  0.11210  0.54230  Biso   1.000  N
  N31      1.0000 0.32070  0.90700  0.30180  Biso   1.000  N
  N32      1.0000 0.92790  0.02620  0.30190  Biso   1.000  N
  N33      1.0000 0.83330  0.20120  0.30710  Biso   1.000  N
  N34      1.0000 0.55750  0.85720  0.68910  Biso   1.000  N
  N35      1.0000 0.53060  0.62520  0.17830  Biso   1.000  N
  N36      1.0000 0.68550  0.46630  0.66860  Biso   1.000  N
  N37      1.0000 0.51320  0.38980  0.41300  Biso   1.000  N
  N38      1.0000 0.22790  0.50410  0.69470  Biso   1.000  N
  N39      1.0000 0.69950  0.52300  0.36230  Biso   1.000  N
  N40      1.0000 0.45820  0.55770  0.39910  Biso   1.000  N
  N41      1.0000 0.71420  0.66530  0.22770  Biso   1.000  N
  N42      1.0000 0.90030  0.39440  0.64740  Biso   1.000  N
  N43      1.0000 0.87760  0.56640  0.65800  Biso   1.000  N
  N44      1.0000 0.38390  0.44810  0.31740  Biso   1.000  N
  N45      1.0000 0.77460  0.29160  0.87340  Biso   1.000  N
  N46      1.0000 0.95930  0.46010  0.76710  Biso   1.000  N
  N47      1.0000 0.13720  0.54230  0.34560  Biso   1.000  N
  N48      1.0000 0.62250  0.30180  0.79120  Biso   1.000  N
  N49      1.0000 0.22980  0.30190  0.67190  Biso   1.000  N
  N50      1.0000 0.14040  0.30710  0.49170  Biso   1.000  N
  N51      1.0000 0.24660  0.68910  0.45370  Biso   1.000  N
