data_image0
_cell_length_a       15.653
_cell_length_b       16.0791
_cell_length_c       16.0791
_cell_angle_alpha    112.323
_cell_angle_beta     90.8118
_cell_angle_gamma    90.8118

_symmetry_space_group_name_H-M    P 1
_symmetry_int_tables_number       1

loop_
  _symmetry_equiv_pos_as_xyz
  'x, y, z'

loop_
  _atom_site_label
  _atom_site_occupancy
  _atom_site_fract_x
  _atom_site_fract_y
  _atom_site_fract_z
  _atom_site_thermal_displace_type
  _atom_site_B_iso_or_equiv
  _atom_site_type_symbol
  Cu1      1.0000 0.06538  0.20490  0.71796  Biso   1.000  Cu
  Cu2      1.0000 0.43136  0.81254  0.34094  Biso   1.000  Cu
  Cu3      1.0000 0.43462  0.28204  0.79510  Biso   1.000  Cu
  Cu4      1.0000 0.06864  0.65906  0.18746  Biso   1.000  Cu
  Cu5      1.0000 0.93462  0.79510  0.28204  Biso   1.000  Cu
  Cu6      1.0000 0.56864  0.18746  0.65906  Biso   1.000  Cu
  Cu7      1.0000 0.56538  0.71796  0.20490  Biso   1.000  Cu
  Cu8      1.0000 0.93136  0.34094  0.81254  Biso   1.000  Cu
  Cu9      1.0000 0.25000  0.77131  0.22869  Biso   1.000  Cu
  Cu10     1.0000 0.75000  0.22869  0.77131  Biso   1.000  Cu
  H1       1.0000 0.15860  0.15600  0.09220  Biso   1.000  H
  H2       1.0000 0.10420  0.15750  0.95710  Biso   1.000  H
  H3       1.0000 0.05630  0.42150  0.08550  Biso   1.000  H
  H4       1.0000 0.12170  0.41690  0.21490  Biso   1.000  H
  H5       1.0000 0.77360  0.89690  0.71070  Biso   1.000  H
  H6       1.0000 0.85720  0.01930  0.71650  Biso   1.000  H
  H7       1.0000 0.06440  0.89020  0.75780  Biso   1.000  H
  H8       1.0000 0.97580  0.77180  0.75080  Biso   1.000  H
  H9       1.0000 0.77840  0.40930  0.45950  Biso   1.000  H
  H10      1.0000 0.85070  0.41300  0.58840  Biso   1.000  H
  H11      1.0000 0.88750  0.14410  0.46410  Biso   1.000  H
  H12      1.0000 0.80830  0.14760  0.34000  Biso   1.000  H
  H13      1.0000 0.33160  0.54070  0.71830  Biso   1.000  H
  H14      1.0000 0.26290  0.41810  0.73290  Biso   1.000  H
  H15      1.0000 0.03640  0.53680  0.73020  Biso   1.000  H
  H16      1.0000 0.11120  0.65360  0.71140  Biso   1.000  H
  H17      1.0000 0.03770  0.07900  0.52900  Biso   1.000  H
  H18      1.0000 0.10600  0.96390  0.41930  Biso   1.000  H
  H19      1.0000 0.32410  0.03770  0.56810  Biso   1.000  H
  H20      1.0000 0.24960  0.15090  0.67650  Biso   1.000  H
  H21      1.0000 0.34140  0.90780  0.84400  Biso   1.000  H
  H22      1.0000 0.39580  0.04290  0.84250  Biso   1.000  H
  H23      1.0000 0.44370  0.91450  0.57850  Biso   1.000  H
  H24      1.0000 0.37830  0.78510  0.58310  Biso   1.000  H
  H25      1.0000 0.72640  0.28930  0.10310  Biso   1.000  H
  H26      1.0000 0.64280  0.28350  0.98070  Biso   1.000  H
  H27      1.0000 0.43560  0.24220  0.10980  Biso   1.000  H
  H28      1.0000 0.52420  0.24920  0.22820  Biso   1.000  H
  H29      1.0000 0.72160  0.54050  0.59070  Biso   1.000  H
  H30      1.0000 0.64930  0.41160  0.58700  Biso   1.000  H
  H31      1.0000 0.61250  0.53590  0.85590  Biso   1.000  H
  H32      1.0000 0.69170  0.66000  0.85240  Biso   1.000  H
  H33      1.0000 0.16840  0.28170  0.45930  Biso   1.000  H
  H34      1.0000 0.23710  0.26710  0.58190  Biso   1.000  H
  H35      1.0000 0.46360  0.26980  0.46320  Biso   1.000  H
  H36      1.0000 0.38880  0.28860  0.34640  Biso   1.000  H
  H37      1.0000 0.46230  0.47100  0.92100  Biso   1.000  H
  H38      1.0000 0.39400  0.58070  0.03610  Biso   1.000  H
  H39      1.0000 0.17590  0.43190  0.96230  Biso   1.000  H
  H40      1.0000 0.25040  0.32350  0.84910  Biso   1.000  H
  H41      1.0000 0.84140  0.84400  0.90780  Biso   1.000  H
  H42      1.0000 0.89580  0.84250  0.04290  Biso   1.000  H
  H43      1.0000 0.94370  0.57850  0.91450  Biso   1.000  H
  H44      1.0000 0.87830  0.58310  0.78510  Biso   1.000  H
  H45      1.0000 0.22640  0.10310  0.28930  Biso   1.000  H
  H46      1.0000 0.14280  0.98070  0.28350  Biso   1.000  H
  H47      1.0000 0.93560  0.10980  0.24220  Biso   1.000  H
  H48      1.0000 0.02420  0.22820  0.24920  Biso   1.000  H
  H49      1.0000 0.22160  0.59070  0.54050  Biso   1.000  H
  H50      1.0000 0.14930  0.58700  0.41160  Biso   1.000  H
  H51      1.0000 0.11250  0.85590  0.53590  Biso   1.000  H
  H52      1.0000 0.19170  0.85240  0.66000  Biso   1.000  H
  H53      1.0000 0.66840  0.45930  0.28170  Biso   1.000  H
  H54      1.0000 0.73710  0.58190  0.26710  Biso   1.000  H
  H55      1.0000 0.96360  0.46320  0.26980  Biso   1.000  H
  H56      1.0000 0.88880  0.34640  0.28860  Biso   1.000  H
  H57      1.0000 0.96230  0.92100  0.47100  Biso   1.000  H
  H58      1.0000 0.89400  0.03610  0.58070  Biso   1.000  H
  H59      1.0000 0.67590  0.96230  0.43190  Biso   1.000  H
  H60      1.0000 0.75040  0.84910  0.32350  Biso   1.000  H
  H61      1.0000 0.65860  0.09220  0.15600  Biso   1.000  H
  H62      1.0000 0.60420  0.95710  0.15750  Biso   1.000  H
  H63      1.0000 0.55630  0.08550  0.42150  Biso   1.000  H
  H64      1.0000 0.62170  0.21490  0.41690  Biso   1.000  H
  H65      1.0000 0.27360  0.71070  0.89690  Biso   1.000  H
  H66      1.0000 0.35720  0.71650  0.01930  Biso   1.000  H
  H67      1.0000 0.56440  0.75780  0.89020  Biso   1.000  H
  H68      1.0000 0.47580  0.75080  0.77180  Biso   1.000  H
  H69      1.0000 0.27840  0.45950  0.40930  Biso   1.000  H
  H70      1.0000 0.35070  0.58840  0.41300  Biso   1.000  H
  H71      1.0000 0.38750  0.46410  0.14410  Biso   1.000  H
  H72      1.0000 0.30830  0.34000  0.14760  Biso   1.000  H
  H73      1.0000 0.83160  0.71830  0.54070  Biso   1.000  H
  H74      1.0000 0.76290  0.73290  0.41810  Biso   1.000  H
  H75      1.0000 0.53640  0.73020  0.53680  Biso   1.000  H
  H76      1.0000 0.61120  0.71140  0.65360  Biso   1.000  H
  H77      1.0000 0.53770  0.52900  0.07900  Biso   1.000  H
  H78      1.0000 0.60600  0.41930  0.96390  Biso   1.000  H
  H79      1.0000 0.82410  0.56810  0.03770  Biso   1.000  H
  H80      1.0000 0.74960  0.67650  0.15090  Biso   1.000  H
  Rh1      1.0000 0.20934  0.28449  0.27735  Biso   1.000  Rh
  Rh2      1.0000 0.29066  0.72265  0.71551  Biso   1.000  Rh
  Rh3      1.0000 0.79066  0.71551  0.72265  Biso   1.000  Rh
  Rh4      1.0000 0.70934  0.27735  0.28449  Biso   1.000  Rh
  C1       1.0000 0.14040  0.21120  0.09000  Biso   1.000  C
  C2       1.0000 0.10690  0.21130  0.00930  Biso   1.000  C
  C3       1.0000 0.07750  0.29120  0.00640  Biso   1.000  C
  C4       1.0000 0.08000  0.36720  0.08460  Biso   1.000  C
  C5       1.0000 0.11740  0.36350  0.16210  Biso   1.000  C
  C6       1.0000 0.04510  0.29400  0.92020  Biso   1.000  C
  C7       1.0000 0.83370  0.89570  0.71950  Biso   1.000  C
  C8       1.0000 0.88290  0.96880  0.72280  Biso   1.000  C
  C9       1.0000 0.97100  0.96710  0.73530  Biso   1.000  C
  C10      1.0000 0.00480  0.89240  0.74700  Biso   1.000  C
  C11      1.0000 0.95180  0.82220  0.74300  Biso   1.000  C
  C12      1.0000 0.03120  0.04230  0.73530  Biso   1.000  C
  C13      1.0000 0.79900  0.35470  0.46170  Biso   1.000  C
  C14      1.0000 0.84190  0.35750  0.53870  Biso   1.000  C
  C15      1.0000 0.87210  0.27730  0.54210  Biso   1.000  C
  C16      1.0000 0.86320  0.19850  0.46590  Biso   1.000  C
  C17      1.0000 0.81720  0.20160  0.39140  Biso   1.000  C
  C18      1.0000 0.91190  0.27810  0.62830  Biso   1.000  C
  C19      1.0000 0.27110  0.54010  0.72150  Biso   1.000  C
  C20      1.0000 0.23050  0.46650  0.73010  Biso   1.000  C
  C21      1.0000 0.14310  0.46440  0.73460  Biso   1.000  C
  C22      1.0000 0.09710  0.53630  0.72790  Biso   1.000  C
  C23      1.0000 0.14210  0.60600  0.71800  Biso   1.000  C
  C24      1.0000 0.09360  0.39100  0.75060  Biso   1.000  C
  C25      1.0000 0.09650  0.07000  0.53760  Biso   1.000  C
  C26      1.0000 0.13690  0.00140  0.47180  Biso   1.000  C
  C27      1.0000 0.22120  0.98730  0.48210  Biso   1.000  C
  C28      1.0000 0.26490  0.04470  0.55950  Biso   1.000  C
  C29      1.0000 0.21980  0.11240  0.62380  Biso   1.000  C
  C30      1.0000 0.26850  0.91040  0.41340  Biso   1.000  C
  C31      1.0000 0.35960  0.91000  0.78880  Biso   1.000  C
  C32      1.0000 0.39310  0.99070  0.78870  Biso   1.000  C
  C33      1.0000 0.42250  0.99360  0.70880  Biso   1.000  C
  C34      1.0000 0.42000  0.91540  0.63280  Biso   1.000  C
  C35      1.0000 0.38260  0.83790  0.63650  Biso   1.000  C
  C36      1.0000 0.45490  0.07980  0.70600  Biso   1.000  C
  C37      1.0000 0.66630  0.28050  0.10430  Biso   1.000  C
  C38      1.0000 0.61710  0.27720  0.03120  Biso   1.000  C
  C39      1.0000 0.52900  0.26470  0.03290  Biso   1.000  C
  C40      1.0000 0.49520  0.25300  0.10760  Biso   1.000  C
  C41      1.0000 0.54820  0.25700  0.17780  Biso   1.000  C
  C42      1.0000 0.46880  0.26470  0.95770  Biso   1.000  C
  C43      1.0000 0.70100  0.53830  0.64530  Biso   1.000  C
  C44      1.0000 0.65810  0.46130  0.64250  Biso   1.000  C
  C45      1.0000 0.62790  0.45790  0.72270  Biso   1.000  C
  C46      1.0000 0.63680  0.53410  0.80150  Biso   1.000  C
  C47      1.0000 0.68280  0.60860  0.79840  Biso   1.000  C
  C48      1.0000 0.58810  0.37170  0.72190  Biso   1.000  C
  C49      1.0000 0.22890  0.27850  0.45990  Biso   1.000  C
  C50      1.0000 0.26950  0.26990  0.53350  Biso   1.000  C
  C51      1.0000 0.35690  0.26540  0.53560  Biso   1.000  C
  C52      1.0000 0.40290  0.27210  0.46370  Biso   1.000  C
  C53      1.0000 0.35790  0.28200  0.39400  Biso   1.000  C
  C54      1.0000 0.40640  0.24940  0.60900  Biso   1.000  C
  C55      1.0000 0.40350  0.46240  0.93000  Biso   1.000  C
  C56      1.0000 0.36310  0.52820  0.99860  Biso   1.000  C
  C57      1.0000 0.27880  0.51790  0.01270  Biso   1.000  C
  C58      1.0000 0.23510  0.44050  0.95530  Biso   1.000  C
  C59      1.0000 0.28020  0.37620  0.88760  Biso   1.000  C
  C60      1.0000 0.23150  0.58660  0.08960  Biso   1.000  C
  C61      1.0000 0.85960  0.78880  0.91000  Biso   1.000  C
  C62      1.0000 0.89310  0.78870  0.99070  Biso   1.000  C
  C63      1.0000 0.92250  0.70880  0.99360  Biso   1.000  C
  C64      1.0000 0.92000  0.63280  0.91540  Biso   1.000  C
  C65      1.0000 0.88260  0.63650  0.83790  Biso   1.000  C
  C66      1.0000 0.95490  0.70600  0.07980  Biso   1.000  C
  C67      1.0000 0.16630  0.10430  0.28050  Biso   1.000  C
  C68      1.0000 0.11710  0.03120  0.27720  Biso   1.000  C
  C69      1.0000 0.02900  0.03290  0.26470  Biso   1.000  C
  C70      1.0000 0.99520  0.10760  0.25300  Biso   1.000  C
  C71      1.0000 0.04820  0.17780  0.25700  Biso   1.000  C
  C72      1.0000 0.96880  0.95770  0.26470  Biso   1.000  C
  C73      1.0000 0.20100  0.64530  0.53830  Biso   1.000  C
  C74      1.0000 0.15810  0.64250  0.46130  Biso   1.000  C
  C75      1.0000 0.12790  0.72270  0.45790  Biso   1.000  C
  C76      1.0000 0.13680  0.80150  0.53410  Biso   1.000  C
  C77      1.0000 0.18280  0.79840  0.60860  Biso   1.000  C
  C78      1.0000 0.08810  0.72190  0.37170  Biso   1.000  C
  C79      1.0000 0.72890  0.45990  0.27850  Biso   1.000  C
  C80      1.0000 0.76950  0.53350  0.26990  Biso   1.000  C
  C81      1.0000 0.85690  0.53560  0.26540  Biso   1.000  C
  C82      1.0000 0.90290  0.46370  0.27210  Biso   1.000  C
  C83      1.0000 0.85790  0.39400  0.28200  Biso   1.000  C
  C84      1.0000 0.90640  0.60900  0.24940  Biso   1.000  C
  C85      1.0000 0.90350  0.93000  0.46240  Biso   1.000  C
  C86      1.0000 0.86310  0.99860  0.52820  Biso   1.000  C
  C87      1.0000 0.77880  0.01270  0.51790  Biso   1.000  C
  C88      1.0000 0.73510  0.95530  0.44050  Biso   1.000  C
  C89      1.0000 0.78020  0.88760  0.37620  Biso   1.000  C
  C90      1.0000 0.73150  0.08960  0.58660  Biso   1.000  C
  C91      1.0000 0.64040  0.09000  0.21120  Biso   1.000  C
  C92      1.0000 0.60690  0.00930  0.21130  Biso   1.000  C
  C93      1.0000 0.57750  0.00640  0.29120  Biso   1.000  C
  C94      1.0000 0.58000  0.08460  0.36720  Biso   1.000  C
  C95      1.0000 0.61740  0.16210  0.36350  Biso   1.000  C
  C96      1.0000 0.54510  0.92020  0.29400  Biso   1.000  C
  C97      1.0000 0.33370  0.71950  0.89570  Biso   1.000  C
  C98      1.0000 0.38290  0.72280  0.96880  Biso   1.000  C
  C99      1.0000 0.47100  0.73530  0.96710  Biso   1.000  C
  C100     1.0000 0.50480  0.74700  0.89240  Biso   1.000  C
  C101     1.0000 0.45180  0.74300  0.82220  Biso   1.000  C
  C102     1.0000 0.53120  0.73530  0.04230  Biso   1.000  C
  C103     1.0000 0.29900  0.46170  0.35470  Biso   1.000  C
  C104     1.0000 0.34190  0.53870  0.35750  Biso   1.000  C
  C105     1.0000 0.37210  0.54210  0.27730  Biso   1.000  C
  C106     1.0000 0.36320  0.46590  0.19850  Biso   1.000  C
  C107     1.0000 0.31720  0.39140  0.20160  Biso   1.000  C
  C108     1.0000 0.41190  0.62830  0.27810  Biso   1.000  C
  C109     1.0000 0.77110  0.72150  0.54010  Biso   1.000  C
  C110     1.0000 0.73050  0.73010  0.46650  Biso   1.000  C
  C111     1.0000 0.64310  0.73460  0.46440  Biso   1.000  C
  C112     1.0000 0.59710  0.72790  0.53630  Biso   1.000  C
  C113     1.0000 0.64210  0.71800  0.60600  Biso   1.000  C
  C114     1.0000 0.59360  0.75060  0.39100  Biso   1.000  C
  C115     1.0000 0.59650  0.53760  0.07000  Biso   1.000  C
  C116     1.0000 0.63690  0.47180  0.00140  Biso   1.000  C
  C117     1.0000 0.72120  0.48210  0.98730  Biso   1.000  C
  C118     1.0000 0.76490  0.55950  0.04470  Biso   1.000  C
  C119     1.0000 0.71980  0.62380  0.11240  Biso   1.000  C
  C120     1.0000 0.76850  0.41340  0.91040  Biso   1.000  C
  N1       1.0000 0.14790  0.28580  0.16460  Biso   1.000  N
  N2       1.0000 0.86710  0.82240  0.72840  Biso   1.000  N
  N3       1.0000 0.78540  0.27880  0.39060  Biso   1.000  N
  N4       1.0000 0.22870  0.60990  0.71750  Biso   1.000  N
  N5       1.0000 0.13740  0.12600  0.61520  Biso   1.000  N
  N6       1.0000 0.35210  0.83540  0.71420  Biso   1.000  N
  N7       1.0000 0.63290  0.27160  0.17760  Biso   1.000  N
  N8       1.0000 0.71460  0.60940  0.72120  Biso   1.000  N
  N9       1.0000 0.27130  0.28250  0.39010  Biso   1.000  N
  N10      1.0000 0.36260  0.38480  0.87400  Biso   1.000  N
  N11      1.0000 0.85210  0.71420  0.83540  Biso   1.000  N
  N12      1.0000 0.13290  0.17760  0.27160  Biso   1.000  N
  N13      1.0000 0.21460  0.72120  0.60940  Biso   1.000  N
  N14      1.0000 0.77130  0.39010  0.28250  Biso   1.000  N
  N15      1.0000 0.86260  0.87400  0.38480  Biso   1.000  N
  N16      1.0000 0.64790  0.16460  0.28580  Biso   1.000  N
  N17      1.0000 0.36710  0.72840  0.82240  Biso   1.000  N
  N18      1.0000 0.28540  0.39060  0.27880  Biso   1.000  N
  N19      1.0000 0.72870  0.71750  0.60990  Biso   1.000  N
  N20      1.0000 0.63740  0.61520  0.12600  Biso   1.000  N
  Cl1      1.0000 0.30879  0.18507  0.18893  Biso   1.000  Cl
  Cl2      1.0000 0.11059  0.38511  0.36833  Biso   1.000  Cl
  Cl3      1.0000 0.19121  0.81107  0.81493  Biso   1.000  Cl
  Cl4      1.0000 0.38941  0.63167  0.61489  Biso   1.000  Cl
  Cl5      1.0000 0.69121  0.81493  0.81107  Biso   1.000  Cl
  Cl6      1.0000 0.88941  0.61489  0.63167  Biso   1.000  Cl
  Cl7      1.0000 0.80879  0.18893  0.18507  Biso   1.000  Cl
  Cl8      1.0000 0.61059  0.36833  0.38511  Biso   1.000  Cl
  O1       1.0000 0.98630  0.34810  0.92470  Biso   1.000  O
  O2       1.0000 0.07980  0.24210  0.84970  Biso   1.000  O
  O3       1.0000 0.99540  0.10300  0.71420  Biso   1.000  O
  O4       1.0000 0.10690  0.03770  0.75050  Biso   1.000  O
  O5       1.0000 0.88280  0.33610  0.69870  Biso   1.000  O
  O6       1.0000 0.96860  0.22170  0.62350  Biso   1.000  O
  O7       1.0000 0.12520  0.31380  0.72020  Biso   1.000  O
  O8       1.0000 0.02620  0.41430  0.79310  Biso   1.000  O
  O9       1.0000 0.34020  0.89140  0.43520  Biso   1.000  O
  O10      1.0000 0.22680  0.87270  0.33950  Biso   1.000  O
  O11      1.0000 0.36620  0.80570  0.23210  Biso   1.000  O
  O12      1.0000 0.51370  0.07530  0.65190  Biso   1.000  O
  O13      1.0000 0.42020  0.15030  0.75790  Biso   1.000  O
  O14      1.0000 0.50460  0.28580  0.89700  Biso   1.000  O
  O15      1.0000 0.39310  0.24950  0.96230  Biso   1.000  O
  O16      1.0000 0.61720  0.30130  0.66390  Biso   1.000  O
  O17      1.0000 0.53140  0.37650  0.77830  Biso   1.000  O
  O18      1.0000 0.37480  0.27980  0.68620  Biso   1.000  O
  O19      1.0000 0.47380  0.20690  0.58570  Biso   1.000  O
  O20      1.0000 0.15980  0.56480  0.10860  Biso   1.000  O
  O21      1.0000 0.27320  0.66050  0.12730  Biso   1.000  O
  O22      1.0000 0.13380  0.76790  0.19430  Biso   1.000  O
  O23      1.0000 0.01370  0.65190  0.07530  Biso   1.000  O
  O24      1.0000 0.92020  0.75790  0.15030  Biso   1.000  O
  O25      1.0000 0.00460  0.89700  0.28580  Biso   1.000  O
  O26      1.0000 0.89310  0.96230  0.24950  Biso   1.000  O
  O27      1.0000 0.11720  0.66390  0.30130  Biso   1.000  O
  O28      1.0000 0.03140  0.77830  0.37650  Biso   1.000  O
  O29      1.0000 0.87480  0.68620  0.27980  Biso   1.000  O
  O30      1.0000 0.97380  0.58570  0.20690  Biso   1.000  O
  O31      1.0000 0.65980  0.10860  0.56480  Biso   1.000  O
  O32      1.0000 0.77320  0.12730  0.66050  Biso   1.000  O
  O33      1.0000 0.63380  0.19430  0.76790  Biso   1.000  O
  O34      1.0000 0.48630  0.92470  0.34810  Biso   1.000  O
  O35      1.0000 0.57980  0.84970  0.24210  Biso   1.000  O
  O36      1.0000 0.49540  0.71420  0.10300  Biso   1.000  O
  O37      1.0000 0.60690  0.75050  0.03770  Biso   1.000  O
  O38      1.0000 0.38280  0.69870  0.33610  Biso   1.000  O
  O39      1.0000 0.46860  0.62350  0.22170  Biso   1.000  O
  O40      1.0000 0.62520  0.72020  0.31380  Biso   1.000  O
  O41      1.0000 0.52620  0.79310  0.41430  Biso   1.000  O
  O42      1.0000 0.84020  0.43520  0.89140  Biso   1.000  O
  O43      1.0000 0.72680  0.33950  0.87270  Biso   1.000  O
  O44      1.0000 0.86620  0.23210  0.80570  Biso   1.000  O
