data_image0
_cell_length_a       14.608
_cell_length_b       18.041
_cell_length_c       24.803
_cell_angle_alpha    90
_cell_angle_beta     90.005
_cell_angle_gamma    90

_symmetry_space_group_name_H-M    P 1
_symmetry_int_tables_number       1

loop_
  _symmetry_equiv_pos_as_xyz
  'x, y, z'

loop_
  _atom_site_label
  _atom_site_occupancy
  _atom_site_fract_x
  _atom_site_fract_y
  _atom_site_fract_z
  _atom_site_thermal_displace_type
  _atom_site_B_iso_or_equiv
  _atom_site_type_symbol
  Zn1      1.0000 0.53967  0.06459  0.85054  Biso   1.000  Zn
  Zn2      1.0000 0.50621  0.25634  0.84907  Biso   1.000  Zn
  Zn3      1.0000 0.46857  0.44992  0.85011  Biso   1.000  Zn
  Zn4      1.0000 0.03967  0.43541  0.35054  Biso   1.000  Zn
  Zn5      1.0000 0.00621  0.24366  0.34907  Biso   1.000  Zn
  Zn6      1.0000 0.96857  0.05008  0.35011  Biso   1.000  Zn
  H1       1.0000 0.48600  0.94330  0.92490  Biso   1.000  H
  H2       1.0000 0.46720  0.81540  0.92690  Biso   1.000  H
  H3       1.0000 0.55600  0.81050  0.77110  Biso   1.000  H
  H4       1.0000 0.57180  0.93700  0.77450  Biso   1.000  H
  H5       1.0000 0.52390  0.57130  0.92390  Biso   1.000  H
  H6       1.0000 0.54430  0.69840  0.92540  Biso   1.000  H
  H7       1.0000 0.44730  0.70640  0.77240  Biso   1.000  H
  H8       1.0000 0.42900  0.57860  0.77510  Biso   1.000  H
  H9       1.0000 0.83280  0.09370  0.81860  Biso   1.000  H
  H10      1.0000 0.98290  0.13850  0.81460  Biso   1.000  H
  H11      1.0000 0.90020  0.33190  0.88240  Biso   1.000  H
  H12      1.0000 0.75010  0.28700  0.88630  Biso   1.000  H
  H13      1.0000 0.01930  0.37910  0.84810  Biso   1.000  H
  H14      1.0000 0.16730  0.42470  0.84510  Biso   1.000  H
  H15      1.0000 0.26560  0.21660  0.83250  Biso   1.000  H
  H16      1.0000 0.11760  0.16940  0.83980  Biso   1.000  H
  H17      1.0000 0.37500  0.02640  0.98770  Biso   1.000  H
  H18      1.0000 0.28600  0.02630  0.06550  Biso   1.000  H
  H19      1.0000 0.26160  0.25040  0.05630  Biso   1.000  H
  H20      1.0000 0.34600  0.24930  0.97580  Biso   1.000  H
  H21      1.0000 0.15660  0.03580  0.11000  Biso   1.000  H
  H22      1.0000 0.07840  0.03020  0.19200  Biso   1.000  H
  H23      1.0000 0.18080  0.23050  0.23250  Biso   1.000  H
  H24      1.0000 0.25240  0.23920  0.14890  Biso   1.000  H
  H25      1.0000 0.33580  0.04440  0.72980  Biso   1.000  H
  H26      1.0000 0.24050  0.04480  0.65500  Biso   1.000  H
  H27      1.0000 0.34600  0.24190  0.60890  Biso   1.000  H
  H28      1.0000 0.43780  0.24440  0.68620  Biso   1.000  H
  H29      1.0000 0.22310  0.02650  0.56940  Biso   1.000  H
  H30      1.0000 0.13120  0.02030  0.49290  Biso   1.000  H
  H31      1.0000 0.12190  0.24400  0.48640  Biso   1.000  H
  H32      1.0000 0.21660  0.25080  0.56160  Biso   1.000  H
  H33      1.0000 0.98600  0.55670  0.42490  Biso   1.000  H
  H34      1.0000 0.96720  0.68460  0.42690  Biso   1.000  H
  H35      1.0000 0.05600  0.68950  0.27110  Biso   1.000  H
  H36      1.0000 0.07180  0.56300  0.27450  Biso   1.000  H
  H37      1.0000 0.02390  0.92870  0.42390  Biso   1.000  H
  H38      1.0000 0.04430  0.80160  0.42540  Biso   1.000  H
  H39      1.0000 0.94730  0.79360  0.27240  Biso   1.000  H
  H40      1.0000 0.92900  0.92140  0.27510  Biso   1.000  H
  H41      1.0000 0.33280  0.40630  0.31860  Biso   1.000  H
  H42      1.0000 0.48290  0.36150  0.31460  Biso   1.000  H
  H43      1.0000 0.40020  0.16810  0.38240  Biso   1.000  H
  H44      1.0000 0.25010  0.21300  0.38630  Biso   1.000  H
  H45      1.0000 0.51930  0.12090  0.34810  Biso   1.000  H
  H46      1.0000 0.66730  0.07530  0.34510  Biso   1.000  H
  H47      1.0000 0.76560  0.28340  0.33250  Biso   1.000  H
  H48      1.0000 0.61760  0.33060  0.33980  Biso   1.000  H
  H49      1.0000 0.87500  0.47360  0.48770  Biso   1.000  H
  H50      1.0000 0.78600  0.47370  0.56550  Biso   1.000  H
  H51      1.0000 0.76160  0.24960  0.55630  Biso   1.000  H
  H52      1.0000 0.84600  0.25070  0.47580  Biso   1.000  H
  H53      1.0000 0.65660  0.46420  0.61000  Biso   1.000  H
  H54      1.0000 0.57840  0.46980  0.69200  Biso   1.000  H
  H55      1.0000 0.68080  0.26950  0.73250  Biso   1.000  H
  H56      1.0000 0.75240  0.26080  0.64890  Biso   1.000  H
  H57      1.0000 0.83580  0.45560  0.22980  Biso   1.000  H
  H58      1.0000 0.74050  0.45520  0.15500  Biso   1.000  H
  H59      1.0000 0.84600  0.25810  0.10890  Biso   1.000  H
  H60      1.0000 0.93780  0.25560  0.18620  Biso   1.000  H
  H61      1.0000 0.72310  0.47350  0.06940  Biso   1.000  H
  H62      1.0000 0.63120  0.47970  0.99290  Biso   1.000  H
  H63      1.0000 0.62190  0.25600  0.98640  Biso   1.000  H
  H64      1.0000 0.71660  0.24920  0.06160  Biso   1.000  H
  C1       1.0000 0.50080  0.91530  0.89368  Biso   1.000  C
  C2       1.0000 0.48870  0.83920  0.89512  Biso   1.000  C
  C3       1.0000 0.50890  0.79811  0.84899  Biso   1.000  C
  C4       1.0000 0.54120  0.83660  0.80322  Biso   1.000  C
  C5       1.0000 0.55090  0.91160  0.80570  Biso   1.000  C
  C6       1.0000 0.50830  0.59930  0.89275  Biso   1.000  C
  C7       1.0000 0.52040  0.67500  0.89405  Biso   1.000  C
  C8       1.0000 0.49730  0.71671  0.84910  Biso   1.000  C
  C9       1.0000 0.46320  0.67960  0.80404  Biso   1.000  C
  C10      1.0000 0.45290  0.60330  0.80586  Biso   1.000  C
  C11      1.0000 0.68130  0.15740  0.85653  Biso   1.000  C
  C12      1.0000 0.77700  0.18610  0.85253  Biso   1.000  C
  C13      1.0000 0.84630  0.14220  0.83131  Biso   1.000  C
  C14      1.0000 0.93580  0.16920  0.82866  Biso   1.000  C
  C15      1.0000 0.95690  0.24078  0.84648  Biso   1.000  C
  C16      1.0000 0.88680  0.28380  0.86887  Biso   1.000  C
  C17      1.0000 0.79730  0.25690  0.87150  Biso   1.000  C
  C18      1.0000 0.05260  0.26940  0.84285  Biso   1.000  C
  C19      1.0000 0.06930  0.34560  0.84530  Biso   1.000  C
  C20      1.0000 0.15720  0.37270  0.84371  Biso   1.000  C
  C21      1.0000 0.23120  0.32500  0.84014  Biso   1.000  C
  C22      1.0000 0.21540  0.24960  0.83685  Biso   1.000  C
  C23      1.0000 0.12720  0.22150  0.83984  Biso   1.000  C
  C24      1.0000 0.32740  0.35360  0.83878  Biso   1.000  C
  C25      1.0000 0.42590  0.13730  0.92454  Biso   1.000  C
  C26      1.0000 0.36840  0.13840  0.97450  Biso   1.000  C
  C27      1.0000 0.35110  0.07160  0.00136  Biso   1.000  C
  C28      1.0000 0.29910  0.07180  0.04784  Biso   1.000  C
  C29      1.0000 0.26540  0.13840  0.06937  Biso   1.000  C
  C30      1.0000 0.28380  0.20480  0.04223  Biso   1.000  C
  C31      1.0000 0.33470  0.20430  0.99450  Biso   1.000  C
  C32      1.0000 0.21390  0.13700  0.12128  Biso   1.000  C
  C33      1.0000 0.16110  0.07590  0.13469  Biso   1.000  C
  C34      1.0000 0.11470  0.07230  0.18354  Biso   1.000  C
  C35      1.0000 0.12170  0.13030  0.21959  Biso   1.000  C
  C36      1.0000 0.17470  0.19140  0.20710  Biso   1.000  C
  C37      1.0000 0.21870  0.19590  0.15789  Biso   1.000  C
  C38      1.0000 0.07630  0.12430  0.27368  Biso   1.000  C
  C39      1.0000 0.45700  0.14180  0.76454  Biso   1.000  C
  C40      1.0000 0.39760  0.14340  0.71574  Biso   1.000  C
  C41      1.0000 0.33790  0.08500  0.70543  Biso   1.000  C
  C42      1.0000 0.28180  0.08470  0.66063  Biso   1.000  C
  C43      1.0000 0.28580  0.14270  0.62368  Biso   1.000  C
  C44      1.0000 0.34380  0.20180  0.63364  Biso   1.000  C
  C45      1.0000 0.39920  0.20310  0.67951  Biso   1.000  C
  C46      1.0000 0.22810  0.13940  0.57410  Biso   1.000  C
  C47      1.0000 0.20260  0.07090  0.55272  Biso   1.000  C
  C48      1.0000 0.14740  0.06730  0.50726  Biso   1.000  C
  C49      1.0000 0.11580  0.13050  0.48278  Biso   1.000  C
  C50      1.0000 0.14240  0.19980  0.50335  Biso   1.000  C
  C51      1.0000 0.19830  0.20370  0.54823  Biso   1.000  C
  C52      1.0000 0.05310  0.12710  0.43539  Biso   1.000  C
  C53      1.0000 0.00080  0.58470  0.39368  Biso   1.000  C
  C54      1.0000 0.98870  0.66080  0.39512  Biso   1.000  C
  C55      1.0000 0.00890  0.70189  0.34899  Biso   1.000  C
  C56      1.0000 0.04120  0.66340  0.30322  Biso   1.000  C
  C57      1.0000 0.05090  0.58840  0.30570  Biso   1.000  C
  C58      1.0000 0.00830  0.90070  0.39275  Biso   1.000  C
  C59      1.0000 0.02040  0.82500  0.39405  Biso   1.000  C
  C60      1.0000 0.99730  0.78329  0.34910  Biso   1.000  C
  C61      1.0000 0.96320  0.82040  0.30404  Biso   1.000  C
  C62      1.0000 0.95290  0.89670  0.30586  Biso   1.000  C
  C63      1.0000 0.18130  0.34260  0.35653  Biso   1.000  C
  C64      1.0000 0.27700  0.31390  0.35253  Biso   1.000  C
  C65      1.0000 0.34630  0.35780  0.33131  Biso   1.000  C
  C66      1.0000 0.43580  0.33080  0.32866  Biso   1.000  C
  C67      1.0000 0.45690  0.25922  0.34648  Biso   1.000  C
  C68      1.0000 0.38680  0.21620  0.36887  Biso   1.000  C
  C69      1.0000 0.29730  0.24310  0.37150  Biso   1.000  C
  C70      1.0000 0.55260  0.23060  0.34285  Biso   1.000  C
  C71      1.0000 0.56930  0.15440  0.34530  Biso   1.000  C
  C72      1.0000 0.65720  0.12730  0.34371  Biso   1.000  C
  C73      1.0000 0.73120  0.17500  0.34014  Biso   1.000  C
  C74      1.0000 0.71540  0.25040  0.33685  Biso   1.000  C
  C75      1.0000 0.62720  0.27850  0.33984  Biso   1.000  C
  C76      1.0000 0.82740  0.14640  0.33878  Biso   1.000  C
  C77      1.0000 0.92590  0.36270  0.42454  Biso   1.000  C
  C78      1.0000 0.86840  0.36160  0.47450  Biso   1.000  C
  C79      1.0000 0.85110  0.42840  0.50136  Biso   1.000  C
  C80      1.0000 0.79910  0.42820  0.54784  Biso   1.000  C
  C81      1.0000 0.76540  0.36160  0.56937  Biso   1.000  C
  C82      1.0000 0.78380  0.29520  0.54223  Biso   1.000  C
  C83      1.0000 0.83470  0.29570  0.49450  Biso   1.000  C
  C84      1.0000 0.71390  0.36300  0.62128  Biso   1.000  C
  C85      1.0000 0.66110  0.42410  0.63469  Biso   1.000  C
  C86      1.0000 0.61470  0.42770  0.68354  Biso   1.000  C
  C87      1.0000 0.62170  0.36970  0.71959  Biso   1.000  C
  C88      1.0000 0.67470  0.30860  0.70710  Biso   1.000  C
  C89      1.0000 0.71870  0.30410  0.65789  Biso   1.000  C
  C90      1.0000 0.57630  0.37570  0.77368  Biso   1.000  C
  C91      1.0000 0.95700  0.35820  0.26454  Biso   1.000  C
  C92      1.0000 0.89760  0.35660  0.21574  Biso   1.000  C
  C93      1.0000 0.83790  0.41500  0.20543  Biso   1.000  C
  C94      1.0000 0.78180  0.41530  0.16063  Biso   1.000  C
  C95      1.0000 0.78580  0.35730  0.12368  Biso   1.000  C
  C96      1.0000 0.84380  0.29820  0.13364  Biso   1.000  C
  C97      1.0000 0.89920  0.29690  0.17951  Biso   1.000  C
  C98      1.0000 0.72810  0.36060  0.07410  Biso   1.000  C
  C99      1.0000 0.70260  0.42910  0.05272  Biso   1.000  C
  C100     1.0000 0.64740  0.43270  0.00726  Biso   1.000  C
  C101     1.0000 0.61580  0.36950  0.98278  Biso   1.000  C
  C102     1.0000 0.64240  0.30020  0.00335  Biso   1.000  C
  C103     1.0000 0.69830  0.29630  0.04823  Biso   1.000  C
  C104     1.0000 0.55310  0.37290  0.93539  Biso   1.000  C
  N1       1.0000 0.53230  0.95134  0.85027  Biso   1.000  N
  N2       1.0000 0.47530  0.56303  0.84928  Biso   1.000  N
  N3       1.0000 0.03230  0.54866  0.35027  Biso   1.000  N
  N4       1.0000 0.97530  0.93697  0.34928  Biso   1.000  N
  O1       1.0000 0.66771  0.09123  0.84122  Biso   1.000  O
  O2       1.0000 0.62057  0.19775  0.87675  Biso   1.000  O
  O3       1.0000 0.34044  0.42097  0.85307  Biso   1.000  O
  O4       1.0000 0.38974  0.31251  0.82162  Biso   1.000  O
  O5       1.0000 0.47880  0.08158  0.91895  Biso   1.000  O
  O6       1.0000 0.41635  0.18841  0.89063  Biso   1.000  O
  O7       1.0000 0.02510  0.06813  0.28062  Biso   1.000  O
  O8       1.0000 0.09352  0.17162  0.30943  Biso   1.000  O
  O9       1.0000 0.46170  0.08047  0.78839  Biso   1.000  O
  O10      1.0000 0.50143  0.19894  0.77677  Biso   1.000  O
  O11      1.0000 0.04470  0.06394  0.41355  Biso   1.000  O
  O12      1.0000 0.01260  0.18438  0.42067  Biso   1.000  O
  O13      1.0000 0.16771  0.40877  0.34122  Biso   1.000  O
  O14      1.0000 0.12057  0.30225  0.37675  Biso   1.000  O
  O15      1.0000 0.84044  0.07903  0.35307  Biso   1.000  O
  O16      1.0000 0.88974  0.18749  0.32162  Biso   1.000  O
  O17      1.0000 0.97880  0.41842  0.41895  Biso   1.000  O
  O18      1.0000 0.91635  0.31159  0.39063  Biso   1.000  O
  O19      1.0000 0.52510  0.43187  0.78062  Biso   1.000  O
  O20      1.0000 0.59352  0.32838  0.80943  Biso   1.000  O
  O21      1.0000 0.96170  0.41953  0.28839  Biso   1.000  O
  O22      1.0000 0.00143  0.30106  0.27677  Biso   1.000  O
  O23      1.0000 0.54470  0.43606  0.91355  Biso   1.000  O
  O24      1.0000 0.51260  0.31562  0.92067  Biso   1.000  O
  Zn7      1.0000 0.96033  0.56459  0.64946  Biso   1.000  Zn
  Zn8      1.0000 0.99379  0.75634  0.65093  Biso   1.000  Zn
  Zn9      1.0000 0.03143  0.94992  0.64989  Biso   1.000  Zn
  Zn10     1.0000 0.46033  0.93541  0.14946  Biso   1.000  Zn
  Zn11     1.0000 0.49379  0.74366  0.15093  Biso   1.000  Zn
  Zn12     1.0000 0.53143  0.55008  0.14989  Biso   1.000  Zn
  H65      1.0000 0.01400  0.44330  0.57510  Biso   1.000  H
  H66      1.0000 0.03280  0.31540  0.57310  Biso   1.000  H
  H67      1.0000 0.94400  0.31050  0.72890  Biso   1.000  H
  H68      1.0000 0.92820  0.43700  0.72550  Biso   1.000  H
  H69      1.0000 0.97610  0.07130  0.57610  Biso   1.000  H
  H70      1.0000 0.95570  0.19840  0.57460  Biso   1.000  H
  H71      1.0000 0.05270  0.20640  0.72760  Biso   1.000  H
  H72      1.0000 0.07100  0.07860  0.72490  Biso   1.000  H
  H73      1.0000 0.66720  0.59370  0.68140  Biso   1.000  H
  H74      1.0000 0.51710  0.63850  0.68540  Biso   1.000  H
  H75      1.0000 0.59980  0.83190  0.61760  Biso   1.000  H
  H76      1.0000 0.74990  0.78700  0.61370  Biso   1.000  H
  H77      1.0000 0.48070  0.87910  0.65190  Biso   1.000  H
  H78      1.0000 0.33270  0.92470  0.65490  Biso   1.000  H
  H79      1.0000 0.23440  0.71660  0.66750  Biso   1.000  H
  H80      1.0000 0.38240  0.66940  0.66020  Biso   1.000  H
  H81      1.0000 0.12500  0.52640  0.51230  Biso   1.000  H
  H82      1.0000 0.21400  0.52630  0.43450  Biso   1.000  H
  H83      1.0000 0.23840  0.75040  0.44370  Biso   1.000  H
  H84      1.0000 0.15400  0.74930  0.52420  Biso   1.000  H
  H85      1.0000 0.34340  0.53580  0.39000  Biso   1.000  H
  H86      1.0000 0.42160  0.53020  0.30800  Biso   1.000  H
  H87      1.0000 0.31920  0.73050  0.26750  Biso   1.000  H
  H88      1.0000 0.24760  0.73920  0.35110  Biso   1.000  H
  H89      1.0000 0.16420  0.54440  0.77020  Biso   1.000  H
  H90      1.0000 0.25950  0.54480  0.84500  Biso   1.000  H
  H91      1.0000 0.15400  0.74190  0.89110  Biso   1.000  H
  H92      1.0000 0.06220  0.74440  0.81380  Biso   1.000  H
  H93      1.0000 0.27690  0.52650  0.93060  Biso   1.000  H
  H94      1.0000 0.36880  0.52030  0.00710  Biso   1.000  H
  H95      1.0000 0.37810  0.74400  0.01360  Biso   1.000  H
  H96      1.0000 0.28340  0.75080  0.93840  Biso   1.000  H
  H97      1.0000 0.51400  0.05670  0.07510  Biso   1.000  H
  H98      1.0000 0.53280  0.18460  0.07310  Biso   1.000  H
  H99      1.0000 0.44400  0.18950  0.22890  Biso   1.000  H
  H100     1.0000 0.42820  0.06300  0.22550  Biso   1.000  H
  H101     1.0000 0.47610  0.42870  0.07610  Biso   1.000  H
  H102     1.0000 0.45570  0.30160  0.07460  Biso   1.000  H
  H103     1.0000 0.55270  0.29360  0.22760  Biso   1.000  H
  H104     1.0000 0.57100  0.42140  0.22490  Biso   1.000  H
  H105     1.0000 0.16720  0.90630  0.18140  Biso   1.000  H
  H106     1.0000 0.01710  0.86150  0.18540  Biso   1.000  H
  H107     1.0000 0.09980  0.66810  0.11760  Biso   1.000  H
  H108     1.0000 0.24990  0.71300  0.11370  Biso   1.000  H
  H109     1.0000 0.98070  0.62090  0.15190  Biso   1.000  H
  H110     1.0000 0.83270  0.57530  0.15490  Biso   1.000  H
  H111     1.0000 0.73440  0.78340  0.16750  Biso   1.000  H
  H112     1.0000 0.88240  0.83060  0.16020  Biso   1.000  H
  H113     1.0000 0.62500  0.97360  0.01230  Biso   1.000  H
  H114     1.0000 0.71400  0.97370  0.93450  Biso   1.000  H
  H115     1.0000 0.73840  0.74960  0.94370  Biso   1.000  H
  H116     1.0000 0.65400  0.75070  0.02420  Biso   1.000  H
  H117     1.0000 0.84340  0.96420  0.89000  Biso   1.000  H
  H118     1.0000 0.92160  0.96980  0.80800  Biso   1.000  H
  H119     1.0000 0.81920  0.76950  0.76750  Biso   1.000  H
  H120     1.0000 0.74760  0.76080  0.85110  Biso   1.000  H
  H121     1.0000 0.66420  0.95560  0.27020  Biso   1.000  H
  H122     1.0000 0.75950  0.95520  0.34500  Biso   1.000  H
  H123     1.0000 0.65400  0.75810  0.39110  Biso   1.000  H
  H124     1.0000 0.56220  0.75560  0.31380  Biso   1.000  H
  H125     1.0000 0.77690  0.97350  0.43060  Biso   1.000  H
  H126     1.0000 0.86880  0.97970  0.50710  Biso   1.000  H
  H127     1.0000 0.87810  0.75600  0.51360  Biso   1.000  H
  H128     1.0000 0.78340  0.74920  0.43840  Biso   1.000  H
  C105     1.0000 0.99920  0.41530  0.60632  Biso   1.000  C
  C106     1.0000 0.01130  0.33920  0.60488  Biso   1.000  C
  C107     1.0000 0.99110  0.29811  0.65101  Biso   1.000  C
  C108     1.0000 0.95880  0.33660  0.69678  Biso   1.000  C
  C109     1.0000 0.94910  0.41160  0.69430  Biso   1.000  C
  C110     1.0000 0.99170  0.09930  0.60725  Biso   1.000  C
  C111     1.0000 0.97960  0.17500  0.60595  Biso   1.000  C
  C112     1.0000 0.00270  0.21671  0.65090  Biso   1.000  C
  C113     1.0000 0.03680  0.17960  0.69596  Biso   1.000  C
  C114     1.0000 0.04710  0.10330  0.69414  Biso   1.000  C
  C115     1.0000 0.81870  0.65740  0.64347  Biso   1.000  C
  C116     1.0000 0.72300  0.68610  0.64747  Biso   1.000  C
  C117     1.0000 0.65370  0.64220  0.66869  Biso   1.000  C
  C118     1.0000 0.56420  0.66920  0.67134  Biso   1.000  C
  C119     1.0000 0.54310  0.74078  0.65352  Biso   1.000  C
  C120     1.0000 0.61320  0.78380  0.63113  Biso   1.000  C
  C121     1.0000 0.70270  0.75690  0.62850  Biso   1.000  C
  C122     1.0000 0.44740  0.76940  0.65715  Biso   1.000  C
  C123     1.0000 0.43070  0.84560  0.65470  Biso   1.000  C
  C124     1.0000 0.34280  0.87270  0.65629  Biso   1.000  C
  C125     1.0000 0.26880  0.82500  0.65986  Biso   1.000  C
  C126     1.0000 0.28460  0.74960  0.66315  Biso   1.000  C
  C127     1.0000 0.37280  0.72150  0.66016  Biso   1.000  C
  C128     1.0000 0.17260  0.85360  0.66122  Biso   1.000  C
  C129     1.0000 0.07410  0.63730  0.57546  Biso   1.000  C
  C130     1.0000 0.13160  0.63840  0.52550  Biso   1.000  C
  C131     1.0000 0.14890  0.57160  0.49864  Biso   1.000  C
  C132     1.0000 0.20090  0.57180  0.45216  Biso   1.000  C
  C133     1.0000 0.23460  0.63840  0.43063  Biso   1.000  C
  C134     1.0000 0.21620  0.70480  0.45777  Biso   1.000  C
  C135     1.0000 0.16530  0.70430  0.50550  Biso   1.000  C
  C136     1.0000 0.28610  0.63700  0.37872  Biso   1.000  C
  C137     1.0000 0.33890  0.57590  0.36531  Biso   1.000  C
  C138     1.0000 0.38530  0.57230  0.31646  Biso   1.000  C
  C139     1.0000 0.37830  0.63030  0.28041  Biso   1.000  C
  C140     1.0000 0.32530  0.69140  0.29290  Biso   1.000  C
  C141     1.0000 0.28130  0.69590  0.34211  Biso   1.000  C
  C142     1.0000 0.42370  0.62430  0.22632  Biso   1.000  C
  C143     1.0000 0.04300  0.64180  0.73546  Biso   1.000  C
  C144     1.0000 0.10240  0.64340  0.78426  Biso   1.000  C
  C145     1.0000 0.16210  0.58500  0.79457  Biso   1.000  C
  C146     1.0000 0.21820  0.58470  0.83937  Biso   1.000  C
  C147     1.0000 0.21420  0.64270  0.87632  Biso   1.000  C
  C148     1.0000 0.15620  0.70180  0.86636  Biso   1.000  C
  C149     1.0000 0.10080  0.70310  0.82049  Biso   1.000  C
  C150     1.0000 0.27190  0.63940  0.92590  Biso   1.000  C
  C151     1.0000 0.29740  0.57090  0.94728  Biso   1.000  C
  C152     1.0000 0.35260  0.56730  0.99274  Biso   1.000  C
  C153     1.0000 0.38420  0.63050  0.01722  Biso   1.000  C
  C154     1.0000 0.35760  0.69980  0.99665  Biso   1.000  C
  C155     1.0000 0.30170  0.70370  0.95177  Biso   1.000  C
  C156     1.0000 0.44690  0.62710  0.06461  Biso   1.000  C
  C157     1.0000 0.49920  0.08470  0.10632  Biso   1.000  C
  C158     1.0000 0.51130  0.16080  0.10488  Biso   1.000  C
  C159     1.0000 0.49110  0.20189  0.15101  Biso   1.000  C
  C160     1.0000 0.45880  0.16340  0.19678  Biso   1.000  C
  C161     1.0000 0.44910  0.08840  0.19430  Biso   1.000  C
  C162     1.0000 0.49170  0.40070  0.10725  Biso   1.000  C
  C163     1.0000 0.47960  0.32500  0.10595  Biso   1.000  C
  C164     1.0000 0.50270  0.28329  0.15090  Biso   1.000  C
  C165     1.0000 0.53680  0.32040  0.19596  Biso   1.000  C
  C166     1.0000 0.54710  0.39670  0.19414  Biso   1.000  C
  C167     1.0000 0.31870  0.84260  0.14347  Biso   1.000  C
  C168     1.0000 0.22300  0.81390  0.14747  Biso   1.000  C
  C169     1.0000 0.15370  0.85780  0.16869  Biso   1.000  C
  C170     1.0000 0.06420  0.83080  0.17134  Biso   1.000  C
  C171     1.0000 0.04310  0.75922  0.15352  Biso   1.000  C
  C172     1.0000 0.11320  0.71620  0.13113  Biso   1.000  C
  C173     1.0000 0.20270  0.74310  0.12850  Biso   1.000  C
  C174     1.0000 0.94740  0.73060  0.15715  Biso   1.000  C
  C175     1.0000 0.93070  0.65440  0.15470  Biso   1.000  C
  C176     1.0000 0.84280  0.62730  0.15629  Biso   1.000  C
  C177     1.0000 0.76880  0.67500  0.15986  Biso   1.000  C
  C178     1.0000 0.78460  0.75040  0.16315  Biso   1.000  C
  C179     1.0000 0.87280  0.77850  0.16016  Biso   1.000  C
  C180     1.0000 0.67260  0.64640  0.16122  Biso   1.000  C
  C181     1.0000 0.57410  0.86270  0.07546  Biso   1.000  C
  C182     1.0000 0.63160  0.86160  0.02550  Biso   1.000  C
  C183     1.0000 0.64890  0.92840  0.99864  Biso   1.000  C
  C184     1.0000 0.70090  0.92820  0.95216  Biso   1.000  C
  C185     1.0000 0.73460  0.86160  0.93063  Biso   1.000  C
  C186     1.0000 0.71620  0.79520  0.95777  Biso   1.000  C
  C187     1.0000 0.66530  0.79570  0.00550  Biso   1.000  C
  C188     1.0000 0.78610  0.86300  0.87872  Biso   1.000  C
  C189     1.0000 0.83890  0.92410  0.86531  Biso   1.000  C
  C190     1.0000 0.88530  0.92770  0.81646  Biso   1.000  C
  C191     1.0000 0.87830  0.86970  0.78041  Biso   1.000  C
  C192     1.0000 0.82530  0.80860  0.79290  Biso   1.000  C
  C193     1.0000 0.78130  0.80410  0.84211  Biso   1.000  C
  C194     1.0000 0.92370  0.87570  0.72632  Biso   1.000  C
  C195     1.0000 0.54300  0.85820  0.23546  Biso   1.000  C
  C196     1.0000 0.60240  0.85660  0.28426  Biso   1.000  C
  C197     1.0000 0.66210  0.91500  0.29457  Biso   1.000  C
  C198     1.0000 0.71820  0.91530  0.33937  Biso   1.000  C
  C199     1.0000 0.71420  0.85730  0.37632  Biso   1.000  C
  C200     1.0000 0.65620  0.79820  0.36636  Biso   1.000  C
  C201     1.0000 0.60080  0.79690  0.32049  Biso   1.000  C
  C202     1.0000 0.77190  0.86060  0.42590  Biso   1.000  C
  C203     1.0000 0.79740  0.92910  0.44728  Biso   1.000  C
  C204     1.0000 0.85260  0.93270  0.49274  Biso   1.000  C
  C205     1.0000 0.88420  0.86950  0.51722  Biso   1.000  C
  C206     1.0000 0.85760  0.80020  0.49665  Biso   1.000  C
  C207     1.0000 0.80170  0.79630  0.45177  Biso   1.000  C
  C208     1.0000 0.94690  0.87290  0.56461  Biso   1.000  C
  N5       1.0000 0.96770  0.45134  0.64973  Biso   1.000  N
  N6       1.0000 0.02470  0.06303  0.65072  Biso   1.000  N
  N7       1.0000 0.46770  0.04866  0.14973  Biso   1.000  N
  N8       1.0000 0.52470  0.43697  0.15072  Biso   1.000  N
  O25      1.0000 0.83229  0.59123  0.65878  Biso   1.000  O
  O26      1.0000 0.87943  0.69775  0.62325  Biso   1.000  O
  O27      1.0000 0.15956  0.92097  0.64693  Biso   1.000  O
  O28      1.0000 0.11026  0.81251  0.67838  Biso   1.000  O
  O29      1.0000 0.02120  0.58158  0.58105  Biso   1.000  O
  O30      1.0000 0.08365  0.68841  0.60937  Biso   1.000  O
  O31      1.0000 0.47490  0.56813  0.21938  Biso   1.000  O
  O32      1.0000 0.40648  0.67162  0.19057  Biso   1.000  O
  O33      1.0000 0.03830  0.58047  0.71161  Biso   1.000  O
  O34      1.0000 0.99857  0.69894  0.72323  Biso   1.000  O
  O35      1.0000 0.45530  0.56394  0.08645  Biso   1.000  O
  O36      1.0000 0.48740  0.68438  0.07933  Biso   1.000  O
  O37      1.0000 0.33229  0.90877  0.15878  Biso   1.000  O
  O38      1.0000 0.37943  0.80225  0.12325  Biso   1.000  O
  O39      1.0000 0.65956  0.57903  0.14693  Biso   1.000  O
  O40      1.0000 0.61026  0.68749  0.17838  Biso   1.000  O
  O41      1.0000 0.52120  0.91842  0.08105  Biso   1.000  O
  O42      1.0000 0.58365  0.81159  0.10937  Biso   1.000  O
  O43      1.0000 0.97490  0.93187  0.71938  Biso   1.000  O
  O44      1.0000 0.90648  0.82838  0.69057  Biso   1.000  O
  O45      1.0000 0.53830  0.91953  0.21161  Biso   1.000  O
  O46      1.0000 0.49857  0.80106  0.22323  Biso   1.000  O
  O47      1.0000 0.95530  0.93606  0.58645  Biso   1.000  O
  O48      1.0000 0.98740  0.81562  0.57933  Biso   1.000  O
