data_image0
_cell_length_a       23.716
_cell_length_b       23.716
_cell_length_c       13.447
_cell_angle_alpha    90
_cell_angle_beta     90
_cell_angle_gamma    120

_symmetry_space_group_name_H-M    "P 1"
_symmetry_int_tables_number       1

loop_
  _symmetry_equiv_pos_as_xyz
  'x, y, z'

loop_
  _atom_site_label
  _atom_site_occupancy
  _atom_site_fract_x
  _atom_site_fract_y
  _atom_site_fract_z
  _atom_site_thermal_displace_type
  _atom_site_B_iso_or_equiv
  _atom_site_type_symbol
  Ga1      1.0000 0.36008  0.09296  0.12055  Biso   1.000  Ga
  Cr1      1.0000 0.35001  0.24270  0.91476  Biso   1.000  Cr
  P1       1.0000 0.41877  0.23605  0.11916  Biso   1.000  P
  P2       1.0000 0.32672  0.98706  0.27788  Biso   1.000  P
  O1       1.0000 0.36699  0.21028  0.03710  Biso   1.000  O
  O2       1.0000 0.42178  0.17516  0.15640  Biso   1.000  O
  O3       1.0000 0.39110  0.25907  0.20610  Biso   1.000  O
  O4       1.0000 0.48401  0.28900  0.09020  Biso   1.000  O
  O5       1.0000 0.37497  0.04450  0.21220  Biso   1.000  O
  O6       1.0000 0.36726  0.95901  0.32610  Biso   1.000  O
  O7       1.0000 0.27166  0.93510  0.21840  Biso   1.000  O
  O8       1.0000 0.30031  0.01093  0.36090  Biso   1.000  O
  N1       1.0000 0.44440  0.27530  0.86920  Biso   1.000  N
  N2       1.0000 0.33250  0.15710  0.85090  Biso   1.000  N
  N3       1.0000 0.25130  0.18880  0.94050  Biso   1.000  N
  C1       1.0000 0.44710  0.21800  0.82990  Biso   1.000  C
  C2       1.0000 0.38470  0.17190  0.78060  Biso   1.000  C
  C3       1.0000 0.26500  0.12240  0.81660  Biso   1.000  C
  C4       1.0000 0.22410  0.12130  0.90260  Biso   1.000  C
  H1       1.0000 0.47700  0.29570  0.92520  Biso   1.000  H
  H2       1.0000 0.45710  0.30320  0.82110  Biso   1.000  H
  H3       1.0000 0.33030  0.12360  0.89680  Biso   1.000  H
  H4       1.0000 0.22870  0.20080  0.91180  Biso   1.000  H
  H5       1.0000 0.24700  0.19360  0.01770  Biso   1.000  H
  H6       1.0000 0.44900  0.19150  0.88920  Biso   1.000  H
  H7       1.0000 0.48720  0.23640  0.79950  Biso   1.000  H
  H8       1.0000 0.38190  0.13070  0.75190  Biso   1.000  H
  H9       1.0000 0.38360  0.19690  0.72520  Biso   1.000  H
  H10      1.0000 0.25360  0.07830  0.80660  Biso   1.000  H
  H11      1.0000 0.26140  0.14760  0.75960  Biso   1.000  H
  H12      1.0000 0.18020  0.10550  0.87800  Biso   1.000  H
  H13      1.0000 0.22980  0.10120  0.95400  Biso   1.000  H
  Ga2      1.0000 0.24270  0.89269  0.08524  Biso   1.000  Ga
  Ga3      1.0000 0.02675  0.42629  0.45388  Biso   1.000  Ga
  Cr2      1.0000 0.01668  0.57603  0.24809  Biso   1.000  Cr
  P3       1.0000 0.08544  0.56938  0.45249  Biso   1.000  P
  P4       1.0000 0.99339  0.32039  0.61121  Biso   1.000  P
  O9       1.0000 0.03366  0.54361  0.37043  Biso   1.000  O
  O10      1.0000 0.08845  0.50849  0.48973  Biso   1.000  O
  O11      1.0000 0.05777  0.59240  0.53943  Biso   1.000  O
  O12      1.0000 0.15068  0.62233  0.42353  Biso   1.000  O
  O13      1.0000 0.04164  0.37783  0.54553  Biso   1.000  O
  O14      1.0000 0.03393  0.29234  0.65943  Biso   1.000  O
  O15      1.0000 0.93833  0.26843  0.55173  Biso   1.000  O
  O16      1.0000 0.96698  0.34426  0.69423  Biso   1.000  O
  N4       1.0000 0.11107  0.60863  0.20253  Biso   1.000  N
  N5       1.0000 0.99917  0.49043  0.18423  Biso   1.000  N
  N6       1.0000 0.91797  0.52213  0.27383  Biso   1.000  N
  C5       1.0000 0.11377  0.55133  0.16323  Biso   1.000  C
  C6       1.0000 0.05137  0.50523  0.11393  Biso   1.000  C
  C7       1.0000 0.93167  0.45573  0.14993  Biso   1.000  C
  C8       1.0000 0.89077  0.45463  0.23593  Biso   1.000  C
  H14      1.0000 0.14367  0.62903  0.25853  Biso   1.000  H
  H15      1.0000 0.12377  0.63653  0.15443  Biso   1.000  H
  H16      1.0000 0.99697  0.45693  0.23013  Biso   1.000  H
  H17      1.0000 0.89537  0.53413  0.24513  Biso   1.000  H
  H18      1.0000 0.91367  0.52693  0.35103  Biso   1.000  H
  H19      1.0000 0.11567  0.52483  0.22253  Biso   1.000  H
  H20      1.0000 0.15387  0.56973  0.13283  Biso   1.000  H
  H21      1.0000 0.04857  0.46403  0.08523  Biso   1.000  H
  H22      1.0000 0.05027  0.53023  0.05853  Biso   1.000  H
  H23      1.0000 0.92027  0.41163  0.13993  Biso   1.000  H
  H24      1.0000 0.92807  0.48093  0.09293  Biso   1.000  H
  H25      1.0000 0.84687  0.43883  0.21133  Biso   1.000  H
  H26      1.0000 0.89647  0.43453  0.28733  Biso   1.000  H
  Ga4      1.0000 0.90937  0.22602  0.41857  Biso   1.000  Ga
  Ga5      1.0000 0.69341  0.75963  0.78722  Biso   1.000  Ga
  Cr3      1.0000 0.68334  0.90937  0.58143  Biso   1.000  Cr
  P5       1.0000 0.75210  0.90272  0.78583  Biso   1.000  P
  P6       1.0000 0.66005  0.65373  0.94455  Biso   1.000  P
  O17      1.0000 0.70032  0.87695  0.70377  Biso   1.000  O
  O18      1.0000 0.75511  0.84183  0.82307  Biso   1.000  O
  O19      1.0000 0.72443  0.92574  0.87277  Biso   1.000  O
  O20      1.0000 0.81734  0.95567  0.75687  Biso   1.000  O
  O21      1.0000 0.70830  0.71117  0.87887  Biso   1.000  O
  O22      1.0000 0.70059  0.62568  0.99277  Biso   1.000  O
  O23      1.0000 0.60499  0.60177  0.88507  Biso   1.000  O
  O24      1.0000 0.63364  0.67760  0.02757  Biso   1.000  O
  N7       1.0000 0.77773  0.94197  0.53587  Biso   1.000  N
  N8       1.0000 0.66583  0.82377  0.51757  Biso   1.000  N
  N9       1.0000 0.58463  0.85547  0.60717  Biso   1.000  N
  C9       1.0000 0.78043  0.88467  0.49657  Biso   1.000  C
  C10      1.0000 0.71803  0.83857  0.44727  Biso   1.000  C
  C11      1.0000 0.59833  0.78907  0.48327  Biso   1.000  C
  C12      1.0000 0.55743  0.78797  0.56927  Biso   1.000  C
  H27      1.0000 0.81033  0.96237  0.59187  Biso   1.000  H
  H28      1.0000 0.79043  0.96987  0.48777  Biso   1.000  H
  H29      1.0000 0.66363  0.79027  0.56347  Biso   1.000  H
  H30      1.0000 0.56203  0.86747  0.57847  Biso   1.000  H
  H31      1.0000 0.58033  0.86027  0.68437  Biso   1.000  H
  H32      1.0000 0.78233  0.85817  0.55587  Biso   1.000  H
  H33      1.0000 0.82053  0.90307  0.46617  Biso   1.000  H
  H34      1.0000 0.71523  0.79737  0.41857  Biso   1.000  H
  H35      1.0000 0.71693  0.86357  0.39187  Biso   1.000  H
  H36      1.0000 0.58693  0.74497  0.47327  Biso   1.000  H
  H37      1.0000 0.59473  0.81427  0.42627  Biso   1.000  H
  H38      1.0000 0.51353  0.77217  0.54467  Biso   1.000  H
  H39      1.0000 0.56313  0.76787  0.62067  Biso   1.000  H
  Ga6      1.0000 0.57603  0.55936  0.75191  Biso   1.000  Ga
  Ga7      1.0000 0.90704  0.26712  0.12055  Biso   1.000  Ga
  Cr4      1.0000 0.75730  0.10731  0.91476  Biso   1.000  Cr
  P7       1.0000 0.76395  0.18272  0.11916  Biso   1.000  P
  P8       1.0000 0.01294  0.33966  0.27788  Biso   1.000  P
  O25      1.0000 0.78972  0.15671  0.03710  Biso   1.000  O
  O26      1.0000 0.82484  0.24662  0.15640  Biso   1.000  O
  O27      1.0000 0.74093  0.13203  0.20610  Biso   1.000  O
  O28      1.0000 0.71100  0.19501  0.09020  Biso   1.000  O
  O29      1.0000 0.95550  0.33047  0.21220  Biso   1.000  O
  O30      1.0000 0.04099  0.40825  0.32610  Biso   1.000  O
  O31      1.0000 0.06490  0.33656  0.21840  Biso   1.000  O
  O32      1.0000 0.98907  0.28938  0.36090  Biso   1.000  O
  N10      1.0000 0.72470  0.16910  0.86920  Biso   1.000  N
  N11      1.0000 0.84290  0.17540  0.85090  Biso   1.000  N
  N12      1.0000 0.81120  0.06250  0.94050  Biso   1.000  N
  C13      1.0000 0.78200  0.22910  0.82990  Biso   1.000  C
  C14      1.0000 0.82810  0.21280  0.78060  Biso   1.000  C
  C15      1.0000 0.87760  0.14260  0.81660  Biso   1.000  C
  C16      1.0000 0.87870  0.10280  0.90260  Biso   1.000  C
  H40      1.0000 0.70430  0.18130  0.92520  Biso   1.000  H
  H41      1.0000 0.69680  0.15390  0.82110  Biso   1.000  H
  H42      1.0000 0.87640  0.20670  0.89680  Biso   1.000  H
  H43      1.0000 0.79920  0.02790  0.91180  Biso   1.000  H
  H44      1.0000 0.80640  0.05340  0.01770  Biso   1.000  H
  H45      1.0000 0.80850  0.25750  0.88920  Biso   1.000  H
  H46      1.0000 0.76360  0.25080  0.79950  Biso   1.000  H
  H47      1.0000 0.86930  0.25120  0.75190  Biso   1.000  H
  H48      1.0000 0.80310  0.18670  0.72520  Biso   1.000  H
  H49      1.0000 0.92170  0.17530  0.80660  Biso   1.000  H
  H50      1.0000 0.85240  0.11380  0.75960  Biso   1.000  H
  H51      1.0000 0.89450  0.07470  0.87800  Biso   1.000  H
  H52      1.0000 0.89880  0.12860  0.95400  Biso   1.000  H
  Ga8      1.0000 0.10731  0.35001  0.08524  Biso   1.000  Ga
  Ga9      1.0000 0.57371  0.60045  0.45388  Biso   1.000  Ga
  Cr5      1.0000 0.42397  0.44064  0.24809  Biso   1.000  Cr
  P9       1.0000 0.43062  0.51605  0.45249  Biso   1.000  P
  P10      1.0000 0.67961  0.67299  0.61121  Biso   1.000  P
  O33      1.0000 0.45639  0.49004  0.37043  Biso   1.000  O
  O34      1.0000 0.49151  0.57995  0.48973  Biso   1.000  O
  O35      1.0000 0.40760  0.46536  0.53943  Biso   1.000  O
  O36      1.0000 0.37767  0.52834  0.42353  Biso   1.000  O
  O37      1.0000 0.62217  0.66380  0.54553  Biso   1.000  O
  O38      1.0000 0.70766  0.74158  0.65943  Biso   1.000  O
  O39      1.0000 0.73157  0.66989  0.55173  Biso   1.000  O
  O40      1.0000 0.65574  0.62271  0.69423  Biso   1.000  O
  N13      1.0000 0.39137  0.50243  0.20253  Biso   1.000  N
  N14      1.0000 0.50957  0.50873  0.18423  Biso   1.000  N
  N15      1.0000 0.47787  0.39583  0.27383  Biso   1.000  N
  C17      1.0000 0.44867  0.56243  0.16323  Biso   1.000  C
  C18      1.0000 0.49477  0.54613  0.11393  Biso   1.000  C
  C19      1.0000 0.54427  0.47593  0.14993  Biso   1.000  C
  C20      1.0000 0.54537  0.43613  0.23593  Biso   1.000  C
  H53      1.0000 0.37097  0.51463  0.25853  Biso   1.000  H
  H54      1.0000 0.36347  0.48723  0.15443  Biso   1.000  H
  H55      1.0000 0.54307  0.54003  0.23013  Biso   1.000  H
  H56      1.0000 0.46587  0.36123  0.24513  Biso   1.000  H
  H57      1.0000 0.47307  0.38673  0.35103  Biso   1.000  H
  H58      1.0000 0.47517  0.59083  0.22253  Biso   1.000  H
  H59      1.0000 0.43027  0.58413  0.13283  Biso   1.000  H
  H60      1.0000 0.53597  0.58453  0.08523  Biso   1.000  H
  H61      1.0000 0.46977  0.52003  0.05853  Biso   1.000  H
  H62      1.0000 0.58837  0.50863  0.13993  Biso   1.000  H
  H63      1.0000 0.51907  0.44713  0.09293  Biso   1.000  H
  H64      1.0000 0.56117  0.40803  0.21133  Biso   1.000  H
  H65      1.0000 0.56547  0.46193  0.28733  Biso   1.000  H
  Ga10     1.0000 0.77398  0.68334  0.41857  Biso   1.000  Ga
  Ga11     1.0000 0.24037  0.93379  0.78722  Biso   1.000  Ga
  Cr6      1.0000 0.09063  0.77398  0.58143  Biso   1.000  Cr
  P11      1.0000 0.09728  0.84939  0.78583  Biso   1.000  P
  P12      1.0000 0.34627  0.00633  0.94455  Biso   1.000  P
  O41      1.0000 0.12305  0.82338  0.70377  Biso   1.000  O
  O42      1.0000 0.15817  0.91329  0.82307  Biso   1.000  O
  O43      1.0000 0.07426  0.79870  0.87277  Biso   1.000  O
  O44      1.0000 0.04433  0.86168  0.75687  Biso   1.000  O
  O45      1.0000 0.28883  0.99714  0.87887  Biso   1.000  O
  O46      1.0000 0.37432  0.07492  0.99277  Biso   1.000  O
  O47      1.0000 0.39823  0.00323  0.88507  Biso   1.000  O
  O48      1.0000 0.32240  0.95605  0.02757  Biso   1.000  O
  N16      1.0000 0.05803  0.83577  0.53587  Biso   1.000  N
  N17      1.0000 0.17623  0.84207  0.51757  Biso   1.000  N
  N18      1.0000 0.14453  0.72917  0.60717  Biso   1.000  N
  C21      1.0000 0.11533  0.89577  0.49657  Biso   1.000  C
  C22      1.0000 0.16143  0.87947  0.44727  Biso   1.000  C
  C23      1.0000 0.21093  0.80927  0.48327  Biso   1.000  C
  C24      1.0000 0.21203  0.76947  0.56927  Biso   1.000  C
  H66      1.0000 0.03763  0.84797  0.59187  Biso   1.000  H
  H67      1.0000 0.03013  0.82057  0.48777  Biso   1.000  H
  H68      1.0000 0.20973  0.87337  0.56347  Biso   1.000  H
  H69      1.0000 0.13253  0.69457  0.57847  Biso   1.000  H
  H70      1.0000 0.13973  0.72007  0.68437  Biso   1.000  H
  H71      1.0000 0.14183  0.92417  0.55587  Biso   1.000  H
  H72      1.0000 0.09693  0.91747  0.46617  Biso   1.000  H
  H73      1.0000 0.20263  0.91787  0.41857  Biso   1.000  H
  H74      1.0000 0.13643  0.85337  0.39187  Biso   1.000  H
  H75      1.0000 0.25503  0.84197  0.47327  Biso   1.000  H
  H76      1.0000 0.18573  0.78047  0.42627  Biso   1.000  H
  H77      1.0000 0.22783  0.74137  0.54467  Biso   1.000  H
  H78      1.0000 0.23213  0.79527  0.62067  Biso   1.000  H
  Ga12     1.0000 0.44064  0.01668  0.75191  Biso   1.000  Ga
  Ga13     1.0000 0.73288  0.63992  0.12055  Biso   1.000  Ga
  Cr7      1.0000 0.89269  0.64999  0.91476  Biso   1.000  Cr
  P13      1.0000 0.81728  0.58123  0.11916  Biso   1.000  P
  P14      1.0000 0.66034  0.67328  0.27788  Biso   1.000  P
  O49      1.0000 0.84329  0.63301  0.03710  Biso   1.000  O
  O50      1.0000 0.75338  0.57822  0.15640  Biso   1.000  O
  O51      1.0000 0.86797  0.60890  0.20610  Biso   1.000  O
  O52      1.0000 0.80499  0.51599  0.09020  Biso   1.000  O
  O53      1.0000 0.66953  0.62503  0.21220  Biso   1.000  O
  O54      1.0000 0.59175  0.63274  0.32610  Biso   1.000  O
  O55      1.0000 0.66344  0.72834  0.21840  Biso   1.000  O
  O56      1.0000 0.71062  0.69969  0.36090  Biso   1.000  O
  N19      1.0000 0.83090  0.55560  0.86920  Biso   1.000  N
  N20      1.0000 0.82460  0.66750  0.85090  Biso   1.000  N
  N21      1.0000 0.93750  0.74870  0.94050  Biso   1.000  N
  C25      1.0000 0.77090  0.55290  0.82990  Biso   1.000  C
  C26      1.0000 0.78720  0.61530  0.78060  Biso   1.000  C
  C27      1.0000 0.85740  0.73500  0.81660  Biso   1.000  C
  C28      1.0000 0.89720  0.77590  0.90260  Biso   1.000  C
  H79      1.0000 0.81870  0.52300  0.92520  Biso   1.000  H
  H80      1.0000 0.84610  0.54290  0.82110  Biso   1.000  H
  H81      1.0000 0.79330  0.66970  0.89680  Biso   1.000  H
  H82      1.0000 0.97210  0.77130  0.91180  Biso   1.000  H
  H83      1.0000 0.94660  0.75300  0.01770  Biso   1.000  H
  H84      1.0000 0.74250  0.55100  0.88920  Biso   1.000  H
  H85      1.0000 0.74920  0.51280  0.79950  Biso   1.000  H
  H86      1.0000 0.74880  0.61810  0.75190  Biso   1.000  H
  H87      1.0000 0.81330  0.61640  0.72520  Biso   1.000  H
  H88      1.0000 0.82470  0.74640  0.80660  Biso   1.000  H
  H89      1.0000 0.88620  0.73860  0.75960  Biso   1.000  H
  H90      1.0000 0.92530  0.81980  0.87800  Biso   1.000  H
  H91      1.0000 0.87140  0.77020  0.95400  Biso   1.000  H
  Ga14     1.0000 0.64999  0.75730  0.08524  Biso   1.000  Ga
  Ga15     1.0000 0.39955  0.97325  0.45388  Biso   1.000  Ga
  Cr8      1.0000 0.55936  0.98332  0.24809  Biso   1.000  Cr
  P15      1.0000 0.48395  0.91456  0.45249  Biso   1.000  P
  P16      1.0000 0.32701  0.00661  0.61121  Biso   1.000  P
  O57      1.0000 0.50996  0.96634  0.37043  Biso   1.000  O
  O58      1.0000 0.42005  0.91155  0.48973  Biso   1.000  O
  O59      1.0000 0.53464  0.94223  0.53943  Biso   1.000  O
  O60      1.0000 0.47166  0.84932  0.42353  Biso   1.000  O
  O61      1.0000 0.33620  0.95836  0.54553  Biso   1.000  O
  O62      1.0000 0.25842  0.96607  0.65943  Biso   1.000  O
  O63      1.0000 0.33011  0.06167  0.55173  Biso   1.000  O
  O64      1.0000 0.37729  0.03302  0.69423  Biso   1.000  O
  N22      1.0000 0.49757  0.88893  0.20253  Biso   1.000  N
  N23      1.0000 0.49127  0.00083  0.18423  Biso   1.000  N
  N24      1.0000 0.60417  0.08203  0.27383  Biso   1.000  N
  C29      1.0000 0.43757  0.88623  0.16323  Biso   1.000  C
  C30      1.0000 0.45387  0.94863  0.11393  Biso   1.000  C
  C31      1.0000 0.52407  0.06833  0.14993  Biso   1.000  C
  C32      1.0000 0.56387  0.10923  0.23593  Biso   1.000  C
  H92      1.0000 0.48537  0.85633  0.25853  Biso   1.000  H
  H93      1.0000 0.51277  0.87623  0.15443  Biso   1.000  H
  H94      1.0000 0.45997  0.00303  0.23013  Biso   1.000  H
  H95      1.0000 0.63877  0.10463  0.24513  Biso   1.000  H
  H96      1.0000 0.61327  0.08633  0.35103  Biso   1.000  H
  H97      1.0000 0.40917  0.88433  0.22253  Biso   1.000  H
  H98      1.0000 0.41587  0.84613  0.13283  Biso   1.000  H
  H99      1.0000 0.41547  0.95143  0.08523  Biso   1.000  H
  H100     1.0000 0.47997  0.94973  0.05853  Biso   1.000  H
  H101     1.0000 0.49137  0.07973  0.13993  Biso   1.000  H
  H102     1.0000 0.55287  0.07193  0.09293  Biso   1.000  H
  H103     1.0000 0.59197  0.15313  0.21133  Biso   1.000  H
  H104     1.0000 0.53807  0.10353  0.28733  Biso   1.000  H
  Ga16     1.0000 0.31666  0.09063  0.41857  Biso   1.000  Ga
  Ga17     1.0000 0.06621  0.30659  0.78722  Biso   1.000  Ga
  Cr9      1.0000 0.22602  0.31666  0.58143  Biso   1.000  Cr
  P17      1.0000 0.15061  0.24790  0.78583  Biso   1.000  P
  P18      1.0000 0.99367  0.33995  0.94455  Biso   1.000  P
  O65      1.0000 0.17662  0.29968  0.70377  Biso   1.000  O
  O66      1.0000 0.08671  0.24489  0.82307  Biso   1.000  O
  O67      1.0000 0.20130  0.27557  0.87277  Biso   1.000  O
  O68      1.0000 0.13832  0.18266  0.75687  Biso   1.000  O
  O69      1.0000 0.00286  0.29170  0.87887  Biso   1.000  O
  O70      1.0000 0.92508  0.29941  0.99277  Biso   1.000  O
  O71      1.0000 0.99677  0.39501  0.88507  Biso   1.000  O
  O72      1.0000 0.04395  0.36636  0.02757  Biso   1.000  O
  N25      1.0000 0.16423  0.22227  0.53587  Biso   1.000  N
  N26      1.0000 0.15793  0.33417  0.51757  Biso   1.000  N
  N27      1.0000 0.27083  0.41537  0.60717  Biso   1.000  N
  C33      1.0000 0.10423  0.21957  0.49657  Biso   1.000  C
  C34      1.0000 0.12053  0.28197  0.44727  Biso   1.000  C
  C35      1.0000 0.19073  0.40167  0.48327  Biso   1.000  C
  C36      1.0000 0.23053  0.44257  0.56927  Biso   1.000  C
  H105     1.0000 0.15203  0.18967  0.59187  Biso   1.000  H
  H106     1.0000 0.17943  0.20957  0.48777  Biso   1.000  H
  H107     1.0000 0.12663  0.33637  0.56347  Biso   1.000  H
  H108     1.0000 0.30543  0.43797  0.57847  Biso   1.000  H
  H109     1.0000 0.27993  0.41967  0.68437  Biso   1.000  H
  H110     1.0000 0.07583  0.21767  0.55587  Biso   1.000  H
  H111     1.0000 0.08253  0.17947  0.46617  Biso   1.000  H
  H112     1.0000 0.08213  0.28477  0.41857  Biso   1.000  H
  H113     1.0000 0.14663  0.28307  0.39187  Biso   1.000  H
  H114     1.0000 0.15803  0.41307  0.47327  Biso   1.000  H
  H115     1.0000 0.21953  0.40527  0.42627  Biso   1.000  H
  H116     1.0000 0.25863  0.48647  0.54467  Biso   1.000  H
  H117     1.0000 0.20473  0.43687  0.62067  Biso   1.000  H
  Ga18     1.0000 0.98332  0.42397  0.75191  Biso   1.000  Ga
  Ga19     1.0000 0.63992  0.90704  0.87945  Biso   1.000  Ga
  P19      1.0000 0.58123  0.76395  0.88084  Biso   1.000  P
  P20      1.0000 0.67328  0.01294  0.72212  Biso   1.000  P
  O73      1.0000 0.63301  0.78972  0.96290  Biso   1.000  O
  O74      1.0000 0.57822  0.82484  0.84360  Biso   1.000  O
  O75      1.0000 0.60890  0.74093  0.79390  Biso   1.000  O
  O76      1.0000 0.51599  0.71100  0.90980  Biso   1.000  O
  O77      1.0000 0.62503  0.95550  0.78780  Biso   1.000  O
  O78      1.0000 0.63274  0.04099  0.67390  Biso   1.000  O
  O79      1.0000 0.72834  0.06490  0.78160  Biso   1.000  O
  O80      1.0000 0.69969  0.98907  0.63910  Biso   1.000  O
  N28      1.0000 0.55560  0.72470  0.13080  Biso   1.000  N
  N29      1.0000 0.66750  0.84290  0.14910  Biso   1.000  N
  N30      1.0000 0.74870  0.81120  0.05950  Biso   1.000  N
  C37      1.0000 0.55290  0.78200  0.17010  Biso   1.000  C
  C38      1.0000 0.61530  0.82810  0.21940  Biso   1.000  C
  C39      1.0000 0.73500  0.87760  0.18340  Biso   1.000  C
  C40      1.0000 0.77590  0.87870  0.09740  Biso   1.000  C
  H118     1.0000 0.52300  0.70430  0.07480  Biso   1.000  H
  H119     1.0000 0.54290  0.69680  0.17890  Biso   1.000  H
  H120     1.0000 0.66970  0.87640  0.10320  Biso   1.000  H
  H121     1.0000 0.77130  0.79920  0.08820  Biso   1.000  H
  H122     1.0000 0.75300  0.80640  0.98230  Biso   1.000  H
  H123     1.0000 0.55100  0.80850  0.11080  Biso   1.000  H
  H124     1.0000 0.51280  0.76360  0.20050  Biso   1.000  H
  H125     1.0000 0.61810  0.86930  0.24810  Biso   1.000  H
  H126     1.0000 0.61640  0.80310  0.27480  Biso   1.000  H
  H127     1.0000 0.74640  0.92170  0.19340  Biso   1.000  H
  H128     1.0000 0.73860  0.85240  0.24040  Biso   1.000  H
  H129     1.0000 0.81980  0.89450  0.12200  Biso   1.000  H
  H130     1.0000 0.77020  0.89880  0.04600  Biso   1.000  H
  Ga20     1.0000 0.30659  0.24037  0.21278  Biso   1.000  Ga
  P21      1.0000 0.24790  0.09728  0.21417  Biso   1.000  P
  P22      1.0000 0.33995  0.34627  0.05545  Biso   1.000  P
  O81      1.0000 0.29968  0.12305  0.29623  Biso   1.000  O
  O82      1.0000 0.24489  0.15817  0.17693  Biso   1.000  O
  O83      1.0000 0.27557  0.07426  0.12723  Biso   1.000  O
  O84      1.0000 0.18266  0.04433  0.24313  Biso   1.000  O
  O85      1.0000 0.29170  0.28883  0.12113  Biso   1.000  O
  O86      1.0000 0.29941  0.37432  0.00723  Biso   1.000  O
  O87      1.0000 0.39501  0.39823  0.11493  Biso   1.000  O
  O88      1.0000 0.36636  0.32240  0.97243  Biso   1.000  O
  N31      1.0000 0.22227  0.05803  0.46413  Biso   1.000  N
  N32      1.0000 0.33417  0.17623  0.48243  Biso   1.000  N
  N33      1.0000 0.41537  0.14453  0.39283  Biso   1.000  N
  C41      1.0000 0.21957  0.11533  0.50343  Biso   1.000  C
  C42      1.0000 0.28197  0.16143  0.55273  Biso   1.000  C
  C43      1.0000 0.40167  0.21093  0.51673  Biso   1.000  C
  C44      1.0000 0.44257  0.21203  0.43073  Biso   1.000  C
  H131     1.0000 0.18967  0.03763  0.40813  Biso   1.000  H
  H132     1.0000 0.20957  0.03013  0.51223  Biso   1.000  H
  H133     1.0000 0.33637  0.20973  0.43653  Biso   1.000  H
  H134     1.0000 0.43797  0.13253  0.42153  Biso   1.000  H
  H135     1.0000 0.41967  0.13973  0.31563  Biso   1.000  H
  H136     1.0000 0.21767  0.14183  0.44413  Biso   1.000  H
  H137     1.0000 0.17947  0.09693  0.53383  Biso   1.000  H
  H138     1.0000 0.28477  0.20263  0.58143  Biso   1.000  H
  H139     1.0000 0.28307  0.13643  0.60813  Biso   1.000  H
  H140     1.0000 0.41307  0.25503  0.52673  Biso   1.000  H
  H141     1.0000 0.40527  0.18573  0.57373  Biso   1.000  H
  H142     1.0000 0.48647  0.22783  0.45533  Biso   1.000  H
  H143     1.0000 0.43687  0.23213  0.37933  Biso   1.000  H
  Ga21     1.0000 0.97325  0.57371  0.54612  Biso   1.000  Ga
  P23      1.0000 0.91456  0.43062  0.54751  Biso   1.000  P
  P24      1.0000 0.00661  0.67961  0.38879  Biso   1.000  P
  O89      1.0000 0.96634  0.45639  0.62957  Biso   1.000  O
  O90      1.0000 0.91155  0.49151  0.51027  Biso   1.000  O
  O91      1.0000 0.94223  0.40760  0.46057  Biso   1.000  O
  O92      1.0000 0.84932  0.37767  0.57647  Biso   1.000  O
  O93      1.0000 0.95836  0.62217  0.45447  Biso   1.000  O
  O94      1.0000 0.96607  0.70766  0.34057  Biso   1.000  O
  O95      1.0000 0.06167  0.73157  0.44827  Biso   1.000  O
  O96      1.0000 0.03302  0.65574  0.30577  Biso   1.000  O
  N34      1.0000 0.88893  0.39137  0.79747  Biso   1.000  N
  N35      1.0000 0.00083  0.50957  0.81577  Biso   1.000  N
  N36      1.0000 0.08203  0.47787  0.72617  Biso   1.000  N
  C45      1.0000 0.88623  0.44867  0.83677  Biso   1.000  C
  C46      1.0000 0.94863  0.49477  0.88607  Biso   1.000  C
  C47      1.0000 0.06833  0.54427  0.85007  Biso   1.000  C
  C48      1.0000 0.10923  0.54537  0.76407  Biso   1.000  C
  H144     1.0000 0.85633  0.37097  0.74147  Biso   1.000  H
  H145     1.0000 0.87623  0.36347  0.84557  Biso   1.000  H
  H146     1.0000 0.00303  0.54307  0.76987  Biso   1.000  H
  H147     1.0000 0.10463  0.46587  0.75487  Biso   1.000  H
  H148     1.0000 0.08633  0.47307  0.64897  Biso   1.000  H
  H149     1.0000 0.88433  0.47517  0.77747  Biso   1.000  H
  H150     1.0000 0.84613  0.43027  0.86717  Biso   1.000  H
  H151     1.0000 0.95143  0.53597  0.91477  Biso   1.000  H
  H152     1.0000 0.94973  0.46977  0.94147  Biso   1.000  H
  H153     1.0000 0.07973  0.58837  0.86007  Biso   1.000  H
  H154     1.0000 0.07193  0.51907  0.90707  Biso   1.000  H
  H155     1.0000 0.15313  0.56117  0.78867  Biso   1.000  H
  H156     1.0000 0.10353  0.56547  0.71267  Biso   1.000  H
  Ga22     1.0000 0.09296  0.73288  0.87945  Biso   1.000  Ga
  P25      1.0000 0.23605  0.81728  0.88084  Biso   1.000  P
  P26      1.0000 0.98706  0.66034  0.72212  Biso   1.000  P
  O97      1.0000 0.21028  0.84329  0.96290  Biso   1.000  O
  O98      1.0000 0.17516  0.75338  0.84360  Biso   1.000  O
  O99      1.0000 0.25907  0.86797  0.79390  Biso   1.000  O
  O100     1.0000 0.28900  0.80499  0.90980  Biso   1.000  O
  O101     1.0000 0.04450  0.66953  0.78780  Biso   1.000  O
  O102     1.0000 0.95901  0.59175  0.67390  Biso   1.000  O
  O103     1.0000 0.93510  0.66344  0.78160  Biso   1.000  O
  O104     1.0000 0.01093  0.71062  0.63910  Biso   1.000  O
  N37      1.0000 0.27530  0.83090  0.13080  Biso   1.000  N
  N38      1.0000 0.15710  0.82460  0.14910  Biso   1.000  N
  N39      1.0000 0.18880  0.93750  0.05950  Biso   1.000  N
  C49      1.0000 0.21800  0.77090  0.17010  Biso   1.000  C
  C50      1.0000 0.17190  0.78720  0.21940  Biso   1.000  C
  C51      1.0000 0.12240  0.85740  0.18340  Biso   1.000  C
  C52      1.0000 0.12130  0.89720  0.09740  Biso   1.000  C
  H157     1.0000 0.29570  0.81870  0.07480  Biso   1.000  H
  H158     1.0000 0.30320  0.84610  0.17890  Biso   1.000  H
  H159     1.0000 0.12360  0.79330  0.10320  Biso   1.000  H
  H160     1.0000 0.20080  0.97210  0.08820  Biso   1.000  H
  H161     1.0000 0.19360  0.94660  0.98230  Biso   1.000  H
  H162     1.0000 0.19150  0.74250  0.11080  Biso   1.000  H
  H163     1.0000 0.23640  0.74920  0.20050  Biso   1.000  H
  H164     1.0000 0.13070  0.74880  0.24810  Biso   1.000  H
  H165     1.0000 0.19690  0.81330  0.27480  Biso   1.000  H
  H166     1.0000 0.07830  0.82470  0.19340  Biso   1.000  H
  H167     1.0000 0.14760  0.88620  0.24040  Biso   1.000  H
  H168     1.0000 0.10550  0.92530  0.12200  Biso   1.000  H
  H169     1.0000 0.10120  0.87140  0.04600  Biso   1.000  H
  Ga23     1.0000 0.75963  0.06621  0.21278  Biso   1.000  Ga
  P27      1.0000 0.90272  0.15061  0.21417  Biso   1.000  P
  P28      1.0000 0.65373  0.99367  0.05545  Biso   1.000  P
  O105     1.0000 0.87695  0.17662  0.29623  Biso   1.000  O
  O106     1.0000 0.84183  0.08671  0.17693  Biso   1.000  O
  O107     1.0000 0.92574  0.20130  0.12723  Biso   1.000  O
  O108     1.0000 0.95567  0.13832  0.24313  Biso   1.000  O
  O109     1.0000 0.71117  0.00286  0.12113  Biso   1.000  O
  O110     1.0000 0.62568  0.92508  0.00723  Biso   1.000  O
  O111     1.0000 0.60177  0.99677  0.11493  Biso   1.000  O
  O112     1.0000 0.67760  0.04395  0.97243  Biso   1.000  O
  N40      1.0000 0.94197  0.16423  0.46413  Biso   1.000  N
  N41      1.0000 0.82377  0.15793  0.48243  Biso   1.000  N
  N42      1.0000 0.85547  0.27083  0.39283  Biso   1.000  N
  C53      1.0000 0.88467  0.10423  0.50343  Biso   1.000  C
  C54      1.0000 0.83857  0.12053  0.55273  Biso   1.000  C
  C55      1.0000 0.78907  0.19073  0.51673  Biso   1.000  C
  C56      1.0000 0.78797  0.23053  0.43073  Biso   1.000  C
  H170     1.0000 0.96237  0.15203  0.40813  Biso   1.000  H
  H171     1.0000 0.96987  0.17943  0.51223  Biso   1.000  H
  H172     1.0000 0.79027  0.12663  0.43653  Biso   1.000  H
  H173     1.0000 0.86747  0.30543  0.42153  Biso   1.000  H
  H174     1.0000 0.86027  0.27993  0.31563  Biso   1.000  H
  H175     1.0000 0.85817  0.07583  0.44413  Biso   1.000  H
  H176     1.0000 0.90307  0.08253  0.53383  Biso   1.000  H
  H177     1.0000 0.79737  0.08213  0.58143  Biso   1.000  H
  H178     1.0000 0.86357  0.14663  0.60813  Biso   1.000  H
  H179     1.0000 0.74497  0.15803  0.52673  Biso   1.000  H
  H180     1.0000 0.81427  0.21953  0.57373  Biso   1.000  H
  H181     1.0000 0.77217  0.25863  0.45533  Biso   1.000  H
  H182     1.0000 0.76787  0.20473  0.37933  Biso   1.000  H
  Ga24     1.0000 0.42629  0.39955  0.54612  Biso   1.000  Ga
  P29      1.0000 0.56938  0.48395  0.54751  Biso   1.000  P
  P30      1.0000 0.32039  0.32701  0.38879  Biso   1.000  P
  O113     1.0000 0.54361  0.50996  0.62957  Biso   1.000  O
  O114     1.0000 0.50849  0.42005  0.51027  Biso   1.000  O
  O115     1.0000 0.59240  0.53464  0.46057  Biso   1.000  O
  O116     1.0000 0.62233  0.47166  0.57647  Biso   1.000  O
  O117     1.0000 0.37783  0.33620  0.45447  Biso   1.000  O
  O118     1.0000 0.29234  0.25842  0.34057  Biso   1.000  O
  O119     1.0000 0.26843  0.33011  0.44827  Biso   1.000  O
  O120     1.0000 0.34426  0.37729  0.30577  Biso   1.000  O
  N43      1.0000 0.60863  0.49757  0.79747  Biso   1.000  N
  N44      1.0000 0.49043  0.49127  0.81577  Biso   1.000  N
  N45      1.0000 0.52213  0.60417  0.72617  Biso   1.000  N
  C57      1.0000 0.55133  0.43757  0.83677  Biso   1.000  C
  C58      1.0000 0.50523  0.45387  0.88607  Biso   1.000  C
  C59      1.0000 0.45573  0.52407  0.85007  Biso   1.000  C
  C60      1.0000 0.45463  0.56387  0.76407  Biso   1.000  C
  H183     1.0000 0.62903  0.48537  0.74147  Biso   1.000  H
  H184     1.0000 0.63653  0.51277  0.84557  Biso   1.000  H
  H185     1.0000 0.45693  0.45997  0.76987  Biso   1.000  H
  H186     1.0000 0.53413  0.63877  0.75487  Biso   1.000  H
  H187     1.0000 0.52693  0.61327  0.64897  Biso   1.000  H
  H188     1.0000 0.52483  0.40917  0.77747  Biso   1.000  H
  H189     1.0000 0.56973  0.41587  0.86717  Biso   1.000  H
  H190     1.0000 0.46403  0.41547  0.91477  Biso   1.000  H
  H191     1.0000 0.53023  0.47997  0.94147  Biso   1.000  H
  H192     1.0000 0.41163  0.49137  0.86007  Biso   1.000  H
  H193     1.0000 0.48093  0.55287  0.90707  Biso   1.000  H
  H194     1.0000 0.43883  0.59197  0.78867  Biso   1.000  H
  H195     1.0000 0.43453  0.53807  0.71267  Biso   1.000  H
  Ga25     1.0000 0.26712  0.36008  0.87945  Biso   1.000  Ga
  P31      1.0000 0.18272  0.41877  0.88084  Biso   1.000  P
  P32      1.0000 0.33966  0.32672  0.72212  Biso   1.000  P
  O121     1.0000 0.15671  0.36699  0.96290  Biso   1.000  O
  O122     1.0000 0.24662  0.42178  0.84360  Biso   1.000  O
  O123     1.0000 0.13203  0.39110  0.79390  Biso   1.000  O
  O124     1.0000 0.19501  0.48401  0.90980  Biso   1.000  O
  O125     1.0000 0.33047  0.37497  0.78780  Biso   1.000  O
  O126     1.0000 0.40825  0.36726  0.67390  Biso   1.000  O
  O127     1.0000 0.33656  0.27166  0.78160  Biso   1.000  O
  O128     1.0000 0.28938  0.30031  0.63910  Biso   1.000  O
  N46      1.0000 0.16910  0.44440  0.13080  Biso   1.000  N
  N47      1.0000 0.17540  0.33250  0.14910  Biso   1.000  N
  N48      1.0000 0.06250  0.25130  0.05950  Biso   1.000  N
  C61      1.0000 0.22910  0.44710  0.17010  Biso   1.000  C
  C62      1.0000 0.21280  0.38470  0.21940  Biso   1.000  C
  C63      1.0000 0.14260  0.26500  0.18340  Biso   1.000  C
  C64      1.0000 0.10280  0.22410  0.09740  Biso   1.000  C
  H196     1.0000 0.18130  0.47700  0.07480  Biso   1.000  H
  H197     1.0000 0.15390  0.45710  0.17890  Biso   1.000  H
  H198     1.0000 0.20670  0.33030  0.10320  Biso   1.000  H
  H199     1.0000 0.02790  0.22870  0.08820  Biso   1.000  H
  H200     1.0000 0.05340  0.24700  0.98230  Biso   1.000  H
  H201     1.0000 0.25750  0.44900  0.11080  Biso   1.000  H
  H202     1.0000 0.25080  0.48720  0.20050  Biso   1.000  H
  H203     1.0000 0.25120  0.38190  0.24810  Biso   1.000  H
  H204     1.0000 0.18670  0.38360  0.27480  Biso   1.000  H
  H205     1.0000 0.17530  0.25360  0.19340  Biso   1.000  H
  H206     1.0000 0.11380  0.26140  0.24040  Biso   1.000  H
  H207     1.0000 0.07470  0.18020  0.12200  Biso   1.000  H
  H208     1.0000 0.12860  0.22980  0.04600  Biso   1.000  H
  Ga26     1.0000 0.93379  0.69341  0.21278  Biso   1.000  Ga
  P33      1.0000 0.84939  0.75210  0.21417  Biso   1.000  P
  P34      1.0000 0.00633  0.66005  0.05545  Biso   1.000  P
  O129     1.0000 0.82338  0.70032  0.29623  Biso   1.000  O
  O130     1.0000 0.91329  0.75511  0.17693  Biso   1.000  O
  O131     1.0000 0.79870  0.72443  0.12723  Biso   1.000  O
  O132     1.0000 0.86168  0.81734  0.24313  Biso   1.000  O
  O133     1.0000 0.99714  0.70830  0.12113  Biso   1.000  O
  O134     1.0000 0.07492  0.70059  0.00723  Biso   1.000  O
  O135     1.0000 0.00323  0.60499  0.11493  Biso   1.000  O
  O136     1.0000 0.95605  0.63364  0.97243  Biso   1.000  O
  N49      1.0000 0.83577  0.77773  0.46413  Biso   1.000  N
  N50      1.0000 0.84207  0.66583  0.48243  Biso   1.000  N
  N51      1.0000 0.72917  0.58463  0.39283  Biso   1.000  N
  C65      1.0000 0.89577  0.78043  0.50343  Biso   1.000  C
  C66      1.0000 0.87947  0.71803  0.55273  Biso   1.000  C
  C67      1.0000 0.80927  0.59833  0.51673  Biso   1.000  C
  C68      1.0000 0.76947  0.55743  0.43073  Biso   1.000  C
  H209     1.0000 0.84797  0.81033  0.40813  Biso   1.000  H
  H210     1.0000 0.82057  0.79043  0.51223  Biso   1.000  H
  H211     1.0000 0.87337  0.66363  0.43653  Biso   1.000  H
  H212     1.0000 0.69457  0.56203  0.42153  Biso   1.000  H
  H213     1.0000 0.72007  0.58033  0.31563  Biso   1.000  H
  H214     1.0000 0.92417  0.78233  0.44413  Biso   1.000  H
  H215     1.0000 0.91747  0.82053  0.53383  Biso   1.000  H
  H216     1.0000 0.91787  0.71523  0.58143  Biso   1.000  H
  H217     1.0000 0.85337  0.71693  0.60813  Biso   1.000  H
  H218     1.0000 0.84197  0.58693  0.52673  Biso   1.000  H
  H219     1.0000 0.78047  0.59473  0.57373  Biso   1.000  H
  H220     1.0000 0.74137  0.51353  0.45533  Biso   1.000  H
  H221     1.0000 0.79527  0.56313  0.37933  Biso   1.000  H
  Ga27     1.0000 0.60045  0.02675  0.54612  Biso   1.000  Ga
  P35      1.0000 0.51605  0.08544  0.54751  Biso   1.000  P
  P36      1.0000 0.67299  0.99339  0.38879  Biso   1.000  P
  O137     1.0000 0.49004  0.03366  0.62957  Biso   1.000  O
  O138     1.0000 0.57995  0.08845  0.51027  Biso   1.000  O
  O139     1.0000 0.46536  0.05777  0.46057  Biso   1.000  O
  O140     1.0000 0.52834  0.15068  0.57647  Biso   1.000  O
  O141     1.0000 0.66380  0.04164  0.45447  Biso   1.000  O
  O142     1.0000 0.74158  0.03393  0.34057  Biso   1.000  O
  O143     1.0000 0.66989  0.93833  0.44827  Biso   1.000  O
  O144     1.0000 0.62271  0.96698  0.30577  Biso   1.000  O
  N52      1.0000 0.50243  0.11107  0.79747  Biso   1.000  N
  N53      1.0000 0.50873  0.99917  0.81577  Biso   1.000  N
  N54      1.0000 0.39583  0.91797  0.72617  Biso   1.000  N
  C69      1.0000 0.56243  0.11377  0.83677  Biso   1.000  C
  C70      1.0000 0.54613  0.05137  0.88607  Biso   1.000  C
  C71      1.0000 0.47593  0.93167  0.85007  Biso   1.000  C
  C72      1.0000 0.43613  0.89077  0.76407  Biso   1.000  C
  H222     1.0000 0.51463  0.14367  0.74147  Biso   1.000  H
  H223     1.0000 0.48723  0.12377  0.84557  Biso   1.000  H
  H224     1.0000 0.54003  0.99697  0.76987  Biso   1.000  H
  H225     1.0000 0.36123  0.89537  0.75487  Biso   1.000  H
  H226     1.0000 0.38673  0.91367  0.64897  Biso   1.000  H
  H227     1.0000 0.59083  0.11567  0.77747  Biso   1.000  H
  H228     1.0000 0.58413  0.15387  0.86717  Biso   1.000  H
  H229     1.0000 0.58453  0.04857  0.91477  Biso   1.000  H
  H230     1.0000 0.52003  0.05027  0.94147  Biso   1.000  H
  H231     1.0000 0.50863  0.92027  0.86007  Biso   1.000  H
  H232     1.0000 0.44713  0.92807  0.90707  Biso   1.000  H
  H233     1.0000 0.40803  0.84687  0.78867  Biso   1.000  H
  H234     1.0000 0.46193  0.89647  0.71267  Biso   1.000  H
