data_image0
_cell_length_a       23.6635
_cell_length_b       23.6635
_cell_length_c       13.5686
_cell_angle_alpha    90
_cell_angle_beta     90
_cell_angle_gamma    120

_symmetry_space_group_name_H-M    "P 1"
_symmetry_int_tables_number       1

loop_
  _symmetry_equiv_pos_as_xyz
  'x, y, z'

loop_
  _atom_site_label
  _atom_site_occupancy
  _atom_site_fract_x
  _atom_site_fract_y
  _atom_site_fract_z
  _atom_site_thermal_displace_type
  _atom_site_B_iso_or_equiv
  _atom_site_type_symbol
  Mn1      1.0000 0.36185  0.09333  0.11825  Biso   1.000  Mn
  Ga1      1.0000 0.34991  0.24380  0.91802  Biso   1.000  Ga
  P1       1.0000 0.42029  0.23786  0.12203  Biso   1.000  P
  P2       1.0000 0.32703  0.98617  0.27484  Biso   1.000  P
  O1       1.0000 0.36998  0.21215  0.03860  Biso   1.000  O
  O2       1.0000 0.42439  0.17750  0.15760  Biso   1.000  O
  O3       1.0000 0.39211  0.26001  0.20800  Biso   1.000  O
  O4       1.0000 0.48570  0.29170  0.09290  Biso   1.000  O
  O5       1.0000 0.37653  0.04436  0.21220  Biso   1.000  O
  O6       1.0000 0.36473  0.95505  0.32180  Biso   1.000  O
  O7       1.0000 0.27110  0.93641  0.21410  Biso   1.000  O
  O8       1.0000 0.30090  0.00966  0.35930  Biso   1.000  O
  N1       1.0000 0.44470  0.27850  0.86980  Biso   1.000  N
  N2       1.0000 0.33340  0.15770  0.85270  Biso   1.000  N
  N3       1.0000 0.25140  0.18840  0.94410  Biso   1.000  N
  C1       1.0000 0.44900  0.22240  0.82830  Biso   1.000  C
  C2       1.0000 0.38620  0.17570  0.77930  Biso   1.000  C
  C3       1.0000 0.26650  0.12380  0.81810  Biso   1.000  C
  C4       1.0000 0.22510  0.12090  0.90520  Biso   1.000  C
  H1       1.0000 0.45020  0.30430  0.82170  Biso   1.000  H
  H2       1.0000 0.47890  0.30470  0.92280  Biso   1.000  H
  H3       1.0000 0.33530  0.13120  0.90760  Biso   1.000  H
  H4       1.0000 0.23990  0.18270  0.01070  Biso   1.000  H
  H5       1.0000 0.21790  0.20040  0.91440  Biso   1.000  H
  H6       1.0000 0.46310  0.20150  0.88490  Biso   1.000  H
  H7       1.0000 0.48050  0.23890  0.76520  Biso   1.000  H
  H8       1.0000 0.38890  0.13740  0.75240  Biso   1.000  H
  H9       1.0000 0.37670  0.20020  0.72660  Biso   1.000  H
  H10      1.0000 0.25470  0.14640  0.75910  Biso   1.000  H
  H11      1.0000 0.24910  0.07900  0.80080  Biso   1.000  H
  H12      1.0000 0.18190  0.11010  0.87900  Biso   1.000  H
  H13      1.0000 0.22370  0.09020  0.96470  Biso   1.000  H
  Ga2      1.0000 0.30482  0.24000  0.21508  Biso   1.000  Ga
  Mn2      1.0000 0.02852  0.42666  0.45158  Biso   1.000  Mn
  Ga3      1.0000 0.01658  0.57713  0.25135  Biso   1.000  Ga
  P3       1.0000 0.08696  0.57119  0.45536  Biso   1.000  P
  P4       1.0000 0.99370  0.31950  0.60817  Biso   1.000  P
  O9       1.0000 0.03665  0.54548  0.37193  Biso   1.000  O
  O10      1.0000 0.09106  0.51083  0.49093  Biso   1.000  O
  O11      1.0000 0.05878  0.59334  0.54133  Biso   1.000  O
  O12      1.0000 0.15237  0.62503  0.42623  Biso   1.000  O
  O13      1.0000 0.04320  0.37769  0.54553  Biso   1.000  O
  O14      1.0000 0.03140  0.28838  0.65513  Biso   1.000  O
  O15      1.0000 0.93777  0.26974  0.54743  Biso   1.000  O
  O16      1.0000 0.96757  0.34299  0.69263  Biso   1.000  O
  N4       1.0000 0.11137  0.61183  0.20313  Biso   1.000  N
  N5       1.0000 0.00007  0.49103  0.18603  Biso   1.000  N
  N6       1.0000 0.91807  0.52173  0.27743  Biso   1.000  N
  C5       1.0000 0.11567  0.55573  0.16163  Biso   1.000  C
  C6       1.0000 0.05287  0.50903  0.11263  Biso   1.000  C
  C7       1.0000 0.93317  0.45713  0.15143  Biso   1.000  C
  C8       1.0000 0.89177  0.45423  0.23853  Biso   1.000  C
  H14      1.0000 0.11687  0.63763  0.15503  Biso   1.000  H
  H15      1.0000 0.14557  0.63803  0.25613  Biso   1.000  H
  H16      1.0000 0.00197  0.46453  0.24093  Biso   1.000  H
  H17      1.0000 0.90657  0.51603  0.34403  Biso   1.000  H
  H18      1.0000 0.88457  0.53373  0.24773  Biso   1.000  H
  H19      1.0000 0.12977  0.53483  0.21823  Biso   1.000  H
  H20      1.0000 0.14717  0.57223  0.09853  Biso   1.000  H
  H21      1.0000 0.05557  0.47073  0.08573  Biso   1.000  H
  H22      1.0000 0.04337  0.53353  0.05993  Biso   1.000  H
  H23      1.0000 0.92137  0.47973  0.09243  Biso   1.000  H
  H24      1.0000 0.91577  0.41233  0.13413  Biso   1.000  H
  H25      1.0000 0.84857  0.44343  0.21233  Biso   1.000  H
  H26      1.0000 0.89037  0.42353  0.29803  Biso   1.000  H
  Ga4      1.0000 0.97148  0.57334  0.54842  Biso   1.000  Ga
  Mn3      1.0000 0.69518  0.76000  0.78492  Biso   1.000  Mn
  Ga5      1.0000 0.68324  0.91047  0.58469  Biso   1.000  Ga
  P5       1.0000 0.75362  0.90453  0.78870  Biso   1.000  P
  P6       1.0000 0.66036  0.65284  0.94151  Biso   1.000  P
  O17      1.0000 0.70331  0.87882  0.70527  Biso   1.000  O
  O18      1.0000 0.75772  0.84417  0.82427  Biso   1.000  O
  O19      1.0000 0.72544  0.92668  0.87467  Biso   1.000  O
  O20      1.0000 0.81903  0.95837  0.75957  Biso   1.000  O
  O21      1.0000 0.70986  0.71103  0.87887  Biso   1.000  O
  O22      1.0000 0.69806  0.62172  0.98847  Biso   1.000  O
  O23      1.0000 0.60443  0.60308  0.88077  Biso   1.000  O
  O24      1.0000 0.63423  0.67633  0.02597  Biso   1.000  O
  N7       1.0000 0.77803  0.94517  0.53647  Biso   1.000  N
  N8       1.0000 0.66673  0.82437  0.51937  Biso   1.000  N
  N9       1.0000 0.58473  0.85507  0.61077  Biso   1.000  N
  C9       1.0000 0.78233  0.88907  0.49497  Biso   1.000  C
  C10      1.0000 0.71953  0.84237  0.44597  Biso   1.000  C
  C11      1.0000 0.59983  0.79047  0.48477  Biso   1.000  C
  C12      1.0000 0.55843  0.78757  0.57187  Biso   1.000  C
  H27      1.0000 0.78353  0.97097  0.48837  Biso   1.000  H
  H28      1.0000 0.81223  0.97137  0.58947  Biso   1.000  H
  H29      1.0000 0.66863  0.79787  0.57427  Biso   1.000  H
  H30      1.0000 0.57323  0.84937  0.67737  Biso   1.000  H
  H31      1.0000 0.55123  0.86707  0.58107  Biso   1.000  H
  H32      1.0000 0.79643  0.86817  0.55157  Biso   1.000  H
  H33      1.0000 0.81383  0.90557  0.43187  Biso   1.000  H
  H34      1.0000 0.72223  0.80407  0.41907  Biso   1.000  H
  H35      1.0000 0.71003  0.86687  0.39327  Biso   1.000  H
  H36      1.0000 0.58803  0.81307  0.42577  Biso   1.000  H
  H37      1.0000 0.58243  0.74567  0.46747  Biso   1.000  H
  H38      1.0000 0.51523  0.77677  0.54567  Biso   1.000  H
  H39      1.0000 0.55703  0.75687  0.63137  Biso   1.000  H
  Ga6      1.0000 0.63815  0.90667  0.88175  Biso   1.000  Ga
  Mn4      1.0000 0.90667  0.26852  0.11825  Biso   1.000  Mn
  Ga7      1.0000 0.75620  0.10611  0.91802  Biso   1.000  Ga
  P7       1.0000 0.76214  0.18243  0.12203  Biso   1.000  P
  P8       1.0000 0.01383  0.34086  0.27484  Biso   1.000  P
  O25      1.0000 0.78785  0.15783  0.03860  Biso   1.000  O
  O26      1.0000 0.82250  0.24689  0.15760  Biso   1.000  O
  O27      1.0000 0.73999  0.13210  0.20800  Biso   1.000  O
  O28      1.0000 0.70830  0.19400  0.09290  Biso   1.000  O
  O29      1.0000 0.95564  0.33217  0.21220  Biso   1.000  O
  O30      1.0000 0.04495  0.40968  0.32180  Biso   1.000  O
  O31      1.0000 0.06359  0.33469  0.21410  Biso   1.000  O
  O32      1.0000 0.99034  0.29124  0.35930  Biso   1.000  O
  N10      1.0000 0.72150  0.16620  0.86980  Biso   1.000  N
  N11      1.0000 0.84230  0.17570  0.85270  Biso   1.000  N
  N12      1.0000 0.81160  0.06300  0.94410  Biso   1.000  N
  C13      1.0000 0.77760  0.22660  0.82830  Biso   1.000  C
  C14      1.0000 0.82430  0.21050  0.77930  Biso   1.000  C
  C15      1.0000 0.87620  0.14270  0.81810  Biso   1.000  C
  C16      1.0000 0.87910  0.10420  0.90520  Biso   1.000  C
  H40      1.0000 0.69570  0.14590  0.82170  Biso   1.000  H
  H41      1.0000 0.69530  0.17420  0.92280  Biso   1.000  H
  H42      1.0000 0.86880  0.20410  0.90760  Biso   1.000  H
  H43      1.0000 0.81730  0.05720  0.01070  Biso   1.000  H
  H44      1.0000 0.79960  0.01750  0.91440  Biso   1.000  H
  H45      1.0000 0.79850  0.26160  0.88490  Biso   1.000  H
  H46      1.0000 0.76110  0.24160  0.76520  Biso   1.000  H
  H47      1.0000 0.86260  0.25150  0.75240  Biso   1.000  H
  H48      1.0000 0.79980  0.17650  0.72660  Biso   1.000  H
  H49      1.0000 0.85360  0.10830  0.75910  Biso   1.000  H
  H50      1.0000 0.92100  0.17010  0.80080  Biso   1.000  H
  H51      1.0000 0.88990  0.07180  0.87900  Biso   1.000  H
  H52      1.0000 0.90980  0.13350  0.96470  Biso   1.000  H
  Ga8      1.0000 0.76000  0.06481  0.21508  Biso   1.000  Ga
  Mn5      1.0000 0.57334  0.60185  0.45158  Biso   1.000  Mn
  Ga9      1.0000 0.42287  0.43944  0.25135  Biso   1.000  Ga
  P9       1.0000 0.42881  0.51576  0.45536  Biso   1.000  P
  P10      1.0000 0.68050  0.67419  0.60817  Biso   1.000  P
  O33      1.0000 0.45452  0.49116  0.37193  Biso   1.000  O
  O34      1.0000 0.48917  0.58022  0.49093  Biso   1.000  O
  O35      1.0000 0.40666  0.46543  0.54133  Biso   1.000  O
  O36      1.0000 0.37497  0.52733  0.42623  Biso   1.000  O
  O37      1.0000 0.62231  0.66550  0.54553  Biso   1.000  O
  O38      1.0000 0.71162  0.74301  0.65513  Biso   1.000  O
  O39      1.0000 0.73026  0.66802  0.54743  Biso   1.000  O
  O40      1.0000 0.65701  0.62457  0.69263  Biso   1.000  O
  N13      1.0000 0.38817  0.49953  0.20313  Biso   1.000  N
  N14      1.0000 0.50897  0.50903  0.18603  Biso   1.000  N
  N15      1.0000 0.47827  0.39633  0.27743  Biso   1.000  N
  C17      1.0000 0.44427  0.55993  0.16163  Biso   1.000  C
  C18      1.0000 0.49097  0.54383  0.11263  Biso   1.000  C
  C19      1.0000 0.54287  0.47603  0.15143  Biso   1.000  C
  C20      1.0000 0.54577  0.43753  0.23853  Biso   1.000  C
  H53      1.0000 0.36237  0.47923  0.15503  Biso   1.000  H
  H54      1.0000 0.36197  0.50753  0.25613  Biso   1.000  H
  H55      1.0000 0.53547  0.53743  0.24093  Biso   1.000  H
  H56      1.0000 0.48397  0.39053  0.34403  Biso   1.000  H
  H57      1.0000 0.46627  0.35083  0.24773  Biso   1.000  H
  H58      1.0000 0.46517  0.59493  0.21823  Biso   1.000  H
  H59      1.0000 0.42777  0.57493  0.09853  Biso   1.000  H
  H60      1.0000 0.52927  0.58483  0.08573  Biso   1.000  H
  H61      1.0000 0.46647  0.50983  0.05993  Biso   1.000  H
  H62      1.0000 0.52027  0.44163  0.09243  Biso   1.000  H
  H63      1.0000 0.58767  0.50343  0.13413  Biso   1.000  H
  H64      1.0000 0.55657  0.40513  0.21233  Biso   1.000  H
  H65      1.0000 0.57647  0.46683  0.29803  Biso   1.000  H
  Ga10     1.0000 0.42666  0.39815  0.54842  Biso   1.000  Ga
  Mn6      1.0000 0.24000  0.93519  0.78492  Biso   1.000  Mn
  Ga11     1.0000 0.08953  0.77278  0.58469  Biso   1.000  Ga
  P11      1.0000 0.09547  0.84910  0.78870  Biso   1.000  P
  P12      1.0000 0.34716  0.00753  0.94151  Biso   1.000  P
  O41      1.0000 0.12118  0.82450  0.70527  Biso   1.000  O
  O42      1.0000 0.15583  0.91356  0.82427  Biso   1.000  O
  O43      1.0000 0.07332  0.79877  0.87467  Biso   1.000  O
  O44      1.0000 0.04163  0.86067  0.75957  Biso   1.000  O
  O45      1.0000 0.28897  0.99884  0.87887  Biso   1.000  O
  O46      1.0000 0.37828  0.07635  0.98847  Biso   1.000  O
  O47      1.0000 0.39692  0.00136  0.88077  Biso   1.000  O
  O48      1.0000 0.32367  0.95791  0.02597  Biso   1.000  O
  N16      1.0000 0.05483  0.83287  0.53647  Biso   1.000  N
  N17      1.0000 0.17563  0.84237  0.51937  Biso   1.000  N
  N18      1.0000 0.14493  0.72967  0.61077  Biso   1.000  N
  C21      1.0000 0.11093  0.89327  0.49497  Biso   1.000  C
  C22      1.0000 0.15763  0.87717  0.44597  Biso   1.000  C
  C23      1.0000 0.20953  0.80937  0.48477  Biso   1.000  C
  C24      1.0000 0.21243  0.77087  0.57187  Biso   1.000  C
  H66      1.0000 0.02903  0.81257  0.48837  Biso   1.000  H
  H67      1.0000 0.02863  0.84087  0.58947  Biso   1.000  H
  H68      1.0000 0.20213  0.87077  0.57427  Biso   1.000  H
  H69      1.0000 0.15063  0.72387  0.67737  Biso   1.000  H
  H70      1.0000 0.13293  0.68417  0.58107  Biso   1.000  H
  H71      1.0000 0.13183  0.92827  0.55157  Biso   1.000  H
  H72      1.0000 0.09443  0.90827  0.43187  Biso   1.000  H
  H73      1.0000 0.19593  0.91817  0.41907  Biso   1.000  H
  H74      1.0000 0.13313  0.84317  0.39327  Biso   1.000  H
  H75      1.0000 0.18693  0.77497  0.42577  Biso   1.000  H
  H76      1.0000 0.25433  0.83677  0.46747  Biso   1.000  H
  H77      1.0000 0.22323  0.73847  0.54567  Biso   1.000  H
  H78      1.0000 0.24313  0.80017  0.63137  Biso   1.000  H
  Ga12     1.0000 0.09333  0.73148  0.88175  Biso   1.000  Ga
  Mn7      1.0000 0.73148  0.63815  0.11825  Biso   1.000  Mn
  Ga13     1.0000 0.89389  0.65009  0.91802  Biso   1.000  Ga
  P13      1.0000 0.81757  0.57971  0.12203  Biso   1.000  P
  P14      1.0000 0.65914  0.67297  0.27484  Biso   1.000  P
  O49      1.0000 0.84217  0.63002  0.03860  Biso   1.000  O
  O50      1.0000 0.75311  0.57561  0.15760  Biso   1.000  O
  O51      1.0000 0.86790  0.60789  0.20800  Biso   1.000  O
  O52      1.0000 0.80600  0.51430  0.09290  Biso   1.000  O
  O53      1.0000 0.66783  0.62347  0.21220  Biso   1.000  O
  O54      1.0000 0.59032  0.63527  0.32180  Biso   1.000  O
  O55      1.0000 0.66531  0.72890  0.21410  Biso   1.000  O
  O56      1.0000 0.70876  0.69910  0.35930  Biso   1.000  O
  N19      1.0000 0.83380  0.55530  0.86980  Biso   1.000  N
  N20      1.0000 0.82430  0.66660  0.85270  Biso   1.000  N
  N21      1.0000 0.93700  0.74860  0.94410  Biso   1.000  N
  C25      1.0000 0.77340  0.55100  0.82830  Biso   1.000  C
  C26      1.0000 0.78950  0.61380  0.77930  Biso   1.000  C
  C27      1.0000 0.85730  0.73350  0.81810  Biso   1.000  C
  C28      1.0000 0.89580  0.77490  0.90520  Biso   1.000  C
  H79      1.0000 0.85410  0.54980  0.82170  Biso   1.000  H
  H80      1.0000 0.82580  0.52110  0.92280  Biso   1.000  H
  H81      1.0000 0.79590  0.66470  0.90760  Biso   1.000  H
  H82      1.0000 0.94280  0.76010  0.01070  Biso   1.000  H
  H83      1.0000 0.98250  0.78210  0.91440  Biso   1.000  H
  H84      1.0000 0.73840  0.53690  0.88490  Biso   1.000  H
  H85      1.0000 0.75840  0.51950  0.76520  Biso   1.000  H
  H86      1.0000 0.74850  0.61110  0.75240  Biso   1.000  H
  H87      1.0000 0.82350  0.62330  0.72660  Biso   1.000  H
  H88      1.0000 0.89170  0.74530  0.75910  Biso   1.000  H
  H89      1.0000 0.82990  0.75090  0.80080  Biso   1.000  H
  H90      1.0000 0.92820  0.81810  0.87900  Biso   1.000  H
  H91      1.0000 0.86650  0.77630  0.96470  Biso   1.000  H
  Ga14     1.0000 0.93519  0.69518  0.21508  Biso   1.000  Ga
  Mn8      1.0000 0.39815  0.97148  0.45158  Biso   1.000  Mn
  Ga15     1.0000 0.56056  0.98342  0.25135  Biso   1.000  Ga
  P15      1.0000 0.48424  0.91304  0.45536  Biso   1.000  P
  P16      1.0000 0.32581  0.00630  0.60817  Biso   1.000  P
  O57      1.0000 0.50884  0.96335  0.37193  Biso   1.000  O
  O58      1.0000 0.41978  0.90894  0.49093  Biso   1.000  O
  O59      1.0000 0.53457  0.94122  0.54133  Biso   1.000  O
  O60      1.0000 0.47267  0.84763  0.42623  Biso   1.000  O
  O61      1.0000 0.33450  0.95680  0.54553  Biso   1.000  O
  O62      1.0000 0.25699  0.96860  0.65513  Biso   1.000  O
  O63      1.0000 0.33198  0.06223  0.54743  Biso   1.000  O
  O64      1.0000 0.37543  0.03243  0.69263  Biso   1.000  O
  N22      1.0000 0.50047  0.88863  0.20313  Biso   1.000  N
  N23      1.0000 0.49097  0.99993  0.18603  Biso   1.000  N
  N24      1.0000 0.60367  0.08193  0.27743  Biso   1.000  N
  C29      1.0000 0.44007  0.88433  0.16163  Biso   1.000  C
  C30      1.0000 0.45617  0.94713  0.11263  Biso   1.000  C
  C31      1.0000 0.52397  0.06683  0.15143  Biso   1.000  C
  C32      1.0000 0.56247  0.10823  0.23853  Biso   1.000  C
  H92      1.0000 0.52077  0.88313  0.15503  Biso   1.000  H
  H93      1.0000 0.49247  0.85443  0.25613  Biso   1.000  H
  H94      1.0000 0.46257  0.99803  0.24093  Biso   1.000  H
  H95      1.0000 0.60947  0.09343  0.34403  Biso   1.000  H
  H96      1.0000 0.64917  0.11543  0.24773  Biso   1.000  H
  H97      1.0000 0.40507  0.87023  0.21823  Biso   1.000  H
  H98      1.0000 0.42507  0.85283  0.09853  Biso   1.000  H
  H99      1.0000 0.41517  0.94443  0.08573  Biso   1.000  H
  H100     1.0000 0.49017  0.95663  0.05993  Biso   1.000  H
  H101     1.0000 0.55837  0.07863  0.09243  Biso   1.000  H
  H102     1.0000 0.49657  0.08423  0.13413  Biso   1.000  H
  H103     1.0000 0.59487  0.15143  0.21233  Biso   1.000  H
  H104     1.0000 0.53317  0.10963  0.29803  Biso   1.000  H
  Ga16     1.0000 0.60185  0.02852  0.54842  Biso   1.000  Ga
  Mn9      1.0000 0.06481  0.30482  0.78492  Biso   1.000  Mn
  Ga17     1.0000 0.22722  0.31676  0.58469  Biso   1.000  Ga
  P17      1.0000 0.15090  0.24638  0.78870  Biso   1.000  P
  P18      1.0000 0.99247  0.33964  0.94151  Biso   1.000  P
  O65      1.0000 0.17550  0.29669  0.70527  Biso   1.000  O
  O66      1.0000 0.08644  0.24228  0.82427  Biso   1.000  O
  O67      1.0000 0.20123  0.27456  0.87467  Biso   1.000  O
  O68      1.0000 0.13933  0.18097  0.75957  Biso   1.000  O
  O69      1.0000 0.00116  0.29014  0.87887  Biso   1.000  O
  O70      1.0000 0.92365  0.30194  0.98847  Biso   1.000  O
  O71      1.0000 0.99864  0.39557  0.88077  Biso   1.000  O
  O72      1.0000 0.04209  0.36577  0.02597  Biso   1.000  O
  N25      1.0000 0.16713  0.22197  0.53647  Biso   1.000  N
  N26      1.0000 0.15763  0.33327  0.51937  Biso   1.000  N
  N27      1.0000 0.27033  0.41527  0.61077  Biso   1.000  N
  C33      1.0000 0.10673  0.21767  0.49497  Biso   1.000  C
  C34      1.0000 0.12283  0.28047  0.44597  Biso   1.000  C
  C35      1.0000 0.19063  0.40017  0.48477  Biso   1.000  C
  C36      1.0000 0.22913  0.44157  0.57187  Biso   1.000  C
  H105     1.0000 0.18743  0.21647  0.48837  Biso   1.000  H
  H106     1.0000 0.15913  0.18777  0.58947  Biso   1.000  H
  H107     1.0000 0.12923  0.33137  0.57427  Biso   1.000  H
  H108     1.0000 0.27613  0.42677  0.67737  Biso   1.000  H
  H109     1.0000 0.31583  0.44877  0.58107  Biso   1.000  H
  H110     1.0000 0.07173  0.20357  0.55157  Biso   1.000  H
  H111     1.0000 0.09173  0.18617  0.43187  Biso   1.000  H
  H112     1.0000 0.08183  0.27777  0.41907  Biso   1.000  H
  H113     1.0000 0.15683  0.28997  0.39327  Biso   1.000  H
  H114     1.0000 0.22503  0.41197  0.42577  Biso   1.000  H
  H115     1.0000 0.16323  0.41757  0.46747  Biso   1.000  H
  H116     1.0000 0.26153  0.48477  0.54567  Biso   1.000  H
  H117     1.0000 0.19983  0.44297  0.63137  Biso   1.000  H
  Ga18     1.0000 0.26852  0.36185  0.88175  Biso   1.000  Ga
  Ga19     1.0000 0.65009  0.75620  0.08198  Biso   1.000  Ga
  P19      1.0000 0.57971  0.76214  0.87797  Biso   1.000  P
  P20      1.0000 0.67297  0.01383  0.72516  Biso   1.000  P
  O73      1.0000 0.63002  0.78785  0.96140  Biso   1.000  O
  O74      1.0000 0.57561  0.82250  0.84240  Biso   1.000  O
  O75      1.0000 0.60789  0.73999  0.79200  Biso   1.000  O
  O76      1.0000 0.51430  0.70830  0.90710  Biso   1.000  O
  O77      1.0000 0.62347  0.95564  0.78780  Biso   1.000  O
  O78      1.0000 0.63527  0.04495  0.67820  Biso   1.000  O
  O79      1.0000 0.72890  0.06359  0.78590  Biso   1.000  O
  O80      1.0000 0.69910  0.99034  0.64070  Biso   1.000  O
  N28      1.0000 0.55530  0.72150  0.13020  Biso   1.000  N
  N29      1.0000 0.66660  0.84230  0.14730  Biso   1.000  N
  N30      1.0000 0.74860  0.81160  0.05590  Biso   1.000  N
  C37      1.0000 0.55100  0.77760  0.17170  Biso   1.000  C
  C38      1.0000 0.61380  0.82430  0.22070  Biso   1.000  C
  C39      1.0000 0.73350  0.87620  0.18190  Biso   1.000  C
  C40      1.0000 0.77490  0.87910  0.09480  Biso   1.000  C
  H118     1.0000 0.54980  0.69570  0.17830  Biso   1.000  H
  H119     1.0000 0.52110  0.69530  0.07720  Biso   1.000  H
  H120     1.0000 0.66470  0.86880  0.09240  Biso   1.000  H
  H121     1.0000 0.76010  0.81730  0.98930  Biso   1.000  H
  H122     1.0000 0.78210  0.79960  0.08560  Biso   1.000  H
  H123     1.0000 0.53690  0.79850  0.11510  Biso   1.000  H
  H124     1.0000 0.51950  0.76110  0.23480  Biso   1.000  H
  H125     1.0000 0.61110  0.86260  0.24760  Biso   1.000  H
  H126     1.0000 0.62330  0.79980  0.27340  Biso   1.000  H
  H127     1.0000 0.74530  0.85360  0.24090  Biso   1.000  H
  H128     1.0000 0.75090  0.92100  0.19920  Biso   1.000  H
  H129     1.0000 0.81810  0.88990  0.12100  Biso   1.000  H
  H130     1.0000 0.77630  0.90980  0.03530  Biso   1.000  H
  Ga20     1.0000 0.31676  0.08953  0.41531  Biso   1.000  Ga
  P21      1.0000 0.24638  0.09547  0.21130  Biso   1.000  P
  P22      1.0000 0.33964  0.34716  0.05849  Biso   1.000  P
  O81      1.0000 0.29669  0.12118  0.29473  Biso   1.000  O
  O82      1.0000 0.24228  0.15583  0.17573  Biso   1.000  O
  O83      1.0000 0.27456  0.07332  0.12533  Biso   1.000  O
  O84      1.0000 0.18097  0.04163  0.24043  Biso   1.000  O
  O85      1.0000 0.29014  0.28897  0.12113  Biso   1.000  O
  O86      1.0000 0.30194  0.37828  0.01153  Biso   1.000  O
  O87      1.0000 0.39557  0.39692  0.11923  Biso   1.000  O
  O88      1.0000 0.36577  0.32367  0.97403  Biso   1.000  O
  N31      1.0000 0.22197  0.05483  0.46353  Biso   1.000  N
  N32      1.0000 0.33327  0.17563  0.48063  Biso   1.000  N
  N33      1.0000 0.41527  0.14493  0.38923  Biso   1.000  N
  C41      1.0000 0.21767  0.11093  0.50503  Biso   1.000  C
  C42      1.0000 0.28047  0.15763  0.55403  Biso   1.000  C
  C43      1.0000 0.40017  0.20953  0.51523  Biso   1.000  C
  C44      1.0000 0.44157  0.21243  0.42813  Biso   1.000  C
  H131     1.0000 0.21647  0.02903  0.51163  Biso   1.000  H
  H132     1.0000 0.18777  0.02863  0.41053  Biso   1.000  H
  H133     1.0000 0.33137  0.20213  0.42573  Biso   1.000  H
  H134     1.0000 0.42677  0.15063  0.32263  Biso   1.000  H
  H135     1.0000 0.44877  0.13293  0.41893  Biso   1.000  H
  H136     1.0000 0.20357  0.13183  0.44843  Biso   1.000  H
  H137     1.0000 0.18617  0.09443  0.56813  Biso   1.000  H
  H138     1.0000 0.27777  0.19593  0.58093  Biso   1.000  H
  H139     1.0000 0.28997  0.13313  0.60673  Biso   1.000  H
  H140     1.0000 0.41197  0.18693  0.57423  Biso   1.000  H
  H141     1.0000 0.41757  0.25433  0.53253  Biso   1.000  H
  H142     1.0000 0.48477  0.22323  0.45433  Biso   1.000  H
  H143     1.0000 0.44297  0.24313  0.36863  Biso   1.000  H
  Ga21     1.0000 0.98342  0.42287  0.74865  Biso   1.000  Ga
  P23      1.0000 0.91304  0.42881  0.54464  Biso   1.000  P
  P24      1.0000 0.00630  0.68050  0.39183  Biso   1.000  P
  O89      1.0000 0.96335  0.45452  0.62807  Biso   1.000  O
  O90      1.0000 0.90894  0.48917  0.50907  Biso   1.000  O
  O91      1.0000 0.94122  0.40666  0.45867  Biso   1.000  O
  O92      1.0000 0.84763  0.37497  0.57377  Biso   1.000  O
  O93      1.0000 0.95680  0.62231  0.45447  Biso   1.000  O
  O94      1.0000 0.96860  0.71162  0.34487  Biso   1.000  O
  O95      1.0000 0.06223  0.73026  0.45257  Biso   1.000  O
  O96      1.0000 0.03243  0.65701  0.30737  Biso   1.000  O
  N34      1.0000 0.88863  0.38817  0.79687  Biso   1.000  N
  N35      1.0000 0.99993  0.50897  0.81397  Biso   1.000  N
  N36      1.0000 0.08193  0.47827  0.72257  Biso   1.000  N
  C45      1.0000 0.88433  0.44427  0.83837  Biso   1.000  C
  C46      1.0000 0.94713  0.49097  0.88737  Biso   1.000  C
  C47      1.0000 0.06683  0.54287  0.84857  Biso   1.000  C
  C48      1.0000 0.10823  0.54577  0.76147  Biso   1.000  C
  H144     1.0000 0.88313  0.36237  0.84497  Biso   1.000  H
  H145     1.0000 0.85443  0.36197  0.74387  Biso   1.000  H
  H146     1.0000 0.99803  0.53547  0.75907  Biso   1.000  H
  H147     1.0000 0.09343  0.48397  0.65597  Biso   1.000  H
  H148     1.0000 0.11543  0.46627  0.75227  Biso   1.000  H
  H149     1.0000 0.87023  0.46517  0.78177  Biso   1.000  H
  H150     1.0000 0.85283  0.42777  0.90147  Biso   1.000  H
  H151     1.0000 0.94443  0.52927  0.91427  Biso   1.000  H
  H152     1.0000 0.95663  0.46647  0.94007  Biso   1.000  H
  H153     1.0000 0.07863  0.52027  0.90757  Biso   1.000  H
  H154     1.0000 0.08423  0.58767  0.86587  Biso   1.000  H
  H155     1.0000 0.15143  0.55657  0.78767  Biso   1.000  H
  H156     1.0000 0.10963  0.57647  0.70197  Biso   1.000  H
  Ga22     1.0000 0.24380  0.89389  0.08198  Biso   1.000  Ga
  P25      1.0000 0.23786  0.81757  0.87797  Biso   1.000  P
  P26      1.0000 0.98617  0.65914  0.72516  Biso   1.000  P
  O97      1.0000 0.21215  0.84217  0.96140  Biso   1.000  O
  O98      1.0000 0.17750  0.75311  0.84240  Biso   1.000  O
  O99      1.0000 0.26001  0.86790  0.79200  Biso   1.000  O
  O100     1.0000 0.29170  0.80600  0.90710  Biso   1.000  O
  O101     1.0000 0.04436  0.66783  0.78780  Biso   1.000  O
  O102     1.0000 0.95505  0.59032  0.67820  Biso   1.000  O
  O103     1.0000 0.93641  0.66531  0.78590  Biso   1.000  O
  O104     1.0000 0.00966  0.70876  0.64070  Biso   1.000  O
  N37      1.0000 0.27850  0.83380  0.13020  Biso   1.000  N
  N38      1.0000 0.15770  0.82430  0.14730  Biso   1.000  N
  N39      1.0000 0.18840  0.93700  0.05590  Biso   1.000  N
  C49      1.0000 0.22240  0.77340  0.17170  Biso   1.000  C
  C50      1.0000 0.17570  0.78950  0.22070  Biso   1.000  C
  C51      1.0000 0.12380  0.85730  0.18190  Biso   1.000  C
  C52      1.0000 0.12090  0.89580  0.09480  Biso   1.000  C
  H157     1.0000 0.30430  0.85410  0.17830  Biso   1.000  H
  H158     1.0000 0.30470  0.82580  0.07720  Biso   1.000  H
  H159     1.0000 0.13120  0.79590  0.09240  Biso   1.000  H
  H160     1.0000 0.18270  0.94280  0.98930  Biso   1.000  H
  H161     1.0000 0.20040  0.98250  0.08560  Biso   1.000  H
  H162     1.0000 0.20150  0.73840  0.11510  Biso   1.000  H
  H163     1.0000 0.23890  0.75840  0.23480  Biso   1.000  H
  H164     1.0000 0.13740  0.74850  0.24760  Biso   1.000  H
  H165     1.0000 0.20020  0.82350  0.27340  Biso   1.000  H
  H166     1.0000 0.14640  0.89170  0.24090  Biso   1.000  H
  H167     1.0000 0.07900  0.82990  0.19920  Biso   1.000  H
  H168     1.0000 0.11010  0.92820  0.12100  Biso   1.000  H
  H169     1.0000 0.09020  0.86650  0.03530  Biso   1.000  H
  Ga23     1.0000 0.91047  0.22722  0.41531  Biso   1.000  Ga
  P27      1.0000 0.90453  0.15090  0.21130  Biso   1.000  P
  P28      1.0000 0.65284  0.99247  0.05849  Biso   1.000  P
  O105     1.0000 0.87882  0.17550  0.29473  Biso   1.000  O
  O106     1.0000 0.84417  0.08644  0.17573  Biso   1.000  O
  O107     1.0000 0.92668  0.20123  0.12533  Biso   1.000  O
  O108     1.0000 0.95837  0.13933  0.24043  Biso   1.000  O
  O109     1.0000 0.71103  0.00116  0.12113  Biso   1.000  O
  O110     1.0000 0.62172  0.92365  0.01153  Biso   1.000  O
  O111     1.0000 0.60308  0.99864  0.11923  Biso   1.000  O
  O112     1.0000 0.67633  0.04209  0.97403  Biso   1.000  O
  N40      1.0000 0.94517  0.16713  0.46353  Biso   1.000  N
  N41      1.0000 0.82437  0.15763  0.48063  Biso   1.000  N
  N42      1.0000 0.85507  0.27033  0.38923  Biso   1.000  N
  C53      1.0000 0.88907  0.10673  0.50503  Biso   1.000  C
  C54      1.0000 0.84237  0.12283  0.55403  Biso   1.000  C
  C55      1.0000 0.79047  0.19063  0.51523  Biso   1.000  C
  C56      1.0000 0.78757  0.22913  0.42813  Biso   1.000  C
  H170     1.0000 0.97097  0.18743  0.51163  Biso   1.000  H
  H171     1.0000 0.97137  0.15913  0.41053  Biso   1.000  H
  H172     1.0000 0.79787  0.12923  0.42573  Biso   1.000  H
  H173     1.0000 0.84937  0.27613  0.32263  Biso   1.000  H
  H174     1.0000 0.86707  0.31583  0.41893  Biso   1.000  H
  H175     1.0000 0.86817  0.07173  0.44843  Biso   1.000  H
  H176     1.0000 0.90557  0.09173  0.56813  Biso   1.000  H
  H177     1.0000 0.80407  0.08183  0.58093  Biso   1.000  H
  H178     1.0000 0.86687  0.15683  0.60673  Biso   1.000  H
  H179     1.0000 0.81307  0.22503  0.57423  Biso   1.000  H
  H180     1.0000 0.74567  0.16323  0.53253  Biso   1.000  H
  H181     1.0000 0.77677  0.26153  0.45433  Biso   1.000  H
  H182     1.0000 0.75687  0.19983  0.36863  Biso   1.000  H
  Ga24     1.0000 0.57713  0.56056  0.74865  Biso   1.000  Ga
  P29      1.0000 0.57119  0.48424  0.54464  Biso   1.000  P
  P30      1.0000 0.31950  0.32581  0.39183  Biso   1.000  P
  O113     1.0000 0.54548  0.50884  0.62807  Biso   1.000  O
  O114     1.0000 0.51083  0.41978  0.50907  Biso   1.000  O
  O115     1.0000 0.59334  0.53457  0.45867  Biso   1.000  O
  O116     1.0000 0.62503  0.47267  0.57377  Biso   1.000  O
  O117     1.0000 0.37769  0.33450  0.45447  Biso   1.000  O
  O118     1.0000 0.28838  0.25699  0.34487  Biso   1.000  O
  O119     1.0000 0.26974  0.33198  0.45257  Biso   1.000  O
  O120     1.0000 0.34299  0.37543  0.30737  Biso   1.000  O
  N43      1.0000 0.61183  0.50047  0.79687  Biso   1.000  N
  N44      1.0000 0.49103  0.49097  0.81397  Biso   1.000  N
  N45      1.0000 0.52173  0.60367  0.72257  Biso   1.000  N
  C57      1.0000 0.55573  0.44007  0.83837  Biso   1.000  C
  C58      1.0000 0.50903  0.45617  0.88737  Biso   1.000  C
  C59      1.0000 0.45713  0.52397  0.84857  Biso   1.000  C
  C60      1.0000 0.45423  0.56247  0.76147  Biso   1.000  C
  H183     1.0000 0.63763  0.52077  0.84497  Biso   1.000  H
  H184     1.0000 0.63803  0.49247  0.74387  Biso   1.000  H
  H185     1.0000 0.46453  0.46257  0.75907  Biso   1.000  H
  H186     1.0000 0.51603  0.60947  0.65597  Biso   1.000  H
  H187     1.0000 0.53373  0.64917  0.75227  Biso   1.000  H
  H188     1.0000 0.53483  0.40507  0.78177  Biso   1.000  H
  H189     1.0000 0.57223  0.42507  0.90147  Biso   1.000  H
  H190     1.0000 0.47073  0.41517  0.91427  Biso   1.000  H
  H191     1.0000 0.53353  0.49017  0.94007  Biso   1.000  H
  H192     1.0000 0.47973  0.55837  0.90757  Biso   1.000  H
  H193     1.0000 0.41233  0.49657  0.86587  Biso   1.000  H
  H194     1.0000 0.44343  0.59487  0.78767  Biso   1.000  H
  H195     1.0000 0.42353  0.53317  0.70197  Biso   1.000  H
  Ga25     1.0000 0.10611  0.34991  0.08198  Biso   1.000  Ga
  P31      1.0000 0.18243  0.42029  0.87797  Biso   1.000  P
  P32      1.0000 0.34086  0.32703  0.72516  Biso   1.000  P
  O121     1.0000 0.15783  0.36998  0.96140  Biso   1.000  O
  O122     1.0000 0.24689  0.42439  0.84240  Biso   1.000  O
  O123     1.0000 0.13210  0.39211  0.79200  Biso   1.000  O
  O124     1.0000 0.19400  0.48570  0.90710  Biso   1.000  O
  O125     1.0000 0.33217  0.37653  0.78780  Biso   1.000  O
  O126     1.0000 0.40968  0.36473  0.67820  Biso   1.000  O
  O127     1.0000 0.33469  0.27110  0.78590  Biso   1.000  O
  O128     1.0000 0.29124  0.30090  0.64070  Biso   1.000  O
  N46      1.0000 0.16620  0.44470  0.13020  Biso   1.000  N
  N47      1.0000 0.17570  0.33340  0.14730  Biso   1.000  N
  N48      1.0000 0.06300  0.25140  0.05590  Biso   1.000  N
  C61      1.0000 0.22660  0.44900  0.17170  Biso   1.000  C
  C62      1.0000 0.21050  0.38620  0.22070  Biso   1.000  C
  C63      1.0000 0.14270  0.26650  0.18190  Biso   1.000  C
  C64      1.0000 0.10420  0.22510  0.09480  Biso   1.000  C
  H196     1.0000 0.14590  0.45020  0.17830  Biso   1.000  H
  H197     1.0000 0.17420  0.47890  0.07720  Biso   1.000  H
  H198     1.0000 0.20410  0.33530  0.09240  Biso   1.000  H
  H199     1.0000 0.05720  0.23990  0.98930  Biso   1.000  H
  H200     1.0000 0.01750  0.21790  0.08560  Biso   1.000  H
  H201     1.0000 0.26160  0.46310  0.11510  Biso   1.000  H
  H202     1.0000 0.24160  0.48050  0.23480  Biso   1.000  H
  H203     1.0000 0.25150  0.38890  0.24760  Biso   1.000  H
  H204     1.0000 0.17650  0.37670  0.27340  Biso   1.000  H
  H205     1.0000 0.10830  0.25470  0.24090  Biso   1.000  H
  H206     1.0000 0.17010  0.24910  0.19920  Biso   1.000  H
  H207     1.0000 0.07180  0.18190  0.12100  Biso   1.000  H
  H208     1.0000 0.13350  0.22370  0.03530  Biso   1.000  H
  Ga26     1.0000 0.77278  0.68324  0.41531  Biso   1.000  Ga
  P33      1.0000 0.84910  0.75362  0.21130  Biso   1.000  P
  P34      1.0000 0.00753  0.66036  0.05849  Biso   1.000  P
  O129     1.0000 0.82450  0.70331  0.29473  Biso   1.000  O
  O130     1.0000 0.91356  0.75772  0.17573  Biso   1.000  O
  O131     1.0000 0.79877  0.72544  0.12533  Biso   1.000  O
  O132     1.0000 0.86067  0.81903  0.24043  Biso   1.000  O
  O133     1.0000 0.99884  0.70986  0.12113  Biso   1.000  O
  O134     1.0000 0.07635  0.69806  0.01153  Biso   1.000  O
  O135     1.0000 0.00136  0.60443  0.11923  Biso   1.000  O
  O136     1.0000 0.95791  0.63423  0.97403  Biso   1.000  O
  N49      1.0000 0.83287  0.77803  0.46353  Biso   1.000  N
  N50      1.0000 0.84237  0.66673  0.48063  Biso   1.000  N
  N51      1.0000 0.72967  0.58473  0.38923  Biso   1.000  N
  C65      1.0000 0.89327  0.78233  0.50503  Biso   1.000  C
  C66      1.0000 0.87717  0.71953  0.55403  Biso   1.000  C
  C67      1.0000 0.80937  0.59983  0.51523  Biso   1.000  C
  C68      1.0000 0.77087  0.55843  0.42813  Biso   1.000  C
  H209     1.0000 0.81257  0.78353  0.51163  Biso   1.000  H
  H210     1.0000 0.84087  0.81223  0.41053  Biso   1.000  H
  H211     1.0000 0.87077  0.66863  0.42573  Biso   1.000  H
  H212     1.0000 0.72387  0.57323  0.32263  Biso   1.000  H
  H213     1.0000 0.68417  0.55123  0.41893  Biso   1.000  H
  H214     1.0000 0.92827  0.79643  0.44843  Biso   1.000  H
  H215     1.0000 0.90827  0.81383  0.56813  Biso   1.000  H
  H216     1.0000 0.91817  0.72223  0.58093  Biso   1.000  H
  H217     1.0000 0.84317  0.71003  0.60673  Biso   1.000  H
  H218     1.0000 0.77497  0.58803  0.57423  Biso   1.000  H
  H219     1.0000 0.83677  0.58243  0.53253  Biso   1.000  H
  H220     1.0000 0.73847  0.51523  0.45433  Biso   1.000  H
  H221     1.0000 0.80017  0.55703  0.36863  Biso   1.000  H
  Ga27     1.0000 0.43944  0.01658  0.74865  Biso   1.000  Ga
  P35      1.0000 0.51576  0.08696  0.54464  Biso   1.000  P
  P36      1.0000 0.67419  0.99370  0.39183  Biso   1.000  P
  O137     1.0000 0.49116  0.03665  0.62807  Biso   1.000  O
  O138     1.0000 0.58022  0.09106  0.50907  Biso   1.000  O
  O139     1.0000 0.46543  0.05878  0.45867  Biso   1.000  O
  O140     1.0000 0.52733  0.15237  0.57377  Biso   1.000  O
  O141     1.0000 0.66550  0.04320  0.45447  Biso   1.000  O
  O142     1.0000 0.74301  0.03140  0.34487  Biso   1.000  O
  O143     1.0000 0.66802  0.93777  0.45257  Biso   1.000  O
  O144     1.0000 0.62457  0.96757  0.30737  Biso   1.000  O
  N52      1.0000 0.49953  0.11137  0.79687  Biso   1.000  N
  N53      1.0000 0.50903  0.00007  0.81397  Biso   1.000  N
  N54      1.0000 0.39633  0.91807  0.72257  Biso   1.000  N
  C69      1.0000 0.55993  0.11567  0.83837  Biso   1.000  C
  C70      1.0000 0.54383  0.05287  0.88737  Biso   1.000  C
  C71      1.0000 0.47603  0.93317  0.84857  Biso   1.000  C
  C72      1.0000 0.43753  0.89177  0.76147  Biso   1.000  C
  H222     1.0000 0.47923  0.11687  0.84497  Biso   1.000  H
  H223     1.0000 0.50753  0.14557  0.74387  Biso   1.000  H
  H224     1.0000 0.53743  0.00197  0.75907  Biso   1.000  H
  H225     1.0000 0.39053  0.90657  0.65597  Biso   1.000  H
  H226     1.0000 0.35083  0.88457  0.75227  Biso   1.000  H
  H227     1.0000 0.59493  0.12977  0.78177  Biso   1.000  H
  H228     1.0000 0.57493  0.14717  0.90147  Biso   1.000  H
  H229     1.0000 0.58483  0.05557  0.91427  Biso   1.000  H
  H230     1.0000 0.50983  0.04337  0.94007  Biso   1.000  H
  H231     1.0000 0.44163  0.92137  0.90757  Biso   1.000  H
  H232     1.0000 0.50343  0.91577  0.86587  Biso   1.000  H
  H233     1.0000 0.40513  0.84857  0.78767  Biso   1.000  H
  H234     1.0000 0.46683  0.89037  0.70197  Biso   1.000  H
