data_image0
_cell_length_a       23.7422
_cell_length_b       23.7422
_cell_length_c       13.4888
_cell_angle_alpha    90
_cell_angle_beta     90
_cell_angle_gamma    120

_symmetry_space_group_name_H-M    "P 1"
_symmetry_int_tables_number       1

loop_
  _symmetry_equiv_pos_as_xyz
  'x, y, z'

loop_
  _atom_site_label
  _atom_site_occupancy
  _atom_site_fract_x
  _atom_site_fract_y
  _atom_site_fract_z
  _atom_site_thermal_displace_type
  _atom_site_B_iso_or_equiv
  _atom_site_type_symbol
  Co1      1.0000 0.36039  0.09303  0.11998  Biso   1.000  Co
  Cr1      1.0000 0.34981  0.24277  0.91542  Biso   1.000  Cr
  P1       1.0000 0.41876  0.23619  0.11949  Biso   1.000  P
  P2       1.0000 0.32681  0.98696  0.27712  Biso   1.000  P
  O1       1.0000 0.36719  0.21018  0.03740  Biso   1.000  O
  O2       1.0000 0.42234  0.17578  0.15640  Biso   1.000  O
  O3       1.0000 0.39150  0.25946  0.20650  Biso   1.000  O
  O4       1.0000 0.48414  0.28969  0.08930  Biso   1.000  O
  O5       1.0000 0.37531  0.04450  0.21160  Biso   1.000  O
  O6       1.0000 0.36705  0.95863  0.32500  Biso   1.000  O
  O7       1.0000 0.27152  0.93516  0.21730  Biso   1.000  O
  O8       1.0000 0.30027  0.01060  0.36000  Biso   1.000  O
  N1       1.0000 0.44440  0.27551  0.86930  Biso   1.000  N
  N2       1.0000 0.33260  0.15656  0.85110  Biso   1.000  N
  N3       1.0000 0.25082  0.18856  0.94130  Biso   1.000  N
  C1       1.0000 0.44730  0.21820  0.83040  Biso   1.000  C
  C2       1.0000 0.38500  0.17300  0.77980  Biso   1.000  C
  C3       1.0000 0.26480  0.12230  0.81690  Biso   1.000  C
  C4       1.0000 0.22370  0.12100  0.90370  Biso   1.000  C
  H1       1.0000 0.45560  0.30500  0.82020  Biso   1.000  H
  H2       1.0000 0.47250  0.29270  0.92060  Biso   1.000  H
  H3       1.0000 0.32800  0.12600  0.89390  Biso   1.000  H
  H4       1.0000 0.23540  0.21020  0.91620  Biso   1.000  H
  H5       1.0000 0.23700  0.18200  0.00510  Biso   1.000  H
  H6       1.0000 0.45290  0.19350  0.88910  Biso   1.000  H
  H7       1.0000 0.48400  0.23800  0.78780  Biso   1.000  H
  H8       1.0000 0.37840  0.19390  0.72360  Biso   1.000  H
  H9       1.0000 0.38990  0.13760  0.74610  Biso   1.000  H
  H10      1.0000 0.25460  0.14780  0.76430  Biso   1.000  H
  H11      1.0000 0.25810  0.08020  0.79560  Biso   1.000  H
  H12      1.0000 0.18040  0.10730  0.87410  Biso   1.000  H
  H13      1.0000 0.22800  0.09720  0.96180  Biso   1.000  H
  Ga1      1.0000 0.30628  0.24030  0.21335  Biso   1.000  Ga
  Ga2      1.0000 0.24277  0.89296  0.08458  Biso   1.000  Ga
  Co2      1.0000 0.02706  0.42636  0.45331  Biso   1.000  Co
  Cr2      1.0000 0.01648  0.57610  0.24875  Biso   1.000  Cr
  P3       1.0000 0.08543  0.56952  0.45282  Biso   1.000  P
  P4       1.0000 0.99348  0.32029  0.61045  Biso   1.000  P
  O9       1.0000 0.03386  0.54351  0.37073  Biso   1.000  O
  O10      1.0000 0.08901  0.50911  0.48973  Biso   1.000  O
  O11      1.0000 0.05817  0.59279  0.53983  Biso   1.000  O
  O12      1.0000 0.15081  0.62302  0.42263  Biso   1.000  O
  O13      1.0000 0.04198  0.37783  0.54493  Biso   1.000  O
  O14      1.0000 0.03372  0.29196  0.65833  Biso   1.000  O
  O15      1.0000 0.93819  0.26849  0.55063  Biso   1.000  O
  O16      1.0000 0.96694  0.34393  0.69333  Biso   1.000  O
  N4       1.0000 0.11107  0.60884  0.20263  Biso   1.000  N
  N5       1.0000 0.99927  0.48989  0.18443  Biso   1.000  N
  N6       1.0000 0.91749  0.52189  0.27463  Biso   1.000  N
  C5       1.0000 0.11397  0.55153  0.16373  Biso   1.000  C
  C6       1.0000 0.05167  0.50633  0.11313  Biso   1.000  C
  C7       1.0000 0.93147  0.45563  0.15023  Biso   1.000  C
  C8       1.0000 0.89037  0.45433  0.23703  Biso   1.000  C
  H14      1.0000 0.12227  0.63833  0.15353  Biso   1.000  H
  H15      1.0000 0.13917  0.62603  0.25393  Biso   1.000  H
  H16      1.0000 0.99467  0.45933  0.22723  Biso   1.000  H
  H17      1.0000 0.90207  0.54353  0.24953  Biso   1.000  H
  H18      1.0000 0.90367  0.51533  0.33843  Biso   1.000  H
  H19      1.0000 0.11957  0.52683  0.22243  Biso   1.000  H
  H20      1.0000 0.15067  0.57133  0.12113  Biso   1.000  H
  H21      1.0000 0.04507  0.52723  0.05693  Biso   1.000  H
  H22      1.0000 0.05657  0.47093  0.07943  Biso   1.000  H
  H23      1.0000 0.92127  0.48113  0.09763  Biso   1.000  H
  H24      1.0000 0.92477  0.41353  0.12893  Biso   1.000  H
  H25      1.0000 0.84707  0.44063  0.20743  Biso   1.000  H
  H26      1.0000 0.89467  0.43053  0.29513  Biso   1.000  H
  Ga3      1.0000 0.97294  0.57364  0.54669  Biso   1.000  Ga
  Ga4      1.0000 0.90944  0.22629  0.41791  Biso   1.000  Ga
  Co3      1.0000 0.69372  0.75970  0.78665  Biso   1.000  Co
  Cr3      1.0000 0.68314  0.90944  0.58209  Biso   1.000  Cr
  P5       1.0000 0.75209  0.90286  0.78616  Biso   1.000  P
  P6       1.0000 0.66014  0.65363  0.94379  Biso   1.000  P
  O17      1.0000 0.70052  0.87685  0.70407  Biso   1.000  O
  O18      1.0000 0.75567  0.84245  0.82307  Biso   1.000  O
  O19      1.0000 0.72483  0.92613  0.87317  Biso   1.000  O
  O20      1.0000 0.81747  0.95636  0.75597  Biso   1.000  O
  O21      1.0000 0.70864  0.71117  0.87827  Biso   1.000  O
  O22      1.0000 0.70038  0.62530  0.99167  Biso   1.000  O
  O23      1.0000 0.60485  0.60183  0.88397  Biso   1.000  O
  O24      1.0000 0.63360  0.67727  0.02667  Biso   1.000  O
  N7       1.0000 0.77773  0.94218  0.53597  Biso   1.000  N
  N8       1.0000 0.66593  0.82323  0.51777  Biso   1.000  N
  N9       1.0000 0.58415  0.85523  0.60797  Biso   1.000  N
  C9       1.0000 0.78063  0.88487  0.49707  Biso   1.000  C
  C10      1.0000 0.71833  0.83967  0.44647  Biso   1.000  C
  C11      1.0000 0.59813  0.78897  0.48357  Biso   1.000  C
  C12      1.0000 0.55703  0.78767  0.57037  Biso   1.000  C
  H27      1.0000 0.78893  0.97167  0.48687  Biso   1.000  H
  H28      1.0000 0.80583  0.95937  0.58727  Biso   1.000  H
  H29      1.0000 0.66133  0.79267  0.56057  Biso   1.000  H
  H30      1.0000 0.56873  0.87687  0.58287  Biso   1.000  H
  H31      1.0000 0.57033  0.84867  0.67177  Biso   1.000  H
  H32      1.0000 0.78623  0.86017  0.55577  Biso   1.000  H
  H33      1.0000 0.81733  0.90467  0.45447  Biso   1.000  H
  H34      1.0000 0.71173  0.86057  0.39027  Biso   1.000  H
  H35      1.0000 0.72323  0.80427  0.41277  Biso   1.000  H
  H36      1.0000 0.58793  0.81447  0.43097  Biso   1.000  H
  H37      1.0000 0.59143  0.74687  0.46227  Biso   1.000  H
  H38      1.0000 0.51373  0.77397  0.54077  Biso   1.000  H
  H39      1.0000 0.56133  0.76387  0.62847  Biso   1.000  H
  Ga5      1.0000 0.63961  0.90697  0.88002  Biso   1.000  Ga
  Ga6      1.0000 0.57610  0.55963  0.75125  Biso   1.000  Ga
  Co4      1.0000 0.90697  0.26736  0.11998  Biso   1.000  Co
  Cr4      1.0000 0.75723  0.10704  0.91542  Biso   1.000  Cr
  P7       1.0000 0.76381  0.18257  0.11949  Biso   1.000  P
  P8       1.0000 0.01304  0.33985  0.27712  Biso   1.000  P
  O25      1.0000 0.78982  0.15701  0.03740  Biso   1.000  O
  O26      1.0000 0.82422  0.24656  0.15640  Biso   1.000  O
  O27      1.0000 0.74054  0.13204  0.20650  Biso   1.000  O
  O28      1.0000 0.71031  0.19445  0.08930  Biso   1.000  O
  O29      1.0000 0.95550  0.33081  0.21160  Biso   1.000  O
  O30      1.0000 0.04137  0.40842  0.32500  Biso   1.000  O
  O31      1.0000 0.06484  0.33636  0.21730  Biso   1.000  O
  O32      1.0000 0.98940  0.28967  0.36000  Biso   1.000  O
  N10      1.0000 0.72449  0.16889  0.86930  Biso   1.000  N
  N11      1.0000 0.84344  0.17604  0.85110  Biso   1.000  N
  N12      1.0000 0.81144  0.06226  0.94130  Biso   1.000  N
  C13      1.0000 0.78180  0.22910  0.83040  Biso   1.000  C
  C14      1.0000 0.82700  0.21200  0.77980  Biso   1.000  C
  C15      1.0000 0.87770  0.14250  0.81690  Biso   1.000  C
  C16      1.0000 0.87900  0.10270  0.90370  Biso   1.000  C
  H40      1.0000 0.69500  0.15060  0.82020  Biso   1.000  H
  H41      1.0000 0.70730  0.17980  0.92060  Biso   1.000  H
  H42      1.0000 0.87400  0.20200  0.89390  Biso   1.000  H
  H43      1.0000 0.78980  0.02520  0.91620  Biso   1.000  H
  H44      1.0000 0.81800  0.05500  0.00510  Biso   1.000  H
  H45      1.0000 0.80650  0.25940  0.88910  Biso   1.000  H
  H46      1.0000 0.76200  0.24600  0.78780  Biso   1.000  H
  H47      1.0000 0.80610  0.18450  0.72360  Biso   1.000  H
  H48      1.0000 0.86240  0.25230  0.74610  Biso   1.000  H
  H49      1.0000 0.85220  0.10680  0.76430  Biso   1.000  H
  H50      1.0000 0.91980  0.17790  0.79560  Biso   1.000  H
  H51      1.0000 0.89270  0.07310  0.87410  Biso   1.000  H
  H52      1.0000 0.90280  0.13080  0.96180  Biso   1.000  H
  Ga7      1.0000 0.75970  0.06597  0.21335  Biso   1.000  Ga
  Ga8      1.0000 0.10704  0.34981  0.08458  Biso   1.000  Ga
  Co5      1.0000 0.57364  0.60069  0.45331  Biso   1.000  Co
  Cr5      1.0000 0.42390  0.44037  0.24875  Biso   1.000  Cr
  P9       1.0000 0.43048  0.51590  0.45282  Biso   1.000  P
  P10      1.0000 0.67971  0.67318  0.61045  Biso   1.000  P
  O33      1.0000 0.45649  0.49034  0.37073  Biso   1.000  O
  O34      1.0000 0.49089  0.57989  0.48973  Biso   1.000  O
  O35      1.0000 0.40721  0.46537  0.53983  Biso   1.000  O
  O36      1.0000 0.37698  0.52778  0.42263  Biso   1.000  O
  O37      1.0000 0.62217  0.66414  0.54493  Biso   1.000  O
  O38      1.0000 0.70804  0.74175  0.65833  Biso   1.000  O
  O39      1.0000 0.73151  0.66969  0.55063  Biso   1.000  O
  O40      1.0000 0.65607  0.62300  0.69333  Biso   1.000  O
  N13      1.0000 0.39116  0.50222  0.20263  Biso   1.000  N
  N14      1.0000 0.51011  0.50937  0.18443  Biso   1.000  N
  N15      1.0000 0.47811  0.39559  0.27463  Biso   1.000  N
  C17      1.0000 0.44847  0.56243  0.16373  Biso   1.000  C
  C18      1.0000 0.49367  0.54533  0.11313  Biso   1.000  C
  C19      1.0000 0.54437  0.47583  0.15023  Biso   1.000  C
  C20      1.0000 0.54567  0.43603  0.23703  Biso   1.000  C
  H53      1.0000 0.36167  0.48393  0.15353  Biso   1.000  H
  H54      1.0000 0.37397  0.51313  0.25393  Biso   1.000  H
  H55      1.0000 0.54067  0.53533  0.22723  Biso   1.000  H
  H56      1.0000 0.45647  0.35853  0.24953  Biso   1.000  H
  H57      1.0000 0.48467  0.38833  0.33843  Biso   1.000  H
  H58      1.0000 0.47317  0.59273  0.22243  Biso   1.000  H
  H59      1.0000 0.42867  0.57933  0.12113  Biso   1.000  H
  H60      1.0000 0.47277  0.51783  0.05693  Biso   1.000  H
  H61      1.0000 0.52907  0.58563  0.07943  Biso   1.000  H
  H62      1.0000 0.51887  0.44013  0.09763  Biso   1.000  H
  H63      1.0000 0.58647  0.51123  0.12893  Biso   1.000  H
  H64      1.0000 0.55937  0.40643  0.20743  Biso   1.000  H
  H65      1.0000 0.56947  0.46413  0.29513  Biso   1.000  H
  Ga9      1.0000 0.42636  0.39931  0.54669  Biso   1.000  Ga
  Ga10     1.0000 0.77371  0.68314  0.41791  Biso   1.000  Ga
  Co6      1.0000 0.24030  0.93403  0.78665  Biso   1.000  Co
  Cr6      1.0000 0.09056  0.77371  0.58209  Biso   1.000  Cr
  P11      1.0000 0.09714  0.84924  0.78616  Biso   1.000  P
  P12      1.0000 0.34637  0.00652  0.94379  Biso   1.000  P
  O41      1.0000 0.12315  0.82368  0.70407  Biso   1.000  O
  O42      1.0000 0.15755  0.91323  0.82307  Biso   1.000  O
  O43      1.0000 0.07387  0.79871  0.87317  Biso   1.000  O
  O44      1.0000 0.04364  0.86112  0.75597  Biso   1.000  O
  O45      1.0000 0.28883  0.99748  0.87827  Biso   1.000  O
  O46      1.0000 0.37470  0.07509  0.99167  Biso   1.000  O
  O47      1.0000 0.39817  0.00303  0.88397  Biso   1.000  O
  O48      1.0000 0.32273  0.95634  0.02667  Biso   1.000  O
  N16      1.0000 0.05782  0.83556  0.53597  Biso   1.000  N
  N17      1.0000 0.17677  0.84271  0.51777  Biso   1.000  N
  N18      1.0000 0.14477  0.72893  0.60797  Biso   1.000  N
  C21      1.0000 0.11513  0.89577  0.49707  Biso   1.000  C
  C22      1.0000 0.16033  0.87867  0.44647  Biso   1.000  C
  C23      1.0000 0.21103  0.80917  0.48357  Biso   1.000  C
  C24      1.0000 0.21233  0.76937  0.57037  Biso   1.000  C
  H66      1.0000 0.02833  0.81727  0.48687  Biso   1.000  H
  H67      1.0000 0.04063  0.84647  0.58727  Biso   1.000  H
  H68      1.0000 0.20733  0.86867  0.56057  Biso   1.000  H
  H69      1.0000 0.12313  0.69187  0.58287  Biso   1.000  H
  H70      1.0000 0.15133  0.72167  0.67177  Biso   1.000  H
  H71      1.0000 0.13983  0.92607  0.55577  Biso   1.000  H
  H72      1.0000 0.09533  0.91267  0.45447  Biso   1.000  H
  H73      1.0000 0.13943  0.85117  0.39027  Biso   1.000  H
  H74      1.0000 0.19573  0.91897  0.41277  Biso   1.000  H
  H75      1.0000 0.18553  0.77347  0.43097  Biso   1.000  H
  H76      1.0000 0.25313  0.84457  0.46227  Biso   1.000  H
  H77      1.0000 0.22603  0.73977  0.54077  Biso   1.000  H
  H78      1.0000 0.23613  0.79747  0.62847  Biso   1.000  H
  Ga11     1.0000 0.09303  0.73264  0.88002  Biso   1.000  Ga
  Ga12     1.0000 0.44037  0.01648  0.75125  Biso   1.000  Ga
  Co7      1.0000 0.73264  0.63961  0.11998  Biso   1.000  Co
  Cr7      1.0000 0.89296  0.65019  0.91542  Biso   1.000  Cr
  P13      1.0000 0.81743  0.58124  0.11949  Biso   1.000  P
  P14      1.0000 0.66015  0.67319  0.27712  Biso   1.000  P
  O49      1.0000 0.84299  0.63281  0.03740  Biso   1.000  O
  O50      1.0000 0.75344  0.57766  0.15640  Biso   1.000  O
  O51      1.0000 0.86796  0.60850  0.20650  Biso   1.000  O
  O52      1.0000 0.80555  0.51586  0.08930  Biso   1.000  O
  O53      1.0000 0.66919  0.62469  0.21160  Biso   1.000  O
  O54      1.0000 0.59158  0.63295  0.32500  Biso   1.000  O
  O55      1.0000 0.66364  0.72848  0.21730  Biso   1.000  O
  O56      1.0000 0.71033  0.69973  0.36000  Biso   1.000  O
  N19      1.0000 0.83111  0.55560  0.86930  Biso   1.000  N
  N20      1.0000 0.82396  0.66740  0.85110  Biso   1.000  N
  N21      1.0000 0.93774  0.74918  0.94130  Biso   1.000  N
  C25      1.0000 0.77090  0.55270  0.83040  Biso   1.000  C
  C26      1.0000 0.78800  0.61500  0.77980  Biso   1.000  C
  C27      1.0000 0.85750  0.73520  0.81690  Biso   1.000  C
  C28      1.0000 0.89730  0.77630  0.90370  Biso   1.000  C
  H79      1.0000 0.84940  0.54440  0.82020  Biso   1.000  H
  H80      1.0000 0.82020  0.52750  0.92060  Biso   1.000  H
  H81      1.0000 0.79800  0.67200  0.89390  Biso   1.000  H
  H82      1.0000 0.97480  0.76460  0.91620  Biso   1.000  H
  H83      1.0000 0.94500  0.76300  0.00510  Biso   1.000  H
  H84      1.0000 0.74060  0.54710  0.88910  Biso   1.000  H
  H85      1.0000 0.75400  0.51600  0.78780  Biso   1.000  H
  H86      1.0000 0.81550  0.62160  0.72360  Biso   1.000  H
  H87      1.0000 0.74770  0.61010  0.74610  Biso   1.000  H
  H88      1.0000 0.89320  0.74540  0.76430  Biso   1.000  H
  H89      1.0000 0.82210  0.74190  0.79560  Biso   1.000  H
  H90      1.0000 0.92690  0.81960  0.87410  Biso   1.000  H
  H91      1.0000 0.86920  0.77200  0.96180  Biso   1.000  H
  Ga13     1.0000 0.93403  0.69372  0.21335  Biso   1.000  Ga
  Ga14     1.0000 0.65019  0.75723  0.08458  Biso   1.000  Ga
  Co8      1.0000 0.39931  0.97294  0.45331  Biso   1.000  Co
  Cr8      1.0000 0.55963  0.98352  0.24875  Biso   1.000  Cr
  P15      1.0000 0.48410  0.91457  0.45282  Biso   1.000  P
  P16      1.0000 0.32682  0.00652  0.61045  Biso   1.000  P
  O57      1.0000 0.50966  0.96614  0.37073  Biso   1.000  O
  O58      1.0000 0.42011  0.91099  0.48973  Biso   1.000  O
  O59      1.0000 0.53463  0.94183  0.53983  Biso   1.000  O
  O60      1.0000 0.47222  0.84919  0.42263  Biso   1.000  O
  O61      1.0000 0.33586  0.95802  0.54493  Biso   1.000  O
  O62      1.0000 0.25825  0.96628  0.65833  Biso   1.000  O
  O63      1.0000 0.33031  0.06181  0.55063  Biso   1.000  O
  O64      1.0000 0.37700  0.03306  0.69333  Biso   1.000  O
  N22      1.0000 0.49778  0.88893  0.20263  Biso   1.000  N
  N23      1.0000 0.49063  0.00073  0.18443  Biso   1.000  N
  N24      1.0000 0.60441  0.08251  0.27463  Biso   1.000  N
  C29      1.0000 0.43757  0.88603  0.16373  Biso   1.000  C
  C30      1.0000 0.45467  0.94833  0.11313  Biso   1.000  C
  C31      1.0000 0.52417  0.06853  0.15023  Biso   1.000  C
  C32      1.0000 0.56397  0.10963  0.23703  Biso   1.000  C
  H92      1.0000 0.51607  0.87773  0.15353  Biso   1.000  H
  H93      1.0000 0.48687  0.86083  0.25393  Biso   1.000  H
  H94      1.0000 0.46467  0.00533  0.22723  Biso   1.000  H
  H95      1.0000 0.64147  0.09793  0.24953  Biso   1.000  H
  H96      1.0000 0.61167  0.09633  0.33843  Biso   1.000  H
  H97      1.0000 0.40727  0.88043  0.22243  Biso   1.000  H
  H98      1.0000 0.42067  0.84933  0.12113  Biso   1.000  H
  H99      1.0000 0.48217  0.95493  0.05693  Biso   1.000  H
  H100     1.0000 0.41437  0.94343  0.07943  Biso   1.000  H
  H101     1.0000 0.55987  0.07873  0.09763  Biso   1.000  H
  H102     1.0000 0.48877  0.07523  0.12893  Biso   1.000  H
  H103     1.0000 0.59357  0.15293  0.20743  Biso   1.000  H
  H104     1.0000 0.53587  0.10533  0.29513  Biso   1.000  H
  Ga15     1.0000 0.60069  0.02706  0.54669  Biso   1.000  Ga
  Ga16     1.0000 0.31686  0.09056  0.41791  Biso   1.000  Ga
  Co9      1.0000 0.06597  0.30628  0.78665  Biso   1.000  Co
  Cr9      1.0000 0.22629  0.31686  0.58209  Biso   1.000  Cr
  P17      1.0000 0.15076  0.24791  0.78616  Biso   1.000  P
  P18      1.0000 0.99348  0.33986  0.94379  Biso   1.000  P
  O65      1.0000 0.17632  0.29948  0.70407  Biso   1.000  O
  O66      1.0000 0.08677  0.24433  0.82307  Biso   1.000  O
  O67      1.0000 0.20129  0.27517  0.87317  Biso   1.000  O
  O68      1.0000 0.13888  0.18253  0.75597  Biso   1.000  O
  O69      1.0000 0.00252  0.29136  0.87827  Biso   1.000  O
  O70      1.0000 0.92491  0.29962  0.99167  Biso   1.000  O
  O71      1.0000 0.99697  0.39515  0.88397  Biso   1.000  O
  O72      1.0000 0.04366  0.36640  0.02667  Biso   1.000  O
  N25      1.0000 0.16444  0.22227  0.53597  Biso   1.000  N
  N26      1.0000 0.15729  0.33407  0.51777  Biso   1.000  N
  N27      1.0000 0.27107  0.41585  0.60797  Biso   1.000  N
  C33      1.0000 0.10423  0.21937  0.49707  Biso   1.000  C
  C34      1.0000 0.12133  0.28167  0.44647  Biso   1.000  C
  C35      1.0000 0.19083  0.40187  0.48357  Biso   1.000  C
  C36      1.0000 0.23063  0.44297  0.57037  Biso   1.000  C
  H105     1.0000 0.18273  0.21107  0.48687  Biso   1.000  H
  H106     1.0000 0.15353  0.19417  0.58727  Biso   1.000  H
  H107     1.0000 0.13133  0.33867  0.56057  Biso   1.000  H
  H108     1.0000 0.30813  0.43127  0.58287  Biso   1.000  H
  H109     1.0000 0.27833  0.42967  0.67177  Biso   1.000  H
  H110     1.0000 0.07393  0.21377  0.55577  Biso   1.000  H
  H111     1.0000 0.08733  0.18267  0.45447  Biso   1.000  H
  H112     1.0000 0.14883  0.28827  0.39027  Biso   1.000  H
  H113     1.0000 0.08103  0.27677  0.41277  Biso   1.000  H
  H114     1.0000 0.22653  0.41207  0.43097  Biso   1.000  H
  H115     1.0000 0.15543  0.40857  0.46227  Biso   1.000  H
  H116     1.0000 0.26023  0.48627  0.54077  Biso   1.000  H
  H117     1.0000 0.20253  0.43867  0.62847  Biso   1.000  H
  Ga17     1.0000 0.26736  0.36039  0.88002  Biso   1.000  Ga
  Ga18     1.0000 0.98352  0.42390  0.75125  Biso   1.000  Ga
  P19      1.0000 0.58124  0.76381  0.88051  Biso   1.000  P
  P20      1.0000 0.67319  0.01304  0.72288  Biso   1.000  P
  O73      1.0000 0.63281  0.78982  0.96260  Biso   1.000  O
  O74      1.0000 0.57766  0.82422  0.84360  Biso   1.000  O
  O75      1.0000 0.60850  0.74054  0.79350  Biso   1.000  O
  O76      1.0000 0.51586  0.71031  0.91070  Biso   1.000  O
  O77      1.0000 0.62469  0.95550  0.78840  Biso   1.000  O
  O78      1.0000 0.63295  0.04137  0.67500  Biso   1.000  O
  O79      1.0000 0.72848  0.06484  0.78270  Biso   1.000  O
  O80      1.0000 0.69973  0.98940  0.64000  Biso   1.000  O
  N28      1.0000 0.55560  0.72449  0.13070  Biso   1.000  N
  N29      1.0000 0.66740  0.84344  0.14890  Biso   1.000  N
  N30      1.0000 0.74918  0.81144  0.05870  Biso   1.000  N
  C37      1.0000 0.55270  0.78180  0.16960  Biso   1.000  C
  C38      1.0000 0.61500  0.82700  0.22020  Biso   1.000  C
  C39      1.0000 0.73520  0.87770  0.18310  Biso   1.000  C
  C40      1.0000 0.77630  0.87900  0.09630  Biso   1.000  C
  H118     1.0000 0.54440  0.69500  0.17980  Biso   1.000  H
  H119     1.0000 0.52750  0.70730  0.07940  Biso   1.000  H
  H120     1.0000 0.67200  0.87400  0.10610  Biso   1.000  H
  H121     1.0000 0.76460  0.78980  0.08380  Biso   1.000  H
  H122     1.0000 0.76300  0.81800  0.99490  Biso   1.000  H
  H123     1.0000 0.54710  0.80650  0.11090  Biso   1.000  H
  H124     1.0000 0.51600  0.76200  0.21220  Biso   1.000  H
  H125     1.0000 0.62160  0.80610  0.27640  Biso   1.000  H
  H126     1.0000 0.61010  0.86240  0.25390  Biso   1.000  H
  H127     1.0000 0.74540  0.85220  0.23570  Biso   1.000  H
  H128     1.0000 0.74190  0.91980  0.20440  Biso   1.000  H
  H129     1.0000 0.81960  0.89270  0.12590  Biso   1.000  H
  H130     1.0000 0.77200  0.90280  0.03820  Biso   1.000  H
  P21      1.0000 0.24791  0.09714  0.21384  Biso   1.000  P
  P22      1.0000 0.33986  0.34637  0.05621  Biso   1.000  P
  O81      1.0000 0.29948  0.12315  0.29593  Biso   1.000  O
  O82      1.0000 0.24433  0.15755  0.17693  Biso   1.000  O
  O83      1.0000 0.27517  0.07387  0.12683  Biso   1.000  O
  O84      1.0000 0.18253  0.04364  0.24403  Biso   1.000  O
  O85      1.0000 0.29136  0.28883  0.12173  Biso   1.000  O
  O86      1.0000 0.29962  0.37470  0.00833  Biso   1.000  O
  O87      1.0000 0.39515  0.39817  0.11603  Biso   1.000  O
  O88      1.0000 0.36640  0.32273  0.97333  Biso   1.000  O
  N31      1.0000 0.22227  0.05782  0.46403  Biso   1.000  N
  N32      1.0000 0.33407  0.17677  0.48223  Biso   1.000  N
  N33      1.0000 0.41585  0.14477  0.39203  Biso   1.000  N
  C41      1.0000 0.21937  0.11513  0.50293  Biso   1.000  C
  C42      1.0000 0.28167  0.16033  0.55353  Biso   1.000  C
  C43      1.0000 0.40187  0.21103  0.51643  Biso   1.000  C
  C44      1.0000 0.44297  0.21233  0.42963  Biso   1.000  C
  H131     1.0000 0.21107  0.02833  0.51313  Biso   1.000  H
  H132     1.0000 0.19417  0.04063  0.41273  Biso   1.000  H
  H133     1.0000 0.33867  0.20733  0.43943  Biso   1.000  H
  H134     1.0000 0.43127  0.12313  0.41713  Biso   1.000  H
  H135     1.0000 0.42967  0.15133  0.32823  Biso   1.000  H
  H136     1.0000 0.21377  0.13983  0.44423  Biso   1.000  H
  H137     1.0000 0.18267  0.09533  0.54553  Biso   1.000  H
  H138     1.0000 0.28827  0.13943  0.60973  Biso   1.000  H
  H139     1.0000 0.27677  0.19573  0.58723  Biso   1.000  H
  H140     1.0000 0.41207  0.18553  0.56903  Biso   1.000  H
  H141     1.0000 0.40857  0.25313  0.53773  Biso   1.000  H
  H142     1.0000 0.48627  0.22603  0.45923  Biso   1.000  H
  H143     1.0000 0.43867  0.23613  0.37153  Biso   1.000  H
  P23      1.0000 0.91457  0.43048  0.54718  Biso   1.000  P
  P24      1.0000 0.00652  0.67971  0.38955  Biso   1.000  P
  O89      1.0000 0.96614  0.45649  0.62927  Biso   1.000  O
  O90      1.0000 0.91099  0.49089  0.51027  Biso   1.000  O
  O91      1.0000 0.94183  0.40721  0.46017  Biso   1.000  O
  O92      1.0000 0.84919  0.37698  0.57737  Biso   1.000  O
  O93      1.0000 0.95802  0.62217  0.45507  Biso   1.000  O
  O94      1.0000 0.96628  0.70804  0.34167  Biso   1.000  O
  O95      1.0000 0.06181  0.73151  0.44937  Biso   1.000  O
  O96      1.0000 0.03306  0.65607  0.30667  Biso   1.000  O
  N34      1.0000 0.88893  0.39116  0.79737  Biso   1.000  N
  N35      1.0000 0.00073  0.51011  0.81557  Biso   1.000  N
  N36      1.0000 0.08251  0.47811  0.72537  Biso   1.000  N
  C45      1.0000 0.88603  0.44847  0.83627  Biso   1.000  C
  C46      1.0000 0.94833  0.49367  0.88687  Biso   1.000  C
  C47      1.0000 0.06853  0.54437  0.84977  Biso   1.000  C
  C48      1.0000 0.10963  0.54567  0.76297  Biso   1.000  C
  H144     1.0000 0.87773  0.36167  0.84647  Biso   1.000  H
  H145     1.0000 0.86083  0.37397  0.74607  Biso   1.000  H
  H146     1.0000 0.00533  0.54067  0.77277  Biso   1.000  H
  H147     1.0000 0.09793  0.45647  0.75047  Biso   1.000  H
  H148     1.0000 0.09633  0.48467  0.66157  Biso   1.000  H
  H149     1.0000 0.88043  0.47317  0.77757  Biso   1.000  H
  H150     1.0000 0.84933  0.42867  0.87887  Biso   1.000  H
  H151     1.0000 0.95493  0.47277  0.94307  Biso   1.000  H
  H152     1.0000 0.94343  0.52907  0.92057  Biso   1.000  H
  H153     1.0000 0.07873  0.51887  0.90237  Biso   1.000  H
  H154     1.0000 0.07523  0.58647  0.87107  Biso   1.000  H
  H155     1.0000 0.15293  0.55937  0.79257  Biso   1.000  H
  H156     1.0000 0.10533  0.56947  0.70487  Biso   1.000  H
  P25      1.0000 0.23619  0.81743  0.88051  Biso   1.000  P
  P26      1.0000 0.98696  0.66015  0.72288  Biso   1.000  P
  O97      1.0000 0.21018  0.84299  0.96260  Biso   1.000  O
  O98      1.0000 0.17578  0.75344  0.84360  Biso   1.000  O
  O99      1.0000 0.25946  0.86796  0.79350  Biso   1.000  O
  O100     1.0000 0.28969  0.80555  0.91070  Biso   1.000  O
  O101     1.0000 0.04450  0.66919  0.78840  Biso   1.000  O
  O102     1.0000 0.95863  0.59158  0.67500  Biso   1.000  O
  O103     1.0000 0.93516  0.66364  0.78270  Biso   1.000  O
  O104     1.0000 0.01060  0.71033  0.64000  Biso   1.000  O
  N37      1.0000 0.27551  0.83111  0.13070  Biso   1.000  N
  N38      1.0000 0.15656  0.82396  0.14890  Biso   1.000  N
  N39      1.0000 0.18856  0.93774  0.05870  Biso   1.000  N
  C49      1.0000 0.21820  0.77090  0.16960  Biso   1.000  C
  C50      1.0000 0.17300  0.78800  0.22020  Biso   1.000  C
  C51      1.0000 0.12230  0.85750  0.18310  Biso   1.000  C
  C52      1.0000 0.12100  0.89730  0.09630  Biso   1.000  C
  H157     1.0000 0.30500  0.84940  0.17980  Biso   1.000  H
  H158     1.0000 0.29270  0.82020  0.07940  Biso   1.000  H
  H159     1.0000 0.12600  0.79800  0.10610  Biso   1.000  H
  H160     1.0000 0.21020  0.97480  0.08380  Biso   1.000  H
  H161     1.0000 0.18200  0.94500  0.99490  Biso   1.000  H
  H162     1.0000 0.19350  0.74060  0.11090  Biso   1.000  H
  H163     1.0000 0.23800  0.75400  0.21220  Biso   1.000  H
  H164     1.0000 0.19390  0.81550  0.27640  Biso   1.000  H
  H165     1.0000 0.13760  0.74770  0.25390  Biso   1.000  H
  H166     1.0000 0.14780  0.89320  0.23570  Biso   1.000  H
  H167     1.0000 0.08020  0.82210  0.20440  Biso   1.000  H
  H168     1.0000 0.10730  0.92690  0.12590  Biso   1.000  H
  H169     1.0000 0.09720  0.86920  0.03820  Biso   1.000  H
  P27      1.0000 0.90286  0.15076  0.21384  Biso   1.000  P
  P28      1.0000 0.65363  0.99348  0.05621  Biso   1.000  P
  O105     1.0000 0.87685  0.17632  0.29593  Biso   1.000  O
  O106     1.0000 0.84245  0.08677  0.17693  Biso   1.000  O
  O107     1.0000 0.92613  0.20129  0.12683  Biso   1.000  O
  O108     1.0000 0.95636  0.13888  0.24403  Biso   1.000  O
  O109     1.0000 0.71117  0.00252  0.12173  Biso   1.000  O
  O110     1.0000 0.62530  0.92491  0.00833  Biso   1.000  O
  O111     1.0000 0.60183  0.99697  0.11603  Biso   1.000  O
  O112     1.0000 0.67727  0.04366  0.97333  Biso   1.000  O
  N40      1.0000 0.94218  0.16444  0.46403  Biso   1.000  N
  N41      1.0000 0.82323  0.15729  0.48223  Biso   1.000  N
  N42      1.0000 0.85523  0.27107  0.39203  Biso   1.000  N
  C53      1.0000 0.88487  0.10423  0.50293  Biso   1.000  C
  C54      1.0000 0.83967  0.12133  0.55353  Biso   1.000  C
  C55      1.0000 0.78897  0.19083  0.51643  Biso   1.000  C
  C56      1.0000 0.78767  0.23063  0.42963  Biso   1.000  C
  H170     1.0000 0.97167  0.18273  0.51313  Biso   1.000  H
  H171     1.0000 0.95937  0.15353  0.41273  Biso   1.000  H
  H172     1.0000 0.79267  0.13133  0.43943  Biso   1.000  H
  H173     1.0000 0.87687  0.30813  0.41713  Biso   1.000  H
  H174     1.0000 0.84867  0.27833  0.32823  Biso   1.000  H
  H175     1.0000 0.86017  0.07393  0.44423  Biso   1.000  H
  H176     1.0000 0.90467  0.08733  0.54553  Biso   1.000  H
  H177     1.0000 0.86057  0.14883  0.60973  Biso   1.000  H
  H178     1.0000 0.80427  0.08103  0.58723  Biso   1.000  H
  H179     1.0000 0.81447  0.22653  0.56903  Biso   1.000  H
  H180     1.0000 0.74687  0.15543  0.53773  Biso   1.000  H
  H181     1.0000 0.77397  0.26023  0.45923  Biso   1.000  H
  H182     1.0000 0.76387  0.20253  0.37153  Biso   1.000  H
  P29      1.0000 0.56952  0.48410  0.54718  Biso   1.000  P
  P30      1.0000 0.32029  0.32682  0.38955  Biso   1.000  P
  O113     1.0000 0.54351  0.50966  0.62927  Biso   1.000  O
  O114     1.0000 0.50911  0.42011  0.51027  Biso   1.000  O
  O115     1.0000 0.59279  0.53463  0.46017  Biso   1.000  O
  O116     1.0000 0.62302  0.47222  0.57737  Biso   1.000  O
  O117     1.0000 0.37783  0.33586  0.45507  Biso   1.000  O
  O118     1.0000 0.29196  0.25825  0.34167  Biso   1.000  O
  O119     1.0000 0.26849  0.33031  0.44937  Biso   1.000  O
  O120     1.0000 0.34393  0.37700  0.30667  Biso   1.000  O
  N43      1.0000 0.60884  0.49778  0.79737  Biso   1.000  N
  N44      1.0000 0.48989  0.49063  0.81557  Biso   1.000  N
  N45      1.0000 0.52189  0.60441  0.72537  Biso   1.000  N
  C57      1.0000 0.55153  0.43757  0.83627  Biso   1.000  C
  C58      1.0000 0.50633  0.45467  0.88687  Biso   1.000  C
  C59      1.0000 0.45563  0.52417  0.84977  Biso   1.000  C
  C60      1.0000 0.45433  0.56397  0.76297  Biso   1.000  C
  H183     1.0000 0.63833  0.51607  0.84647  Biso   1.000  H
  H184     1.0000 0.62603  0.48687  0.74607  Biso   1.000  H
  H185     1.0000 0.45933  0.46467  0.77277  Biso   1.000  H
  H186     1.0000 0.54353  0.64147  0.75047  Biso   1.000  H
  H187     1.0000 0.51533  0.61167  0.66157  Biso   1.000  H
  H188     1.0000 0.52683  0.40727  0.77757  Biso   1.000  H
  H189     1.0000 0.57133  0.42067  0.87887  Biso   1.000  H
  H190     1.0000 0.52723  0.48217  0.94307  Biso   1.000  H
  H191     1.0000 0.47093  0.41437  0.92057  Biso   1.000  H
  H192     1.0000 0.48113  0.55987  0.90237  Biso   1.000  H
  H193     1.0000 0.41353  0.48877  0.87107  Biso   1.000  H
  H194     1.0000 0.44063  0.59357  0.79257  Biso   1.000  H
  H195     1.0000 0.43053  0.53587  0.70487  Biso   1.000  H
  P31      1.0000 0.18257  0.41876  0.88051  Biso   1.000  P
  P32      1.0000 0.33985  0.32681  0.72288  Biso   1.000  P
  O121     1.0000 0.15701  0.36719  0.96260  Biso   1.000  O
  O122     1.0000 0.24656  0.42234  0.84360  Biso   1.000  O
  O123     1.0000 0.13204  0.39150  0.79350  Biso   1.000  O
  O124     1.0000 0.19445  0.48414  0.91070  Biso   1.000  O
  O125     1.0000 0.33081  0.37531  0.78840  Biso   1.000  O
  O126     1.0000 0.40842  0.36705  0.67500  Biso   1.000  O
  O127     1.0000 0.33636  0.27152  0.78270  Biso   1.000  O
  O128     1.0000 0.28967  0.30027  0.64000  Biso   1.000  O
  N46      1.0000 0.16889  0.44440  0.13070  Biso   1.000  N
  N47      1.0000 0.17604  0.33260  0.14890  Biso   1.000  N
  N48      1.0000 0.06226  0.25082  0.05870  Biso   1.000  N
  C61      1.0000 0.22910  0.44730  0.16960  Biso   1.000  C
  C62      1.0000 0.21200  0.38500  0.22020  Biso   1.000  C
  C63      1.0000 0.14250  0.26480  0.18310  Biso   1.000  C
  C64      1.0000 0.10270  0.22370  0.09630  Biso   1.000  C
  H196     1.0000 0.15060  0.45560  0.17980  Biso   1.000  H
  H197     1.0000 0.17980  0.47250  0.07940  Biso   1.000  H
  H198     1.0000 0.20200  0.32800  0.10610  Biso   1.000  H
  H199     1.0000 0.02520  0.23540  0.08380  Biso   1.000  H
  H200     1.0000 0.05500  0.23700  0.99490  Biso   1.000  H
  H201     1.0000 0.25940  0.45290  0.11090  Biso   1.000  H
  H202     1.0000 0.24600  0.48400  0.21220  Biso   1.000  H
  H203     1.0000 0.18450  0.37840  0.27640  Biso   1.000  H
  H204     1.0000 0.25230  0.38990  0.25390  Biso   1.000  H
  H205     1.0000 0.10680  0.25460  0.23570  Biso   1.000  H
  H206     1.0000 0.17790  0.25810  0.20440  Biso   1.000  H
  H207     1.0000 0.07310  0.18040  0.12590  Biso   1.000  H
  H208     1.0000 0.13080  0.22800  0.03820  Biso   1.000  H
  P33      1.0000 0.84924  0.75209  0.21384  Biso   1.000  P
  P34      1.0000 0.00652  0.66014  0.05621  Biso   1.000  P
  O129     1.0000 0.82368  0.70052  0.29593  Biso   1.000  O
  O130     1.0000 0.91323  0.75567  0.17693  Biso   1.000  O
  O131     1.0000 0.79871  0.72483  0.12683  Biso   1.000  O
  O132     1.0000 0.86112  0.81747  0.24403  Biso   1.000  O
  O133     1.0000 0.99748  0.70864  0.12173  Biso   1.000  O
  O134     1.0000 0.07509  0.70038  0.00833  Biso   1.000  O
  O135     1.0000 0.00303  0.60485  0.11603  Biso   1.000  O
  O136     1.0000 0.95634  0.63360  0.97333  Biso   1.000  O
  N49      1.0000 0.83556  0.77773  0.46403  Biso   1.000  N
  N50      1.0000 0.84271  0.66593  0.48223  Biso   1.000  N
  N51      1.0000 0.72893  0.58415  0.39203  Biso   1.000  N
  C65      1.0000 0.89577  0.78063  0.50293  Biso   1.000  C
  C66      1.0000 0.87867  0.71833  0.55353  Biso   1.000  C
  C67      1.0000 0.80917  0.59813  0.51643  Biso   1.000  C
  C68      1.0000 0.76937  0.55703  0.42963  Biso   1.000  C
  H209     1.0000 0.81727  0.78893  0.51313  Biso   1.000  H
  H210     1.0000 0.84647  0.80583  0.41273  Biso   1.000  H
  H211     1.0000 0.86867  0.66133  0.43943  Biso   1.000  H
  H212     1.0000 0.69187  0.56873  0.41713  Biso   1.000  H
  H213     1.0000 0.72167  0.57033  0.32823  Biso   1.000  H
  H214     1.0000 0.92607  0.78623  0.44423  Biso   1.000  H
  H215     1.0000 0.91267  0.81733  0.54553  Biso   1.000  H
  H216     1.0000 0.85117  0.71173  0.60973  Biso   1.000  H
  H217     1.0000 0.91897  0.72323  0.58723  Biso   1.000  H
  H218     1.0000 0.77347  0.58793  0.56903  Biso   1.000  H
  H219     1.0000 0.84457  0.59143  0.53773  Biso   1.000  H
  H220     1.0000 0.73977  0.51373  0.45923  Biso   1.000  H
  H221     1.0000 0.79747  0.56133  0.37153  Biso   1.000  H
  P35      1.0000 0.51590  0.08543  0.54718  Biso   1.000  P
  P36      1.0000 0.67318  0.99348  0.38955  Biso   1.000  P
  O137     1.0000 0.49034  0.03386  0.62927  Biso   1.000  O
  O138     1.0000 0.57989  0.08901  0.51027  Biso   1.000  O
  O139     1.0000 0.46537  0.05817  0.46017  Biso   1.000  O
  O140     1.0000 0.52778  0.15081  0.57737  Biso   1.000  O
  O141     1.0000 0.66414  0.04198  0.45507  Biso   1.000  O
  O142     1.0000 0.74175  0.03372  0.34167  Biso   1.000  O
  O143     1.0000 0.66969  0.93819  0.44937  Biso   1.000  O
  O144     1.0000 0.62300  0.96694  0.30667  Biso   1.000  O
  N52      1.0000 0.50222  0.11107  0.79737  Biso   1.000  N
  N53      1.0000 0.50937  0.99927  0.81557  Biso   1.000  N
  N54      1.0000 0.39559  0.91749  0.72537  Biso   1.000  N
  C69      1.0000 0.56243  0.11397  0.83627  Biso   1.000  C
  C70      1.0000 0.54533  0.05167  0.88687  Biso   1.000  C
  C71      1.0000 0.47583  0.93147  0.84977  Biso   1.000  C
  C72      1.0000 0.43603  0.89037  0.76297  Biso   1.000  C
  H222     1.0000 0.48393  0.12227  0.84647  Biso   1.000  H
  H223     1.0000 0.51313  0.13917  0.74607  Biso   1.000  H
  H224     1.0000 0.53533  0.99467  0.77277  Biso   1.000  H
  H225     1.0000 0.35853  0.90207  0.75047  Biso   1.000  H
  H226     1.0000 0.38833  0.90367  0.66157  Biso   1.000  H
  H227     1.0000 0.59273  0.11957  0.77757  Biso   1.000  H
  H228     1.0000 0.57933  0.15067  0.87887  Biso   1.000  H
  H229     1.0000 0.51783  0.04507  0.94307  Biso   1.000  H
  H230     1.0000 0.58563  0.05657  0.92057  Biso   1.000  H
  H231     1.0000 0.44013  0.92127  0.90237  Biso   1.000  H
  H232     1.0000 0.51123  0.92477  0.87107  Biso   1.000  H
  H233     1.0000 0.40643  0.84707  0.79257  Biso   1.000  H
  H234     1.0000 0.46413  0.89467  0.70487  Biso   1.000  H
