data_image0
_cell_length_a       21.858
_cell_length_b       21.858
_cell_length_c       23.333
_cell_angle_alpha    90
_cell_angle_beta     90
_cell_angle_gamma    120

_symmetry_space_group_name_H-M    P 1
_symmetry_int_tables_number       1

loop_
  _symmetry_equiv_pos_as_xyz
  'x, y, z'

loop_
  _atom_site_label
  _atom_site_occupancy
  _atom_site_fract_x
  _atom_site_fract_y
  _atom_site_fract_z
  _atom_site_thermal_displace_type
  _atom_site_B_iso_or_equiv
  _atom_site_type_symbol
  Cd1      1.0000 0.59352  0.12951  0.87132  Biso   1.000  Cd
  Cd2      1.0000 0.40648  0.53599  0.79535  Biso   1.000  Cd
  Co1      1.0000 0.52615  0.88986  0.85288  Biso   1.000  Co
  Co2      1.0000 0.47385  0.36371  0.81379  Biso   1.000  Co
  H1       1.0000 0.45380  0.09730  0.81380  Biso   1.000  H
  H2       1.0000 0.37970  0.04810  0.73630  Biso   1.000  H
  H3       1.0000 0.35900  0.93720  0.70360  Biso   1.000  H
  H4       1.0000 0.44790  0.91220  0.71770  Biso   1.000  H
  H5       1.0000 0.72060  0.97980  0.72150  Biso   1.000  H
  H6       1.0000 0.76440  0.90430  0.76000  Biso   1.000  H
  H7       1.0000 0.70120  0.82570  0.83770  Biso   1.000  H
  H8       1.0000 0.44900  0.68890  0.92370  Biso   1.000  H
  H9       1.0000 0.38320  0.63550  0.00240  Biso   1.000  H
  H10      1.0000 0.38310  0.70720  0.08110  Biso   1.000  H
  H11      1.0000 0.52550  0.87580  0.00170  Biso   1.000  H
  H12      1.0000 0.75090  0.16920  0.86640  Biso   1.000  H
  H13      1.0000 0.83220  0.13140  0.89470  Biso   1.000  H
  H14      1.0000 0.78870  0.02300  0.94190  Biso   1.000  H
  H15      1.0000 0.66540  0.94680  0.94610  Biso   1.000  H
  H16      1.0000 0.38770  0.97360  0.94910  Biso   1.000  H
  H17      1.0000 0.27900  0.88190  0.91300  Biso   1.000  H
  H18      1.0000 0.28090  0.80530  0.84440  Biso   1.000  H
  H19      1.0000 0.53810  0.64990  0.71020  Biso   1.000  H
  H20      1.0000 0.57690  0.76000  0.67090  Biso   1.000  H
  H21      1.0000 0.53690  0.83420  0.70910  Biso   1.000  H
  H22      1.0000 0.42450  0.68280  0.82540  Biso   1.000  H
  H23      1.0000 0.54620  0.64350  0.85287  Biso   1.000  H
  H24      1.0000 0.62030  0.66840  0.93037  Biso   1.000  H
  H25      1.0000 0.64100  0.57820  0.96307  Biso   1.000  H
  H26      1.0000 0.55210  0.46430  0.94897  Biso   1.000  H
  H27      1.0000 0.27940  0.25920  0.94517  Biso   1.000  H
  H28      1.0000 0.23560  0.13990  0.90667  Biso   1.000  H
  H29      1.0000 0.29880  0.12450  0.82897  Biso   1.000  H
  H30      1.0000 0.55100  0.23990  0.74297  Biso   1.000  H
  H31      1.0000 0.61680  0.25230  0.66427  Biso   1.000  H
  H32      1.0000 0.61690  0.32410  0.58557  Biso   1.000  H
  H33      1.0000 0.47450  0.35030  0.66497  Biso   1.000  H
  H34      1.0000 0.24910  0.41830  0.80027  Biso   1.000  H
  H35      1.0000 0.16780  0.29920  0.77197  Biso   1.000  H
  H36      1.0000 0.21130  0.23430  0.72477  Biso   1.000  H
  H37      1.0000 0.33460  0.28140  0.72057  Biso   1.000  H
  H38      1.0000 0.61230  0.58590  0.71757  Biso   1.000  H
  H39      1.0000 0.72100  0.60290  0.75367  Biso   1.000  H
  H40      1.0000 0.71910  0.52440  0.82227  Biso   1.000  H
  H41      1.0000 0.46190  0.11180  0.95647  Biso   1.000  H
  H42      1.0000 0.42310  0.18310  0.99577  Biso   1.000  H
  H43      1.0000 0.46310  0.29730  0.95757  Biso   1.000  H
  H44      1.0000 0.57550  0.25830  0.84127  Biso   1.000  H
  C1       1.0000 0.45480  0.06100  0.79220  Biso   1.000  C
  C2       1.0000 0.40720  0.02860  0.74990  Biso   1.000  C
  C3       1.0000 0.39870  0.96680  0.72670  Biso   1.000  C
  C4       1.0000 0.44850  0.95030  0.73780  Biso   1.000  C
  C5       1.0000 0.50260  0.98800  0.77890  Biso   1.000  C
  C6       1.0000 0.60260  0.98010  0.76220  Biso   1.000  C
  C7       1.0000 0.64100  0.94260  0.78030  Biso   1.000  C
  C8       1.0000 0.69860  0.94870  0.75290  Biso   1.000  C
  C9       1.0000 0.72380  0.90320  0.77580  Biso   1.000  C
  C10      1.0000 0.68650  0.85670  0.82260  Biso   1.000  C
  C11      1.0000 0.63130  0.85790  0.84440  Biso   1.000  C
  C12      1.0000 0.58650  0.81290  0.89550  Biso   1.000  C
  C13      1.0000 0.49020  0.78760  0.95310  Biso   1.000  C
  C14      1.0000 0.44980  0.71660  0.95540  Biso   1.000  C
  C15      1.0000 0.41170  0.68550  0.00100  Biso   1.000  C
  C16      1.0000 0.41350  0.72820  0.04920  Biso   1.000  C
  C17      1.0000 0.49460  0.82600  0.00180  Biso   1.000  C
  C18      1.0000 0.73370  0.12330  0.88200  Biso   1.000  C
  C19      1.0000 0.78290  0.10160  0.90050  Biso   1.000  C
  C20      1.0000 0.75740  0.03710  0.92660  Biso   1.000  C
  C21      1.0000 0.68430  0.99260  0.93000  Biso   1.000  C
  C22      1.0000 0.63930  0.01580  0.90980  Biso   1.000  C
  C23      1.0000 0.52030  0.98880  0.92440  Biso   1.000  C
  C24      1.0000 0.44780  0.93540  0.90940  Biso   1.000  C
  C25      1.0000 0.38570  0.93780  0.92480  Biso   1.000  C
  C26      1.0000 0.32250  0.88510  0.90230  Biso   1.000  C
  C27      1.0000 0.32320  0.83700  0.86390  Biso   1.000  C
  C28      1.0000 0.37900  0.83420  0.85420  Biso   1.000  C
  C29      1.0000 0.39160  0.78780  0.81130  Biso   1.000  C
  C30      1.0000 0.52240  0.67970  0.72620  Biso   1.000  C
  C31      1.0000 0.54570  0.74500  0.70280  Biso   1.000  C
  C32      1.0000 0.52350  0.78970  0.72610  Biso   1.000  C
  C33      1.0000 0.48090  0.76690  0.77530  Biso   1.000  C
  C34      1.0000 0.45710  0.69970  0.79440  Biso   1.000  C
  C35      1.0000 0.54520  0.60620  0.87447  Biso   1.000  C
  C36      1.0000 0.59280  0.62140  0.91677  Biso   1.000  C
  C37      1.0000 0.60130  0.56810  0.93997  Biso   1.000  C
  C38      1.0000 0.55150  0.50180  0.92887  Biso   1.000  C
  C39      1.0000 0.49740  0.48540  0.88777  Biso   1.000  C
  C40      1.0000 0.39740  0.37750  0.90447  Biso   1.000  C
  C41      1.0000 0.35900  0.30160  0.88637  Biso   1.000  C
  C42      1.0000 0.30140  0.25010  0.91377  Biso   1.000  C
  C43      1.0000 0.27620  0.17940  0.89087  Biso   1.000  C
  C44      1.0000 0.31350  0.17020  0.84407  Biso   1.000  C
  C45      1.0000 0.36870  0.22660  0.82227  Biso   1.000  C
  C46      1.0000 0.41350  0.22640  0.77117  Biso   1.000  C
  C47      1.0000 0.50980  0.29740  0.71357  Biso   1.000  C
  C48      1.0000 0.55020  0.26680  0.71127  Biso   1.000  C
  C49      1.0000 0.58830  0.27380  0.66567  Biso   1.000  C
  C50      1.0000 0.58650  0.31470  0.61747  Biso   1.000  C
  C51      1.0000 0.50540  0.33140  0.66487  Biso   1.000  C
  C52      1.0000 0.26630  0.38960  0.78467  Biso   1.000  C
  C53      1.0000 0.21710  0.31870  0.76617  Biso   1.000  C
  C54      1.0000 0.24260  0.27970  0.74007  Biso   1.000  C
  C55      1.0000 0.31570  0.30830  0.73667  Biso   1.000  C
  C56      1.0000 0.36070  0.37650  0.75687  Biso   1.000  C
  C57      1.0000 0.47970  0.46850  0.74227  Biso   1.000  C
  C58      1.0000 0.55220  0.48760  0.75727  Biso   1.000  C
  C59      1.0000 0.61430  0.55210  0.74187  Biso   1.000  C
  C60      1.0000 0.67750  0.56260  0.76437  Biso   1.000  C
  C61      1.0000 0.67680  0.51380  0.80277  Biso   1.000  C
  C62      1.0000 0.62100  0.45520  0.81247  Biso   1.000  C
  C63      1.0000 0.60840  0.39620  0.85537  Biso   1.000  C
  C64      1.0000 0.47760  0.15730  0.94047  Biso   1.000  C
  C65      1.0000 0.45430  0.19930  0.96387  Biso   1.000  C
  C66      1.0000 0.47650  0.26620  0.94057  Biso   1.000  C
  C67      1.0000 0.51910  0.28600  0.89137  Biso   1.000  C
  C68      1.0000 0.54290  0.24260  0.87227  Biso   1.000  C
  N1       1.0000 0.50320  0.04260  0.80420  Biso   1.000  N
  N2       1.0000 0.54530  0.96200  0.79410  Biso   1.000  N
  N3       1.0000 0.60810  0.89800  0.82260  Biso   1.000  N
  N4       1.0000 0.53550  0.82300  0.90470  Biso   1.000  N
  N5       1.0000 0.45750  0.79570  0.04780  Biso   1.000  N
  N6       1.0000 0.66320  0.07880  0.88690  Biso   1.000  N
  N7       1.0000 0.56630  0.96790  0.90800  Biso   1.000  N
  N8       1.0000 0.44220  0.88290  0.87720  Biso   1.000  N
  N9       1.0000 0.45990  0.81090  0.80400  Biso   1.000  N
  N10      1.0000 0.47750  0.65600  0.77160  Biso   1.000  N
  N11      1.0000 0.49680  0.53940  0.86247  Biso   1.000  N
  N12      1.0000 0.45470  0.41670  0.87257  Biso   1.000  N
  N13      1.0000 0.39190  0.28990  0.84407  Biso   1.000  N
  N14      1.0000 0.46450  0.28750  0.76197  Biso   1.000  N
  N15      1.0000 0.54250  0.33820  0.61887  Biso   1.000  N
  N16      1.0000 0.33680  0.41560  0.77977  Biso   1.000  N
  N17      1.0000 0.43370  0.40160  0.75867  Biso   1.000  N
  N18      1.0000 0.55780  0.44070  0.78947  Biso   1.000  N
  N19      1.0000 0.54010  0.35100  0.86267  Biso   1.000  N
  N20      1.0000 0.52250  0.17850  0.89507  Biso   1.000  N
  Cl1      1.0000 0.66453  0.21583  0.79571  Biso   1.000  Cl
  Cl2      1.0000 0.33547  0.55130  0.87096  Biso   1.000  Cl
  O1       1.0000 0.62800  0.02510  0.72260  Biso   1.000  O
  O2       1.0000 0.60350  0.77210  0.92020  Biso   1.000  O
  O3       1.0000 0.53380  0.04610  0.94780  Biso   1.000  O
  O4       1.0000 0.34090  0.73680  0.78820  Biso   1.000  O
  O5       1.0000 0.37200  0.39710  0.94407  Biso   1.000  O
  O6       1.0000 0.39650  0.16860  0.74647  Biso   1.000  O
  O7       1.0000 0.46620  0.51230  0.71887  Biso   1.000  O
  O8       1.0000 0.65910  0.39590  0.87847  Biso   1.000  O
  Cd3      1.0000 0.53599  0.40648  0.53799  Biso   1.000  Cd
  Cd4      1.0000 0.12951  0.59352  0.46201  Biso   1.000  Cd
  Co3      1.0000 0.36371  0.47385  0.51955  Biso   1.000  Co
  Co4      1.0000 0.88986  0.52615  0.48045  Biso   1.000  Co
  H45      1.0000 0.64350  0.54620  0.48047  Biso   1.000  H
  H46      1.0000 0.66840  0.62030  0.40297  Biso   1.000  H
  H47      1.0000 0.57820  0.64100  0.37027  Biso   1.000  H
  H48      1.0000 0.46430  0.55210  0.38437  Biso   1.000  H
  H49      1.0000 0.25920  0.27940  0.38817  Biso   1.000  H
  H50      1.0000 0.13990  0.23560  0.42667  Biso   1.000  H
  H51      1.0000 0.12450  0.29880  0.50437  Biso   1.000  H
  H52      1.0000 0.23990  0.55100  0.59037  Biso   1.000  H
  H53      1.0000 0.25230  0.61680  0.66907  Biso   1.000  H
  H54      1.0000 0.32410  0.61690  0.74777  Biso   1.000  H
  H55      1.0000 0.35030  0.47450  0.66837  Biso   1.000  H
  H56      1.0000 0.41830  0.24910  0.53307  Biso   1.000  H
  H57      1.0000 0.29920  0.16780  0.56137  Biso   1.000  H
  H58      1.0000 0.23430  0.21130  0.60857  Biso   1.000  H
  H59      1.0000 0.28140  0.33460  0.61277  Biso   1.000  H
  H60      1.0000 0.58590  0.61230  0.61577  Biso   1.000  H
  H61      1.0000 0.60290  0.72100  0.57967  Biso   1.000  H
  H62      1.0000 0.52440  0.71910  0.51107  Biso   1.000  H
  H63      1.0000 0.11180  0.46190  0.37687  Biso   1.000  H
  H64      1.0000 0.18310  0.42310  0.33757  Biso   1.000  H
  H65      1.0000 0.29730  0.46310  0.37577  Biso   1.000  H
  H66      1.0000 0.25830  0.57550  0.49207  Biso   1.000  H
  H67      1.0000 0.09730  0.45380  0.51953  Biso   1.000  H
  H68      1.0000 0.04810  0.37970  0.59703  Biso   1.000  H
  H69      1.0000 0.93720  0.35900  0.62973  Biso   1.000  H
  H70      1.0000 0.91220  0.44790  0.61563  Biso   1.000  H
  H71      1.0000 0.97980  0.72060  0.61183  Biso   1.000  H
  H72      1.0000 0.90430  0.76440  0.57333  Biso   1.000  H
  H73      1.0000 0.82570  0.70120  0.49563  Biso   1.000  H
  H74      1.0000 0.68890  0.44900  0.40963  Biso   1.000  H
  H75      1.0000 0.63550  0.38320  0.33093  Biso   1.000  H
  H76      1.0000 0.70720  0.38310  0.25223  Biso   1.000  H
  H77      1.0000 0.87580  0.52550  0.33163  Biso   1.000  H
  H78      1.0000 0.16920  0.75090  0.46693  Biso   1.000  H
  H79      1.0000 0.13140  0.83220  0.43863  Biso   1.000  H
  H80      1.0000 0.02300  0.78870  0.39143  Biso   1.000  H
  H81      1.0000 0.94680  0.66540  0.38723  Biso   1.000  H
  H82      1.0000 0.97360  0.38770  0.38423  Biso   1.000  H
  H83      1.0000 0.88190  0.27900  0.42033  Biso   1.000  H
  H84      1.0000 0.80530  0.28090  0.48893  Biso   1.000  H
  H85      1.0000 0.64990  0.53810  0.62313  Biso   1.000  H
  H86      1.0000 0.76000  0.57690  0.66243  Biso   1.000  H
  H87      1.0000 0.83420  0.53690  0.62423  Biso   1.000  H
  H88      1.0000 0.68280  0.42450  0.50793  Biso   1.000  H
  C69      1.0000 0.60620  0.54520  0.45887  Biso   1.000  C
  C70      1.0000 0.62140  0.59280  0.41657  Biso   1.000  C
  C71      1.0000 0.56810  0.60130  0.39337  Biso   1.000  C
  C72      1.0000 0.50180  0.55150  0.40447  Biso   1.000  C
  C73      1.0000 0.48540  0.49740  0.44557  Biso   1.000  C
  C74      1.0000 0.37750  0.39740  0.42887  Biso   1.000  C
  C75      1.0000 0.30160  0.35900  0.44697  Biso   1.000  C
  C76      1.0000 0.25010  0.30140  0.41957  Biso   1.000  C
  C77      1.0000 0.17940  0.27620  0.44247  Biso   1.000  C
  C78      1.0000 0.17020  0.31350  0.48927  Biso   1.000  C
  C79      1.0000 0.22660  0.36870  0.51107  Biso   1.000  C
  C80      1.0000 0.22640  0.41350  0.56217  Biso   1.000  C
  C81      1.0000 0.29740  0.50980  0.61977  Biso   1.000  C
  C82      1.0000 0.26680  0.55020  0.62207  Biso   1.000  C
  C83      1.0000 0.27380  0.58830  0.66767  Biso   1.000  C
  C84      1.0000 0.31470  0.58650  0.71587  Biso   1.000  C
  C85      1.0000 0.33140  0.50540  0.66847  Biso   1.000  C
  C86      1.0000 0.38960  0.26630  0.54867  Biso   1.000  C
  C87      1.0000 0.31870  0.21710  0.56717  Biso   1.000  C
  C88      1.0000 0.27970  0.24260  0.59327  Biso   1.000  C
  C89      1.0000 0.30830  0.31570  0.59667  Biso   1.000  C
  C90      1.0000 0.37650  0.36070  0.57647  Biso   1.000  C
  C91      1.0000 0.46850  0.47970  0.59107  Biso   1.000  C
  C92      1.0000 0.48760  0.55220  0.57607  Biso   1.000  C
  C93      1.0000 0.55210  0.61430  0.59147  Biso   1.000  C
  C94      1.0000 0.56260  0.67750  0.56897  Biso   1.000  C
  C95      1.0000 0.51380  0.67680  0.53057  Biso   1.000  C
  C96      1.0000 0.45520  0.62100  0.52087  Biso   1.000  C
  C97      1.0000 0.39620  0.60840  0.47797  Biso   1.000  C
  C98      1.0000 0.15730  0.47760  0.39287  Biso   1.000  C
  C99      1.0000 0.19930  0.45430  0.36947  Biso   1.000  C
  C100     1.0000 0.26620  0.47650  0.39277  Biso   1.000  C
  C101     1.0000 0.28600  0.51910  0.44197  Biso   1.000  C
  C102     1.0000 0.24260  0.54290  0.46107  Biso   1.000  C
  C103     1.0000 0.06100  0.45480  0.54113  Biso   1.000  C
  C104     1.0000 0.02860  0.40720  0.58343  Biso   1.000  C
  C105     1.0000 0.96680  0.39870  0.60663  Biso   1.000  C
  C106     1.0000 0.95030  0.44850  0.59553  Biso   1.000  C
  C107     1.0000 0.98800  0.50260  0.55443  Biso   1.000  C
  C108     1.0000 0.98010  0.60260  0.57113  Biso   1.000  C
  C109     1.0000 0.94260  0.64100  0.55303  Biso   1.000  C
  C110     1.0000 0.94870  0.69860  0.58043  Biso   1.000  C
  C111     1.0000 0.90320  0.72380  0.55753  Biso   1.000  C
  C112     1.0000 0.85670  0.68650  0.51073  Biso   1.000  C
  C113     1.0000 0.85790  0.63130  0.48893  Biso   1.000  C
  C114     1.0000 0.81290  0.58650  0.43783  Biso   1.000  C
  C115     1.0000 0.78760  0.49020  0.38023  Biso   1.000  C
  C116     1.0000 0.71660  0.44980  0.37793  Biso   1.000  C
  C117     1.0000 0.68550  0.41170  0.33233  Biso   1.000  C
  C118     1.0000 0.72820  0.41350  0.28413  Biso   1.000  C
  C119     1.0000 0.82600  0.49460  0.33153  Biso   1.000  C
  C120     1.0000 0.12330  0.73370  0.45133  Biso   1.000  C
  C121     1.0000 0.10160  0.78290  0.43283  Biso   1.000  C
  C122     1.0000 0.03710  0.75740  0.40673  Biso   1.000  C
  C123     1.0000 0.99260  0.68430  0.40333  Biso   1.000  C
  C124     1.0000 0.01580  0.63930  0.42353  Biso   1.000  C
  C125     1.0000 0.98880  0.52030  0.40893  Biso   1.000  C
  C126     1.0000 0.93540  0.44780  0.42393  Biso   1.000  C
  C127     1.0000 0.93780  0.38570  0.40853  Biso   1.000  C
  C128     1.0000 0.88510  0.32250  0.43103  Biso   1.000  C
  C129     1.0000 0.83700  0.32320  0.46943  Biso   1.000  C
  C130     1.0000 0.83420  0.37900  0.47913  Biso   1.000  C
  C131     1.0000 0.78780  0.39160  0.52203  Biso   1.000  C
  C132     1.0000 0.67970  0.52240  0.60713  Biso   1.000  C
  C133     1.0000 0.74500  0.54570  0.63053  Biso   1.000  C
  C134     1.0000 0.78970  0.52350  0.60723  Biso   1.000  C
  C135     1.0000 0.76690  0.48090  0.55803  Biso   1.000  C
  C136     1.0000 0.69970  0.45710  0.53893  Biso   1.000  C
  N21      1.0000 0.53940  0.49680  0.47087  Biso   1.000  N
  N22      1.0000 0.41670  0.45470  0.46077  Biso   1.000  N
  N23      1.0000 0.28990  0.39190  0.48927  Biso   1.000  N
  N24      1.0000 0.28750  0.46450  0.57137  Biso   1.000  N
  N25      1.0000 0.33820  0.54250  0.71447  Biso   1.000  N
  N26      1.0000 0.41560  0.33680  0.55357  Biso   1.000  N
  N27      1.0000 0.40160  0.43370  0.57467  Biso   1.000  N
  N28      1.0000 0.44070  0.55780  0.54387  Biso   1.000  N
  N29      1.0000 0.35100  0.54010  0.47067  Biso   1.000  N
  N30      1.0000 0.17850  0.52250  0.43827  Biso   1.000  N
  N31      1.0000 0.04260  0.50320  0.52913  Biso   1.000  N
  N32      1.0000 0.96200  0.54530  0.53923  Biso   1.000  N
  N33      1.0000 0.89800  0.60810  0.51073  Biso   1.000  N
  N34      1.0000 0.82300  0.53550  0.42863  Biso   1.000  N
  N35      1.0000 0.79570  0.45750  0.28553  Biso   1.000  N
  N36      1.0000 0.07880  0.66320  0.44643  Biso   1.000  N
  N37      1.0000 0.96790  0.56630  0.42533  Biso   1.000  N
  N38      1.0000 0.88290  0.44220  0.45613  Biso   1.000  N
  N39      1.0000 0.81090  0.45990  0.52933  Biso   1.000  N
  N40      1.0000 0.65600  0.47750  0.56173  Biso   1.000  N
  Cl3      1.0000 0.55130  0.33547  0.46238  Biso   1.000  Cl
  Cl4      1.0000 0.21583  0.66453  0.53762  Biso   1.000  Cl
  O9       1.0000 0.39710  0.37200  0.38927  Biso   1.000  O
  O10      1.0000 0.16860  0.39650  0.58687  Biso   1.000  O
  O11      1.0000 0.51230  0.46620  0.61447  Biso   1.000  O
  O12      1.0000 0.39590  0.65910  0.45487  Biso   1.000  O
  O13      1.0000 0.02510  0.62800  0.61073  Biso   1.000  O
  O14      1.0000 0.77210  0.60350  0.41313  Biso   1.000  O
  O15      1.0000 0.04610  0.53380  0.38553  Biso   1.000  O
  O16      1.0000 0.73680  0.34090  0.54513  Biso   1.000  O
  Cd5      1.0000 0.87049  0.46401  0.20465  Biso   1.000  Cd
  Cd6      1.0000 0.46401  0.87049  0.12868  Biso   1.000  Cd
  Co5      1.0000 0.11014  0.63629  0.18621  Biso   1.000  Co
  Co6      1.0000 0.63629  0.11014  0.14712  Biso   1.000  Co
  H89      1.0000 0.90270  0.35650  0.14713  Biso   1.000  H
  H90      1.0000 0.95190  0.33160  0.06963  Biso   1.000  H
  H91      1.0000 0.06280  0.42180  0.03693  Biso   1.000  H
  H92      1.0000 0.08780  0.53570  0.05103  Biso   1.000  H
  H93      1.0000 0.02020  0.74080  0.05483  Biso   1.000  H
  H94      1.0000 0.09570  0.86010  0.09333  Biso   1.000  H
  H95      1.0000 0.17430  0.87550  0.17103  Biso   1.000  H
  H96      1.0000 0.31110  0.76010  0.25703  Biso   1.000  H
  H97      1.0000 0.36450  0.74770  0.33573  Biso   1.000  H
  H98      1.0000 0.29280  0.67590  0.41443  Biso   1.000  H
  H99      1.0000 0.12420  0.64970  0.33503  Biso   1.000  H
  H100     1.0000 0.83080  0.58170  0.19973  Biso   1.000  H
  H101     1.0000 0.86860  0.70080  0.22803  Biso   1.000  H
  H102     1.0000 0.97700  0.76570  0.27523  Biso   1.000  H
  H103     1.0000 0.05320  0.71860  0.27943  Biso   1.000  H
  H104     1.0000 0.02640  0.41410  0.28243  Biso   1.000  H
  H105     1.0000 0.11810  0.39710  0.24633  Biso   1.000  H
  H106     1.0000 0.19470  0.47560  0.17773  Biso   1.000  H
  H107     1.0000 0.35010  0.88820  0.04353  Biso   1.000  H
  H108     1.0000 0.24000  0.81690  0.00423  Biso   1.000  H
  H109     1.0000 0.16580  0.70270  0.04243  Biso   1.000  H
  H110     1.0000 0.31720  0.74170  0.15873  Biso   1.000  H
  H111     1.0000 0.35650  0.90270  0.18620  Biso   1.000  H
  H112     1.0000 0.33160  0.95190  0.26370  Biso   1.000  H
  H113     1.0000 0.42180  0.06280  0.29640  Biso   1.000  H
  H114     1.0000 0.53570  0.08780  0.28230  Biso   1.000  H
  H115     1.0000 0.74080  0.02020  0.27850  Biso   1.000  H
  H116     1.0000 0.86010  0.09570  0.24000  Biso   1.000  H
  H117     1.0000 0.87550  0.17430  0.16230  Biso   1.000  H
  H118     1.0000 0.76010  0.31110  0.07630  Biso   1.000  H
  H119     1.0000 0.74770  0.36450  0.99760  Biso   1.000  H
  H120     1.0000 0.67590  0.29280  0.91890  Biso   1.000  H
  H121     1.0000 0.64970  0.12420  0.99830  Biso   1.000  H
  H122     1.0000 0.58170  0.83080  0.13360  Biso   1.000  H
  H123     1.0000 0.70080  0.86860  0.10530  Biso   1.000  H
  H124     1.0000 0.76570  0.97700  0.05810  Biso   1.000  H
  H125     1.0000 0.71860  0.05320  0.05390  Biso   1.000  H
  H126     1.0000 0.41410  0.02640  0.05090  Biso   1.000  H
  H127     1.0000 0.39710  0.11810  0.08700  Biso   1.000  H
  H128     1.0000 0.47560  0.19470  0.15560  Biso   1.000  H
  H129     1.0000 0.88820  0.35010  0.28980  Biso   1.000  H
  H130     1.0000 0.81690  0.24000  0.32910  Biso   1.000  H
  H131     1.0000 0.70270  0.16580  0.29090  Biso   1.000  H
  H132     1.0000 0.74170  0.31720  0.17460  Biso   1.000  H
  C137     1.0000 0.93900  0.39380  0.12553  Biso   1.000  C
  C138     1.0000 0.97140  0.37860  0.08323  Biso   1.000  C
  C139     1.0000 0.03320  0.43190  0.06003  Biso   1.000  C
  C140     1.0000 0.04970  0.49820  0.07113  Biso   1.000  C
  C141     1.0000 0.01200  0.51460  0.11223  Biso   1.000  C
  C142     1.0000 0.01990  0.62250  0.09553  Biso   1.000  C
  C143     1.0000 0.05740  0.69840  0.11363  Biso   1.000  C
  C144     1.0000 0.05130  0.74990  0.08623  Biso   1.000  C
  C145     1.0000 0.09680  0.82060  0.10913  Biso   1.000  C
  C146     1.0000 0.14330  0.82980  0.15593  Biso   1.000  C
  C147     1.0000 0.14210  0.77340  0.17773  Biso   1.000  C
  C148     1.0000 0.18710  0.77360  0.22883  Biso   1.000  C
  C149     1.0000 0.21240  0.70260  0.28643  Biso   1.000  C
  C150     1.0000 0.28340  0.73320  0.28873  Biso   1.000  C
  C151     1.0000 0.31450  0.72620  0.33433  Biso   1.000  C
  C152     1.0000 0.27180  0.68530  0.38253  Biso   1.000  C
  C153     1.0000 0.17400  0.66860  0.33513  Biso   1.000  C
  C154     1.0000 0.87670  0.61040  0.21533  Biso   1.000  C
  C155     1.0000 0.89840  0.68130  0.23383  Biso   1.000  C
  C156     1.0000 0.96290  0.72030  0.25993  Biso   1.000  C
  C157     1.0000 0.00740  0.69170  0.26333  Biso   1.000  C
  C158     1.0000 0.98420  0.62350  0.24313  Biso   1.000  C
  C159     1.0000 0.01120  0.53150  0.25773  Biso   1.000  C
  C160     1.0000 0.06460  0.51240  0.24273  Biso   1.000  C
  C161     1.0000 0.06220  0.44790  0.25813  Biso   1.000  C
  C162     1.0000 0.11490  0.43740  0.23563  Biso   1.000  C
  C163     1.0000 0.16300  0.48620  0.19723  Biso   1.000  C
  C164     1.0000 0.16580  0.54480  0.18753  Biso   1.000  C
  C165     1.0000 0.21220  0.60380  0.14463  Biso   1.000  C
  C166     1.0000 0.32030  0.84270  0.05953  Biso   1.000  C
  C167     1.0000 0.25500  0.80070  0.03613  Biso   1.000  C
  C168     1.0000 0.21030  0.73380  0.05943  Biso   1.000  C
  C169     1.0000 0.23310  0.71400  0.10863  Biso   1.000  C
  C170     1.0000 0.30030  0.75740  0.12773  Biso   1.000  C
  C171     1.0000 0.39380  0.93900  0.20780  Biso   1.000  C
  C172     1.0000 0.37860  0.97140  0.25010  Biso   1.000  C
  C173     1.0000 0.43190  0.03320  0.27330  Biso   1.000  C
  C174     1.0000 0.49820  0.04970  0.26220  Biso   1.000  C
  C175     1.0000 0.51460  0.01200  0.22110  Biso   1.000  C
  C176     1.0000 0.62250  0.01990  0.23780  Biso   1.000  C
  C177     1.0000 0.69840  0.05740  0.21970  Biso   1.000  C
  C178     1.0000 0.74990  0.05130  0.24710  Biso   1.000  C
  C179     1.0000 0.82060  0.09680  0.22420  Biso   1.000  C
  C180     1.0000 0.82980  0.14330  0.17740  Biso   1.000  C
  C181     1.0000 0.77340  0.14210  0.15560  Biso   1.000  C
  C182     1.0000 0.77360  0.18710  0.10450  Biso   1.000  C
  C183     1.0000 0.70260  0.21240  0.04690  Biso   1.000  C
  C184     1.0000 0.73320  0.28340  0.04460  Biso   1.000  C
  C185     1.0000 0.72620  0.31450  0.99900  Biso   1.000  C
  C186     1.0000 0.68530  0.27180  0.95080  Biso   1.000  C
  C187     1.0000 0.66860  0.17400  0.99820  Biso   1.000  C
  C188     1.0000 0.61040  0.87670  0.11800  Biso   1.000  C
  C189     1.0000 0.68130  0.89840  0.09950  Biso   1.000  C
  C190     1.0000 0.72030  0.96290  0.07340  Biso   1.000  C
  C191     1.0000 0.69170  0.00740  0.07000  Biso   1.000  C
  C192     1.0000 0.62350  0.98420  0.09020  Biso   1.000  C
  C193     1.0000 0.53150  0.01120  0.07560  Biso   1.000  C
  C194     1.0000 0.51240  0.06460  0.09060  Biso   1.000  C
  C195     1.0000 0.44790  0.06220  0.07520  Biso   1.000  C
  C196     1.0000 0.43740  0.11490  0.09770  Biso   1.000  C
  C197     1.0000 0.48620  0.16300  0.13610  Biso   1.000  C
  C198     1.0000 0.54480  0.16580  0.14580  Biso   1.000  C
  C199     1.0000 0.60380  0.21220  0.18870  Biso   1.000  C
  C200     1.0000 0.84270  0.32030  0.27380  Biso   1.000  C
  C201     1.0000 0.80070  0.25500  0.29720  Biso   1.000  C
  C202     1.0000 0.73380  0.21030  0.27390  Biso   1.000  C
  C203     1.0000 0.71400  0.23310  0.22470  Biso   1.000  C
  C204     1.0000 0.75740  0.30030  0.20560  Biso   1.000  C
  N41      1.0000 0.95740  0.46060  0.13753  Biso   1.000  N
  N42      1.0000 0.03800  0.58330  0.12743  Biso   1.000  N
  N43      1.0000 0.10200  0.71010  0.15593  Biso   1.000  N
  N44      1.0000 0.17700  0.71250  0.23803  Biso   1.000  N
  N45      1.0000 0.20430  0.66180  0.38113  Biso   1.000  N
  N46      1.0000 0.92120  0.58440  0.22023  Biso   1.000  N
  N47      1.0000 0.03210  0.59840  0.24133  Biso   1.000  N
  N48      1.0000 0.11710  0.55930  0.21053  Biso   1.000  N
  N49      1.0000 0.18910  0.64900  0.13733  Biso   1.000  N
  N50      1.0000 0.34400  0.82150  0.10493  Biso   1.000  N
  N51      1.0000 0.46060  0.95740  0.19580  Biso   1.000  N
  N52      1.0000 0.58330  0.03800  0.20590  Biso   1.000  N
  N53      1.0000 0.71010  0.10200  0.17740  Biso   1.000  N
  N54      1.0000 0.71250  0.17700  0.09530  Biso   1.000  N
  N55      1.0000 0.66180  0.20430  0.95220  Biso   1.000  N
  N56      1.0000 0.58440  0.92120  0.11310  Biso   1.000  N
  N57      1.0000 0.59840  0.03210  0.09200  Biso   1.000  N
  N58      1.0000 0.55930  0.11710  0.12280  Biso   1.000  N
  N59      1.0000 0.64900  0.18910  0.19600  Biso   1.000  N
  N60      1.0000 0.82150  0.34400  0.22840  Biso   1.000  N
  Cl5      1.0000 0.78417  0.44870  0.12904  Biso   1.000  Cl
  Cl6      1.0000 0.44870  0.78417  0.20429  Biso   1.000  Cl
  O17      1.0000 0.97490  0.60290  0.05593  Biso   1.000  O
  O18      1.0000 0.22790  0.83140  0.25353  Biso   1.000  O
  O19      1.0000 0.95390  0.48770  0.28113  Biso   1.000  O
  O20      1.0000 0.26320  0.60410  0.12153  Biso   1.000  O
  O21      1.0000 0.60290  0.97490  0.27740  Biso   1.000  O
  O22      1.0000 0.83140  0.22790  0.07980  Biso   1.000  O
  O23      1.0000 0.48770  0.95390  0.05220  Biso   1.000  O
  O24      1.0000 0.60410  0.26320  0.21180  Biso   1.000  O
