data_image0
_cell_length_a       11.392
_cell_length_b       15.5684
_cell_length_c       17.6685
_cell_angle_alpha    82.4152
_cell_angle_beta     71.193
_cell_angle_gamma    68.5389

_symmetry_space_group_name_H-M    P 1
_symmetry_int_tables_number       1

loop_
  _symmetry_equiv_pos_as_xyz
  'x, y, z'

loop_
  _atom_site_label
  _atom_site_occupancy
  _atom_site_fract_x
  _atom_site_fract_y
  _atom_site_fract_z
  _atom_site_thermal_displace_type
  _atom_site_B_iso_or_equiv
  _atom_site_type_symbol
  Cd1      1.0000 0.15041  0.08587  0.54435  Biso   1.000  Cd
  Cd2      1.0000 0.21937  0.58587  0.04435  Biso   1.000  Cd
  H1       1.0000 0.50970  0.21370  0.37870  Biso   1.000  H
  H2       1.0000 0.59450  0.33440  0.33800  Biso   1.000  H
  H3       1.0000 0.27630  0.50130  0.49870  Biso   1.000  H
  H4       1.0000 0.19150  0.38080  0.53240  Biso   1.000  H
  H5       1.0000 0.68330  0.43470  0.31810  Biso   1.000  H
  H6       1.0000 0.84460  0.44510  0.20290  Biso   1.000  H
  H7       1.0000 0.04330  0.44690  0.11310  Biso   1.000  H
  H8       1.0000 0.02110  0.66560  0.21280  Biso   1.000  H
  H9       1.0000 0.81940  0.67220  0.30480  Biso   1.000  H
  H10      1.0000 0.34070  0.60660  0.45320  Biso   1.000  H
  H11      1.0000 0.55400  0.81110  0.38970  Biso   1.000  H
  H12      1.0000 0.43970  0.95350  0.44870  Biso   1.000  H
  H13      1.0000 0.12070  0.88890  0.54230  Biso   1.000  H
  H14      1.0000 0.22740  0.74290  0.48890  Biso   1.000  H
  H15      1.0000 0.71510  0.17130  0.71590  Biso   1.000  H
  H16      1.0000 0.72950  0.07000  0.69600  Biso   1.000  H
  H17      1.0000 0.78620  0.08360  0.76380  Biso   1.000  H
  H18      1.0000 0.06780  0.16110  0.40530  Biso   1.000  H
  H19      1.0000 0.10680  0.07080  0.39660  Biso   1.000  H
  H20      1.0000 0.89790  0.71370  0.87870  Biso   1.000  H
  H21      1.0000 0.73310  0.83440  0.83800  Biso   1.000  H
  H22      1.0000 0.72370  0.00130  0.99870  Biso   1.000  H
  H23      1.0000 0.89530  0.88080  0.03240  Biso   1.000  H
  H24      1.0000 0.56390  0.93470  0.81810  Biso   1.000  H
  H25      1.0000 0.50740  0.94510  0.70290  Biso   1.000  H
  H26      1.0000 0.39670  0.94690  0.61310  Biso   1.000  H
  H27      1.0000 0.10050  0.16560  0.71280  Biso   1.000  H
  H28      1.0000 0.20360  0.17220  0.80480  Biso   1.000  H
  H29      1.0000 0.59950  0.10660  0.95320  Biso   1.000  H
  H30      1.0000 0.24520  0.31110  0.88970  Biso   1.000  H
  H31      1.0000 0.15810  0.45350  0.94870  Biso   1.000  H
  H32      1.0000 0.44810  0.38890  0.04230  Biso   1.000  H
  H33      1.0000 0.54080  0.24290  0.98890  Biso   1.000  H
  H34      1.0000 0.39770  0.67130  0.21590  Biso   1.000  H
  H35      1.0000 0.50450  0.57000  0.19600  Biso   1.000  H
  H36      1.0000 0.36640  0.58360  0.26380  Biso   1.000  H
  H37      1.0000 0.36580  0.66110  0.90530  Biso   1.000  H
  H38      1.0000 0.42580  0.57080  0.89660  Biso   1.000  H
  C1       1.0000 0.28910  0.20780  0.48440  Biso   1.000  C
  C2       1.0000 0.34050  0.28720  0.45920  Biso   1.000  C
  C3       1.0000 0.46100  0.27280  0.40220  Biso   1.000  C
  C4       1.0000 0.51240  0.34490  0.37870  Biso   1.000  C
  C5       1.0000 0.44610  0.43030  0.41350  Biso   1.000  C
  C6       1.0000 0.32440  0.44370  0.47270  Biso   1.000  C
  C7       1.0000 0.27480  0.37090  0.49310  Biso   1.000  C
  C8       1.0000 0.50300  0.50670  0.39050  Biso   1.000  C
  C9       1.0000 0.62820  0.49410  0.33950  Biso   1.000  C
  C10      1.0000 0.67410  0.56810  0.31950  Biso   1.000  C
  C11      1.0000 0.80760  0.55880  0.26360  Biso   1.000  C
  C12      1.0000 0.87750  0.49220  0.20580  Biso   1.000  C
  C13      1.0000 0.99610  0.49400  0.15180  Biso   1.000  C
  C14      1.0000 0.98290  0.62160  0.20980  Biso   1.000  C
  C15      1.0000 0.86330  0.62530  0.26570  Biso   1.000  C
  C16      1.0000 0.42860  0.59460  0.41920  Biso   1.000  C
  C17      1.0000 0.47920  0.66560  0.39940  Biso   1.000  C
  C18      1.0000 0.40550  0.75960  0.43300  Biso   1.000  C
  C19      1.0000 0.46460  0.82490  0.42170  Biso   1.000  C
  C20      1.0000 0.39510  0.91050  0.45670  Biso   1.000  C
  C21      1.0000 0.21070  0.87250  0.51110  Biso   1.000  C
  C22      1.0000 0.27350  0.78510  0.47930  Biso   1.000  C
  C23      1.0000 0.90240  0.09670  0.65030  Biso   1.000  C
  C24      1.0000 0.77200  0.10620  0.71180  Biso   1.000  C
  C25      1.0000 0.01870  0.70780  0.98440  Biso   1.000  C
  C26      1.0000 0.91310  0.78720  0.95920  Biso   1.000  C
  C27      1.0000 0.86400  0.77280  0.90220  Biso   1.000  C
  C28      1.0000 0.76400  0.84490  0.87870  Biso   1.000  C
  C29      1.0000 0.71010  0.93030  0.91350  Biso   1.000  C
  C30      1.0000 0.75920  0.94370  0.97270  Biso   1.000  C
  C31      1.0000 0.86120  0.87090  0.99310  Biso   1.000  C
  C32      1.0000 0.59980  0.00670  0.89050  Biso   1.000  C
  C33      1.0000 0.53820  0.99410  0.83950  Biso   1.000  C
  C34      1.0000 0.43830  0.06810  0.81950  Biso   1.000  C
  C35      1.0000 0.37000  0.05880  0.76360  Biso   1.000  C
  C36      1.0000 0.42450  0.99220  0.70580  Biso   1.000  C
  C37      1.0000 0.35810  0.99400  0.65180  Biso   1.000  C
  C38      1.0000 0.18570  0.12160  0.70980  Biso   1.000  C
  C39      1.0000 0.24570  0.12530  0.76570  Biso   1.000  C
  C40      1.0000 0.55760  0.09460  0.91920  Biso   1.000  C
  C41      1.0000 0.45580  0.16560  0.89940  Biso   1.000  C
  C42      1.0000 0.40190  0.25960  0.93300  Biso   1.000  C
  C43      1.0000 0.28880  0.32490  0.92170  Biso   1.000  C
  C44      1.0000 0.23770  0.41050  0.95670  Biso   1.000  C
  C45      1.0000 0.40570  0.37250  0.01110  Biso   1.000  C
  C46      1.0000 0.46210  0.28510  0.97930  Biso   1.000  C
  C47      1.0000 0.35060  0.59670  0.15030  Biso   1.000  C
  C48      1.0000 0.41000  0.60620  0.21180  Biso   1.000  C
  N1       1.0000 0.60020  0.65300  0.34940  Biso   1.000  N
  N2       1.0000 0.04680  0.55870  0.15170  Biso   1.000  N
  N3       1.0000 0.27030  0.93550  0.50030  Biso   1.000  N
  N4       1.0000 0.39740  0.15300  0.84940  Biso   1.000  N
  N5       1.0000 0.24280  0.05870  0.65170  Biso   1.000  N
  N6       1.0000 0.29390  0.43550  0.00030  Biso   1.000  N
  O1       1.0000 0.35790  0.12830  0.46350  Biso   1.000  O
  O2       1.0000 0.16830  0.23000  0.52980  Biso   1.000  O
  O3       1.0000 0.96770  0.02300  0.61220  Biso   1.000  O
  O4       1.0000 0.94410  0.16350  0.63750  Biso   1.000  O
  O5       1.0000 0.10510  0.11080  0.42320  Biso   1.000  O
  O6       1.0000 0.05030  0.62830  0.96350  Biso   1.000  O
  O7       1.0000 0.07190  0.73000  0.02980  Biso   1.000  O
  O8       1.0000 0.39710  0.52300  0.11220  Biso   1.000  O
  O9       1.0000 0.25490  0.66350  0.13750  Biso   1.000  O
  O10      1.0000 0.36090  0.61080  0.92320  Biso   1.000  O
  Cd3      1.0000 0.78063  0.41413  0.95565  Biso   1.000  Cd
  Cd4      1.0000 0.84959  0.91413  0.45565  Biso   1.000  Cd
  H39      1.0000 0.10210  0.28630  0.12130  Biso   1.000  H
  H40      1.0000 0.26690  0.16560  0.16200  Biso   1.000  H
  H41      1.0000 0.27630  0.99870  0.00130  Biso   1.000  H
  H42      1.0000 0.10470  0.11920  0.96760  Biso   1.000  H
  H43      1.0000 0.43610  0.06530  0.18190  Biso   1.000  H
  H44      1.0000 0.49260  0.05490  0.29710  Biso   1.000  H
  H45      1.0000 0.60330  0.05310  0.38690  Biso   1.000  H
  H46      1.0000 0.89950  0.83440  0.28720  Biso   1.000  H
  H47      1.0000 0.79640  0.82780  0.19520  Biso   1.000  H
  H48      1.0000 0.40050  0.89340  0.04680  Biso   1.000  H
  H49      1.0000 0.75480  0.68890  0.11030  Biso   1.000  H
  H50      1.0000 0.84190  0.54650  0.05130  Biso   1.000  H
  H51      1.0000 0.55190  0.61110  0.95770  Biso   1.000  H
  H52      1.0000 0.45920  0.75710  0.01110  Biso   1.000  H
  H53      1.0000 0.60230  0.32870  0.78410  Biso   1.000  H
  H54      1.0000 0.49550  0.43000  0.80400  Biso   1.000  H
  H55      1.0000 0.63360  0.41640  0.73620  Biso   1.000  H
  H56      1.0000 0.63420  0.33890  0.09470  Biso   1.000  H
  H57      1.0000 0.57420  0.42920  0.10340  Biso   1.000  H
  H58      1.0000 0.49030  0.78630  0.62130  Biso   1.000  H
  H59      1.0000 0.40550  0.66560  0.66200  Biso   1.000  H
  H60      1.0000 0.72370  0.49870  0.50130  Biso   1.000  H
  H61      1.0000 0.80850  0.61920  0.46760  Biso   1.000  H
  H62      1.0000 0.31670  0.56530  0.68190  Biso   1.000  H
  H63      1.0000 0.15540  0.55490  0.79710  Biso   1.000  H
  H64      1.0000 0.95670  0.55310  0.88690  Biso   1.000  H
  H65      1.0000 0.97890  0.33440  0.78720  Biso   1.000  H
  H66      1.0000 0.18060  0.32780  0.69520  Biso   1.000  H
  H67      1.0000 0.65930  0.39340  0.54680  Biso   1.000  H
  H68      1.0000 0.44600  0.18890  0.61030  Biso   1.000  H
  H69      1.0000 0.56030  0.04650  0.55130  Biso   1.000  H
  H70      1.0000 0.87930  0.11110  0.45770  Biso   1.000  H
  H71      1.0000 0.77260  0.25710  0.51110  Biso   1.000  H
  H72      1.0000 0.28490  0.82870  0.28410  Biso   1.000  H
  H73      1.0000 0.27050  0.93000  0.30400  Biso   1.000  H
  H74      1.0000 0.21380  0.91640  0.23620  Biso   1.000  H
  H75      1.0000 0.93220  0.83890  0.59470  Biso   1.000  H
  H76      1.0000 0.89320  0.92920  0.60340  Biso   1.000  H
  C49      1.0000 0.98130  0.29220  0.01560  Biso   1.000  C
  C50      1.0000 0.08690  0.21280  0.04080  Biso   1.000  C
  C51      1.0000 0.13600  0.22720  0.09780  Biso   1.000  C
  C52      1.0000 0.23600  0.15510  0.12130  Biso   1.000  C
  C53      1.0000 0.28990  0.06970  0.08650  Biso   1.000  C
  C54      1.0000 0.24080  0.05630  0.02730  Biso   1.000  C
  C55      1.0000 0.13880  0.12910  0.00690  Biso   1.000  C
  C56      1.0000 0.40020  0.99330  0.10950  Biso   1.000  C
  C57      1.0000 0.46180  0.00590  0.16050  Biso   1.000  C
  C58      1.0000 0.56170  0.93190  0.18050  Biso   1.000  C
  C59      1.0000 0.63000  0.94120  0.23640  Biso   1.000  C
  C60      1.0000 0.57550  0.00780  0.29420  Biso   1.000  C
  C61      1.0000 0.64190  0.00600  0.34820  Biso   1.000  C
  C62      1.0000 0.81430  0.87840  0.29020  Biso   1.000  C
  C63      1.0000 0.75430  0.87470  0.23430  Biso   1.000  C
  C64      1.0000 0.44240  0.90540  0.08080  Biso   1.000  C
  C65      1.0000 0.54420  0.83440  0.10060  Biso   1.000  C
  C66      1.0000 0.59810  0.74040  0.06700  Biso   1.000  C
  C67      1.0000 0.71120  0.67510  0.07830  Biso   1.000  C
  C68      1.0000 0.76230  0.58950  0.04330  Biso   1.000  C
  C69      1.0000 0.59430  0.62750  0.98890  Biso   1.000  C
  C70      1.0000 0.53790  0.71490  0.02070  Biso   1.000  C
  C71      1.0000 0.64940  0.40330  0.84970  Biso   1.000  C
  C72      1.0000 0.59000  0.39380  0.78820  Biso   1.000  C
  C73      1.0000 0.71090  0.79220  0.51560  Biso   1.000  C
  C74      1.0000 0.65950  0.71280  0.54080  Biso   1.000  C
  C75      1.0000 0.53900  0.72720  0.59780  Biso   1.000  C
  C76      1.0000 0.48760  0.65510  0.62130  Biso   1.000  C
  C77      1.0000 0.55390  0.56970  0.58650  Biso   1.000  C
  C78      1.0000 0.67560  0.55630  0.52730  Biso   1.000  C
  C79      1.0000 0.72520  0.62910  0.50690  Biso   1.000  C
  C80      1.0000 0.49700  0.49330  0.60950  Biso   1.000  C
  C81      1.0000 0.37180  0.50590  0.66050  Biso   1.000  C
  C82      1.0000 0.32590  0.43190  0.68050  Biso   1.000  C
  C83      1.0000 0.19240  0.44120  0.73640  Biso   1.000  C
  C84      1.0000 0.12250  0.50780  0.79420  Biso   1.000  C
  C85      1.0000 0.00390  0.50600  0.84820  Biso   1.000  C
  C86      1.0000 0.01710  0.37840  0.79020  Biso   1.000  C
  C87      1.0000 0.13670  0.37470  0.73430  Biso   1.000  C
  C88      1.0000 0.57140  0.40540  0.58080  Biso   1.000  C
  C89      1.0000 0.52080  0.33440  0.60060  Biso   1.000  C
  C90      1.0000 0.59450  0.24040  0.56700  Biso   1.000  C
  C91      1.0000 0.53540  0.17510  0.57830  Biso   1.000  C
  C92      1.0000 0.60490  0.08950  0.54330  Biso   1.000  C
  C93      1.0000 0.78930  0.12750  0.48890  Biso   1.000  C
  C94      1.0000 0.72650  0.21490  0.52070  Biso   1.000  C
  C95      1.0000 0.09760  0.90330  0.34970  Biso   1.000  C
  C96      1.0000 0.22800  0.89380  0.28820  Biso   1.000  C
  N7       1.0000 0.60260  0.84700  0.15060  Biso   1.000  N
  N8       1.0000 0.75720  0.94130  0.34830  Biso   1.000  N
  N9       1.0000 0.70610  0.56450  0.99970  Biso   1.000  N
  N10      1.0000 0.39980  0.34700  0.65060  Biso   1.000  N
  N11      1.0000 0.95320  0.44130  0.84830  Biso   1.000  N
  N12      1.0000 0.72970  0.06450  0.49970  Biso   1.000  N
  O11      1.0000 0.94970  0.37170  0.03650  Biso   1.000  O
  O12      1.0000 0.92810  0.27000  0.97020  Biso   1.000  O
  O13      1.0000 0.60290  0.47700  0.88780  Biso   1.000  O
  O14      1.0000 0.74510  0.33650  0.86250  Biso   1.000  O
  O15      1.0000 0.63910  0.38920  0.07680  Biso   1.000  O
  O16      1.0000 0.64210  0.87170  0.53650  Biso   1.000  O
  O17      1.0000 0.83170  0.77000  0.47020  Biso   1.000  O
  O18      1.0000 0.03230  0.97700  0.38780  Biso   1.000  O
  O19      1.0000 0.05590  0.83650  0.36250  Biso   1.000  O
  O20      1.0000 0.89490  0.88920  0.57680  Biso   1.000  O
