data_image0
_cell_length_a       13.143
_cell_length_b       25.472
_cell_length_c       25.472
_cell_angle_alpha    120
_cell_angle_beta     90
_cell_angle_gamma    90

_symmetry_space_group_name_H-M    P 1
_symmetry_int_tables_number       1

loop_
  _symmetry_equiv_pos_as_xyz
  'x, y, z'

loop_
  _atom_site_label
  _atom_site_occupancy
  _atom_site_fract_x
  _atom_site_fract_y
  _atom_site_fract_z
  _atom_site_thermal_displace_type
  _atom_site_B_iso_or_equiv
  _atom_site_type_symbol
  Co1      1.0000 0.80881  0.61090  0.88745  Biso   1.000  Co
  Co2      1.0000 0.14214  0.27655  0.38910  Biso   1.000  Co
  Co3      1.0000 0.47548  0.11255  0.72345  Biso   1.000  Co
  Co4      1.0000 0.19119  0.72345  0.11255  Biso   1.000  Co
  Co5      1.0000 0.85786  0.88745  0.61090  Biso   1.000  Co
  Co6      1.0000 0.52452  0.38910  0.27655  Biso   1.000  Co
  Co7      1.0000 0.00000  0.68476  0.00000  Biso   1.000  Co
  Co8      1.0000 0.33333  0.31524  0.31524  Biso   1.000  Co
  Co9      1.0000 0.66667  0.00000  0.68476  Biso   1.000  Co
  H1       1.0000 0.59040  0.75980  0.01580  Biso   1.000  H
  H2       1.0000 0.53040  0.83940  0.10910  Biso   1.000  H
  H3       1.0000 0.76100  0.80560  0.19350  Biso   1.000  H
  H4       1.0000 0.82160  0.73070  0.10110  Biso   1.000  H
  H5       1.0000 0.79730  0.87150  0.43940  Biso   1.000  H
  H6       1.0000 0.75600  0.87770  0.35470  Biso   1.000  H
  H7       1.0000 0.49090  0.96060  0.43580  Biso   1.000  H
  H8       1.0000 0.53970  0.95800  0.52180  Biso   1.000  H
  H9       1.0000 0.28990  0.13010  0.37050  Biso   1.000  H
  H10      1.0000 0.37090  0.04460  0.35650  Biso   1.000  H
  H11      1.0000 0.54380  0.04120  0.22350  Biso   1.000  H
  H12      1.0000 0.45620  0.12530  0.23380  Biso   1.000  H
  H13      1.0000 0.65640  0.84510  0.27180  Biso   1.000  H
  H14      1.0000 0.52260  0.00710  0.37460  Biso   1.000  H
  H15      1.0000 0.54110  0.93500  0.19220  Biso   1.000  H
  H16      1.0000 0.61620  0.63620  0.77420  Biso   1.000  H
  H17      1.0000 0.72910  0.66330  0.78700  Biso   1.000  H
  H18      1.0000 0.67080  0.65450  0.83720  Biso   1.000  H
  H19      1.0000 0.63590  0.54340  0.64610  Biso   1.000  H
  H20      1.0000 0.75200  0.55520  0.63590  Biso   1.000  H
  H21      1.0000 0.68740  0.60780  0.68990  Biso   1.000  H
  H22      1.0000 0.80990  0.47340  0.70540  Biso   1.000  H
  H23      1.0000 0.83210  0.48050  0.64750  Biso   1.000  H
  H24      1.0000 0.72740  0.45110  0.65230  Biso   1.000  H
  H25      1.0000 0.92373  0.25600  0.24020  Biso   1.000  H
  H26      1.0000 0.86373  0.26970  0.16060  Biso   1.000  H
  H27      1.0000 0.09433  0.38790  0.19440  Biso   1.000  H
  H28      1.0000 0.15493  0.37040  0.26930  Biso   1.000  H
  H29      1.0000 0.13063  0.56790  0.12850  Biso   1.000  H
  H30      1.0000 0.08933  0.47700  0.12230  Biso   1.000  H
  H31      1.0000 0.82423  0.47520  0.03940  Biso   1.000  H
  H32      1.0000 0.87303  0.56380  0.04200  Biso   1.000  H
  H33      1.0000 0.62323  0.24040  0.86990  Biso   1.000  H
  H34      1.0000 0.70423  0.31190  0.95540  Biso   1.000  H
  H35      1.0000 0.87713  0.18230  0.95880  Biso   1.000  H
  H36      1.0000 0.78953  0.10850  0.87470  Biso   1.000  H
  H37      1.0000 0.98973  0.42670  0.15490  Biso   1.000  H
  H38      1.0000 0.85593  0.36750  0.99290  Biso   1.000  H
  H39      1.0000 0.87443  0.25720  0.06500  Biso   1.000  H
  H40      1.0000 0.94953  0.13800  0.36380  Biso   1.000  H
  H41      1.0000 0.06243  0.12370  0.33670  Biso   1.000  H
  H42      1.0000 0.00413  0.18270  0.34550  Biso   1.000  H
  H43      1.0000 0.96923  0.10270  0.45660  Biso   1.000  H
  H44      1.0000 0.08533  0.08070  0.44480  Biso   1.000  H
  H45      1.0000 0.02073  0.08210  0.39220  Biso   1.000  H
  H46      1.0000 0.14323  0.23200  0.52660  Biso   1.000  H
  H47      1.0000 0.16543  0.16700  0.51950  Biso   1.000  H
  H48      1.0000 0.06073  0.20120  0.54890  Biso   1.000  H
  H49      1.0000 0.25707  0.98420  0.74400  Biso   1.000  H
  H50      1.0000 0.19707  0.89090  0.73030  Biso   1.000  H
  H51      1.0000 0.42767  0.80650  0.61210  Biso   1.000  H
  H52      1.0000 0.48827  0.89890  0.62960  Biso   1.000  H
  H53      1.0000 0.46397  0.56060  0.43210  Biso   1.000  H
  H54      1.0000 0.42267  0.64530  0.52300  Biso   1.000  H
  H55      1.0000 0.15757  0.56420  0.52480  Biso   1.000  H
  H56      1.0000 0.20637  0.47820  0.43620  Biso   1.000  H
  H57      1.0000 0.95657  0.62950  0.75960  Biso   1.000  H
  H58      1.0000 0.03757  0.64350  0.68810  Biso   1.000  H
  H59      1.0000 0.21047  0.77650  0.81770  Biso   1.000  H
  H60      1.0000 0.12287  0.76620  0.89150  Biso   1.000  H
  H61      1.0000 0.32307  0.72820  0.57330  Biso   1.000  H
  H62      1.0000 0.18927  0.62540  0.63250  Biso   1.000  H
  H63      1.0000 0.20777  0.80780  0.74280  Biso   1.000  H
  H64      1.0000 0.28287  0.22580  0.86200  Biso   1.000  H
  H65      1.0000 0.39577  0.21300  0.87630  Biso   1.000  H
  H66      1.0000 0.33747  0.16280  0.81730  Biso   1.000  H
  H67      1.0000 0.30257  0.35390  0.89730  Biso   1.000  H
  H68      1.0000 0.41867  0.36410  0.91930  Biso   1.000  H
  H69      1.0000 0.35407  0.31010  0.91790  Biso   1.000  H
  H70      1.0000 0.47657  0.29460  0.76800  Biso   1.000  H
  H71      1.0000 0.49877  0.35250  0.83300  Biso   1.000  H
  H72      1.0000 0.39407  0.34770  0.79880  Biso   1.000  H
  H73      1.0000 0.40960  0.74400  0.98420  Biso   1.000  H
  H74      1.0000 0.46960  0.73030  0.89090  Biso   1.000  H
  H75      1.0000 0.23900  0.61210  0.80650  Biso   1.000  H
  H76      1.0000 0.17840  0.62960  0.89890  Biso   1.000  H
  H77      1.0000 0.20270  0.43210  0.56060  Biso   1.000  H
  H78      1.0000 0.24400  0.52300  0.64530  Biso   1.000  H
  H79      1.0000 0.50910  0.52480  0.56420  Biso   1.000  H
  H80      1.0000 0.46030  0.43620  0.47820  Biso   1.000  H
  H81      1.0000 0.71010  0.75960  0.62950  Biso   1.000  H
  H82      1.0000 0.62910  0.68810  0.64350  Biso   1.000  H
  H83      1.0000 0.45620  0.81770  0.77650  Biso   1.000  H
  H84      1.0000 0.54380  0.89150  0.76620  Biso   1.000  H
  H85      1.0000 0.34360  0.57330  0.72820  Biso   1.000  H
  H86      1.0000 0.47740  0.63250  0.62540  Biso   1.000  H
  H87      1.0000 0.45890  0.74280  0.80780  Biso   1.000  H
  H88      1.0000 0.38380  0.86200  0.22580  Biso   1.000  H
  H89      1.0000 0.27090  0.87630  0.21300  Biso   1.000  H
  H90      1.0000 0.32920  0.81730  0.16280  Biso   1.000  H
  H91      1.0000 0.36410  0.89730  0.35390  Biso   1.000  H
  H92      1.0000 0.24800  0.91930  0.36410  Biso   1.000  H
  H93      1.0000 0.31260  0.91790  0.31010  Biso   1.000  H
  H94      1.0000 0.19010  0.76800  0.29460  Biso   1.000  H
  H95      1.0000 0.16790  0.83300  0.35250  Biso   1.000  H
  H96      1.0000 0.27260  0.79880  0.34770  Biso   1.000  H
  H97      1.0000 0.07627  0.01580  0.75980  Biso   1.000  H
  H98      1.0000 0.13627  0.10910  0.83940  Biso   1.000  H
  H99      1.0000 0.90567  0.19350  0.80560  Biso   1.000  H
  H100     1.0000 0.84507  0.10110  0.73070  Biso   1.000  H
  H101     1.0000 0.86937  0.43940  0.87150  Biso   1.000  H
  H102     1.0000 0.91067  0.35470  0.87770  Biso   1.000  H
  H103     1.0000 0.17577  0.43580  0.96060  Biso   1.000  H
  H104     1.0000 0.12697  0.52180  0.95800  Biso   1.000  H
  H105     1.0000 0.37677  0.37050  0.13010  Biso   1.000  H
  H106     1.0000 0.29577  0.35650  0.04460  Biso   1.000  H
  H107     1.0000 0.12287  0.22350  0.04120  Biso   1.000  H
  H108     1.0000 0.21047  0.23380  0.12530  Biso   1.000  H
  H109     1.0000 0.01027  0.27180  0.84510  Biso   1.000  H
  H110     1.0000 0.14407  0.37460  0.00710  Biso   1.000  H
  H111     1.0000 0.12557  0.19220  0.93500  Biso   1.000  H
  H112     1.0000 0.05047  0.77420  0.63620  Biso   1.000  H
  H113     1.0000 0.93757  0.78700  0.66330  Biso   1.000  H
  H114     1.0000 0.99587  0.83720  0.65450  Biso   1.000  H
  H115     1.0000 0.03077  0.64610  0.54340  Biso   1.000  H
  H116     1.0000 0.91467  0.63590  0.55520  Biso   1.000  H
  H117     1.0000 0.97927  0.68990  0.60780  Biso   1.000  H
  H118     1.0000 0.85677  0.70540  0.47340  Biso   1.000  H
  H119     1.0000 0.83457  0.64750  0.48050  Biso   1.000  H
  H120     1.0000 0.93927  0.65230  0.45110  Biso   1.000  H
  H121     1.0000 0.74293  0.24020  0.25600  Biso   1.000  H
  H122     1.0000 0.80293  0.16060  0.26970  Biso   1.000  H
  H123     1.0000 0.57233  0.19440  0.38790  Biso   1.000  H
  H124     1.0000 0.51173  0.26930  0.37040  Biso   1.000  H
  H125     1.0000 0.53603  0.12850  0.56790  Biso   1.000  H
  H126     1.0000 0.57733  0.12230  0.47700  Biso   1.000  H
  H127     1.0000 0.84243  0.03940  0.47520  Biso   1.000  H
  H128     1.0000 0.79363  0.04200  0.56380  Biso   1.000  H
  H129     1.0000 0.04343  0.86990  0.24040  Biso   1.000  H
  H130     1.0000 0.96243  0.95540  0.31190  Biso   1.000  H
  H131     1.0000 0.78953  0.95880  0.18230  Biso   1.000  H
  H132     1.0000 0.87713  0.87470  0.10850  Biso   1.000  H
  H133     1.0000 0.67693  0.15490  0.42670  Biso   1.000  H
  H134     1.0000 0.81073  0.99290  0.36750  Biso   1.000  H
  H135     1.0000 0.79223  0.06500  0.25720  Biso   1.000  H
  H136     1.0000 0.71713  0.36380  0.13800  Biso   1.000  H
  H137     1.0000 0.60423  0.33670  0.12370  Biso   1.000  H
  H138     1.0000 0.66253  0.34550  0.18270  Biso   1.000  H
  H139     1.0000 0.69743  0.45660  0.10270  Biso   1.000  H
  H140     1.0000 0.58133  0.44480  0.08070  Biso   1.000  H
  H141     1.0000 0.64593  0.39220  0.08210  Biso   1.000  H
  H142     1.0000 0.52343  0.52660  0.23200  Biso   1.000  H
  H143     1.0000 0.50123  0.51950  0.16700  Biso   1.000  H
  H144     1.0000 0.60593  0.54890  0.20120  Biso   1.000  H
  C1       1.0000 0.75290  0.69120  0.99010  Biso   1.000  C
  C2       1.0000 0.71120  0.73950  0.04950  Biso   1.000  C
  C3       1.0000 0.62630  0.77010  0.05210  Biso   1.000  C
  C4       1.0000 0.58950  0.81750  0.10820  Biso   1.000  C
  C5       1.0000 0.63930  0.83200  0.16150  Biso   1.000  C
  C6       1.0000 0.72650  0.79750  0.15740  Biso   1.000  C
  C7       1.0000 0.76220  0.75270  0.10270  Biso   1.000  C
  C8       1.0000 0.70690  0.91500  0.54660  Biso   1.000  C
  C9       1.0000 0.67390  0.91560  0.49020  Biso   1.000  C
  C10      1.0000 0.73580  0.89100  0.43910  Biso   1.000  C
  C11      1.0000 0.71110  0.89380  0.38840  Biso   1.000  C
  C12      1.0000 0.61790  0.92080  0.38640  Biso   1.000  C
  C13      1.0000 0.55470  0.94340  0.43640  Biso   1.000  C
  C14      1.0000 0.58360  0.94130  0.48760  Biso   1.000  C
  C15      1.0000 0.31150  0.19400  0.31390  Biso   1.000  C
  C16      1.0000 0.36710  0.13680  0.30280  Biso   1.000  C
  C17      1.0000 0.34090  0.11170  0.34030  Biso   1.000  C
  C18      1.0000 0.39000  0.06130  0.33200  Biso   1.000  C
  C19      1.0000 0.46660  0.03290  0.28960  Biso   1.000  C
  C20      1.0000 0.49130  0.05890  0.25300  Biso   1.000  C
  C21      1.0000 0.44010  0.10960  0.25970  Biso   1.000  C
  C22      1.0000 0.60560  0.88160  0.21980  Biso   1.000  C
  C23      1.0000 0.62310  0.87960  0.27470  Biso   1.000  C
  C24      1.0000 0.59310  0.92600  0.33200  Biso   1.000  C
  C25      1.0000 0.54320  0.97510  0.33590  Biso   1.000  C
  C26      1.0000 0.55460  0.93210  0.22730  Biso   1.000  C
  C27      1.0000 0.52150  0.97920  0.28320  Biso   1.000  C
  C28      1.0000 0.72320  0.57590  0.76720  Biso   1.000  C
  C29      1.0000 0.68130  0.63770  0.79370  Biso   1.000  C
  C30      1.0000 0.69910  0.56400  0.66640  Biso   1.000  C
  C31      1.0000 0.77930  0.48180  0.67530  Biso   1.000  C
  C32      1.0000 0.08623  0.29890  0.30880  Biso   1.000  C
  C33      1.0000 0.04453  0.31000  0.26050  Biso   1.000  C
  C34      1.0000 0.95963  0.28200  0.22990  Biso   1.000  C
  C35      1.0000 0.92283  0.29070  0.18250  Biso   1.000  C
  C36      1.0000 0.97263  0.32950  0.16800  Biso   1.000  C
  C37      1.0000 0.05983  0.35990  0.20250  Biso   1.000  C
  C38      1.0000 0.09553  0.35000  0.24730  Biso   1.000  C
  C39      1.0000 0.04023  0.63160  0.08500  Biso   1.000  C
  C40      1.0000 0.00723  0.57460  0.08440  Biso   1.000  C
  C41      1.0000 0.06913  0.54810  0.10900  Biso   1.000  C
  C42      1.0000 0.04443  0.49460  0.10620  Biso   1.000  C
  C43      1.0000 0.95123  0.46560  0.07920  Biso   1.000  C
  C44      1.0000 0.88803  0.49300  0.05660  Biso   1.000  C
  C45      1.0000 0.91693  0.54630  0.05870  Biso   1.000  C
  C46      1.0000 0.64483  0.11990  0.80600  Biso   1.000  C
  C47      1.0000 0.70043  0.16600  0.86320  Biso   1.000  C
  C48      1.0000 0.67423  0.22860  0.88830  Biso   1.000  C
  C49      1.0000 0.72333  0.27070  0.93870  Biso   1.000  C
  C50      1.0000 0.79993  0.25670  0.96710  Biso   1.000  C
  C51      1.0000 0.82463  0.19410  0.94110  Biso   1.000  C
  C52      1.0000 0.77343  0.15010  0.89040  Biso   1.000  C
  C53      1.0000 0.93893  0.33820  0.11840  Biso   1.000  C
  C54      1.0000 0.95643  0.39510  0.12040  Biso   1.000  C
  C55      1.0000 0.92643  0.40600  0.07400  Biso   1.000  C
  C56      1.0000 0.87653  0.36080  0.02490  Biso   1.000  C
  C57      1.0000 0.88793  0.29520  0.06790  Biso   1.000  C
  C58      1.0000 0.85483  0.30400  0.02080  Biso   1.000  C
  C59      1.0000 0.05653  0.19130  0.42410  Biso   1.000  C
  C60      1.0000 0.01463  0.15600  0.36230  Biso   1.000  C
  C61      1.0000 0.03243  0.10240  0.43600  Biso   1.000  C
  C62      1.0000 0.11263  0.19350  0.51820  Biso   1.000  C
  C63      1.0000 0.41957  0.00990  0.70110  Biso   1.000  C
  C64      1.0000 0.37787  0.95050  0.69000  Biso   1.000  C
  C65      1.0000 0.29297  0.94790  0.71800  Biso   1.000  C
  C66      1.0000 0.25617  0.89180  0.70930  Biso   1.000  C
  C67      1.0000 0.30597  0.83850  0.67050  Biso   1.000  C
  C68      1.0000 0.39317  0.84260  0.64010  Biso   1.000  C
  C69      1.0000 0.42887  0.89730  0.65000  Biso   1.000  C
  C70      1.0000 0.37357  0.45340  0.36840  Biso   1.000  C
  C71      1.0000 0.34057  0.50980  0.42540  Biso   1.000  C
  C72      1.0000 0.40247  0.56090  0.45190  Biso   1.000  C
  C73      1.0000 0.37777  0.61160  0.50540  Biso   1.000  C
  C74      1.0000 0.28457  0.61360  0.53440  Biso   1.000  C
  C75      1.0000 0.22137  0.56360  0.50700  Biso   1.000  C
  C76      1.0000 0.25027  0.51240  0.45370  Biso   1.000  C
  C77      1.0000 0.97817  0.68610  0.88010  Biso   1.000  C
  C78      1.0000 0.03377  0.69720  0.83400  Biso   1.000  C
  C79      1.0000 0.00757  0.65970  0.77140  Biso   1.000  C
  C80      1.0000 0.05667  0.66800  0.72930  Biso   1.000  C
  C81      1.0000 0.13327  0.71040  0.74330  Biso   1.000  C
  C82      1.0000 0.15797  0.74700  0.80590  Biso   1.000  C
  C83      1.0000 0.10677  0.74030  0.84990  Biso   1.000  C
  C84      1.0000 0.27227  0.78020  0.66180  Biso   1.000  C
  C85      1.0000 0.28977  0.72530  0.60490  Biso   1.000  C
  C86      1.0000 0.25977  0.66800  0.59400  Biso   1.000  C
  C87      1.0000 0.20987  0.66410  0.63920  Biso   1.000  C
  C88      1.0000 0.22127  0.77270  0.70480  Biso   1.000  C
  C89      1.0000 0.18817  0.71680  0.69600  Biso   1.000  C
  C90      1.0000 0.38987  0.23280  0.80870  Biso   1.000  C
  C91      1.0000 0.34797  0.20630  0.84400  Biso   1.000  C
  C92      1.0000 0.36577  0.33360  0.89760  Biso   1.000  C
  C93      1.0000 0.44597  0.32470  0.80650  Biso   1.000  C
  C94      1.0000 0.24710  0.70110  0.00990  Biso   1.000  C
  C95      1.0000 0.28880  0.69000  0.95050  Biso   1.000  C
  C96      1.0000 0.37370  0.71800  0.94790  Biso   1.000  C
  C97      1.0000 0.41050  0.70930  0.89180  Biso   1.000  C
  C98      1.0000 0.36070  0.67050  0.83850  Biso   1.000  C
  C99      1.0000 0.27350  0.64010  0.84260  Biso   1.000  C
  C100     1.0000 0.23780  0.65000  0.89730  Biso   1.000  C
  C101     1.0000 0.29310  0.36840  0.45340  Biso   1.000  C
  C102     1.0000 0.32610  0.42540  0.50980  Biso   1.000  C
  C103     1.0000 0.26420  0.45190  0.56090  Biso   1.000  C
  C104     1.0000 0.28890  0.50540  0.61160  Biso   1.000  C
  C105     1.0000 0.38210  0.53440  0.61360  Biso   1.000  C
  C106     1.0000 0.44530  0.50700  0.56360  Biso   1.000  C
  C107     1.0000 0.41640  0.45370  0.51240  Biso   1.000  C
  C108     1.0000 0.68850  0.88010  0.68610  Biso   1.000  C
  C109     1.0000 0.63290  0.83400  0.69720  Biso   1.000  C
  C110     1.0000 0.65910  0.77140  0.65970  Biso   1.000  C
  C111     1.0000 0.61000  0.72930  0.66800  Biso   1.000  C
  C112     1.0000 0.53340  0.74330  0.71040  Biso   1.000  C
  C113     1.0000 0.50870  0.80590  0.74700  Biso   1.000  C
  C114     1.0000 0.55990  0.84990  0.74030  Biso   1.000  C
  C115     1.0000 0.39440  0.66180  0.78020  Biso   1.000  C
  C116     1.0000 0.37690  0.60490  0.72530  Biso   1.000  C
  C117     1.0000 0.40690  0.59400  0.66800  Biso   1.000  C
  C118     1.0000 0.45680  0.63920  0.66410  Biso   1.000  C
  C119     1.0000 0.44540  0.70480  0.77270  Biso   1.000  C
  C120     1.0000 0.47850  0.69600  0.71680  Biso   1.000  C
  C121     1.0000 0.27680  0.80870  0.23280  Biso   1.000  C
  C122     1.0000 0.31870  0.84400  0.20630  Biso   1.000  C
  C123     1.0000 0.30090  0.89760  0.33360  Biso   1.000  C
  C124     1.0000 0.22070  0.80650  0.32470  Biso   1.000  C
  C125     1.0000 0.91377  0.99010  0.69120  Biso   1.000  C
  C126     1.0000 0.95547  0.04950  0.73950  Biso   1.000  C
  C127     1.0000 0.04037  0.05210  0.77010  Biso   1.000  C
  C128     1.0000 0.07717  0.10820  0.81750  Biso   1.000  C
  C129     1.0000 0.02737  0.16150  0.83200  Biso   1.000  C
  C130     1.0000 0.94017  0.15740  0.79750  Biso   1.000  C
  C131     1.0000 0.90447  0.10270  0.75270  Biso   1.000  C
  C132     1.0000 0.95977  0.54660  0.91500  Biso   1.000  C
  C133     1.0000 0.99277  0.49020  0.91560  Biso   1.000  C
  C134     1.0000 0.93087  0.43910  0.89100  Biso   1.000  C
  C135     1.0000 0.95557  0.38840  0.89380  Biso   1.000  C
  C136     1.0000 0.04877  0.38640  0.92080  Biso   1.000  C
  C137     1.0000 0.11197  0.43640  0.94340  Biso   1.000  C
  C138     1.0000 0.08307  0.48760  0.94130  Biso   1.000  C
  C139     1.0000 0.35517  0.31390  0.19400  Biso   1.000  C
  C140     1.0000 0.29957  0.30280  0.13680  Biso   1.000  C
  C141     1.0000 0.32577  0.34030  0.11170  Biso   1.000  C
  C142     1.0000 0.27667  0.33200  0.06130  Biso   1.000  C
  C143     1.0000 0.20007  0.28960  0.03290  Biso   1.000  C
  C144     1.0000 0.17537  0.25300  0.05890  Biso   1.000  C
  C145     1.0000 0.22657  0.25970  0.10960  Biso   1.000  C
  C146     1.0000 0.06107  0.21980  0.88160  Biso   1.000  C
  C147     1.0000 0.04357  0.27470  0.87960  Biso   1.000  C
  C148     1.0000 0.07357  0.33200  0.92600  Biso   1.000  C
  C149     1.0000 0.12347  0.33590  0.97510  Biso   1.000  C
  C150     1.0000 0.11207  0.22730  0.93210  Biso   1.000  C
  C151     1.0000 0.14517  0.28320  0.97920  Biso   1.000  C
  C152     1.0000 0.94347  0.76720  0.57590  Biso   1.000  C
  C153     1.0000 0.98537  0.79370  0.63770  Biso   1.000  C
  C154     1.0000 0.96757  0.66640  0.56400  Biso   1.000  C
  C155     1.0000 0.88737  0.67530  0.48180  Biso   1.000  C
  C156     1.0000 0.58043  0.30880  0.29890  Biso   1.000  C
  C157     1.0000 0.62213  0.26050  0.31000  Biso   1.000  C
  C158     1.0000 0.70703  0.22990  0.28200  Biso   1.000  C
  C159     1.0000 0.74383  0.18250  0.29070  Biso   1.000  C
  C160     1.0000 0.69403  0.16800  0.32950  Biso   1.000  C
  C161     1.0000 0.60683  0.20250  0.35990  Biso   1.000  C
  C162     1.0000 0.57113  0.24730  0.35000  Biso   1.000  C
  C163     1.0000 0.62643  0.08500  0.63160  Biso   1.000  C
  C164     1.0000 0.65943  0.08440  0.57460  Biso   1.000  C
  C165     1.0000 0.59753  0.10900  0.54810  Biso   1.000  C
  C166     1.0000 0.62223  0.10620  0.49460  Biso   1.000  C
  C167     1.0000 0.71543  0.07920  0.46560  Biso   1.000  C
  C168     1.0000 0.77863  0.05660  0.49300  Biso   1.000  C
  C169     1.0000 0.74973  0.05870  0.54630  Biso   1.000  C
  C170     1.0000 0.02183  0.80600  0.11990  Biso   1.000  C
  C171     1.0000 0.96623  0.86320  0.16600  Biso   1.000  C
  C172     1.0000 0.99243  0.88830  0.22860  Biso   1.000  C
  C173     1.0000 0.94333  0.93870  0.27070  Biso   1.000  C
  C174     1.0000 0.86673  0.96710  0.25670  Biso   1.000  C
  C175     1.0000 0.84203  0.94110  0.19410  Biso   1.000  C
  C176     1.0000 0.89323  0.89040  0.15010  Biso   1.000  C
  C177     1.0000 0.72773  0.11840  0.33820  Biso   1.000  C
  C178     1.0000 0.71023  0.12040  0.39510  Biso   1.000  C
  C179     1.0000 0.74023  0.07400  0.40600  Biso   1.000  C
  C180     1.0000 0.79013  0.02490  0.36080  Biso   1.000  C
  C181     1.0000 0.77873  0.06790  0.29520  Biso   1.000  C
  C182     1.0000 0.81183  0.02080  0.30400  Biso   1.000  C
  C183     1.0000 0.61013  0.42410  0.19130  Biso   1.000  C
  C184     1.0000 0.65203  0.36230  0.15600  Biso   1.000  C
  C185     1.0000 0.63423  0.43600  0.10240  Biso   1.000  C
  C186     1.0000 0.55403  0.51820  0.19350  Biso   1.000  C
  N1       1.0000 0.73150  0.54260  0.70640  Biso   1.000  N
  N2       1.0000 0.06483  0.16380  0.45740  Biso   1.000  N
  N3       1.0000 0.39817  0.29360  0.83620  Biso   1.000  N
  N4       1.0000 0.26850  0.83620  0.29360  Biso   1.000  N
  N5       1.0000 0.93517  0.70640  0.54260  Biso   1.000  N
  N6       1.0000 0.60183  0.45740  0.16380  Biso   1.000  N
  O1       1.0000 0.69590  0.66690  0.94310  Biso   1.000  O
  O2       1.0000 0.84260  0.67292  0.98553  Biso   1.000  O
  O3       1.0000 0.79540  0.89260  0.54332  Biso   1.000  O
  O4       1.0000 0.64910  0.93582  0.59050  Biso   1.000  O
  O5       1.0000 0.23600  0.20732  0.34725  Biso   1.000  O
  O6       1.0000 0.34920  0.22292  0.29089  Biso   1.000  O
  O7       1.0000 0.74530  0.55930  0.80400  Biso   1.000  O
  O8       1.0000 0.02923  0.27620  0.33310  Biso   1.000  O
  O9       1.0000 0.17593  0.31261  0.32708  Biso   1.000  O
  O10      1.0000 0.12873  0.65072  0.10740  Biso   1.000  O
  O11      1.0000 0.98243  0.65468  0.06418  Biso   1.000  O
  O12      1.0000 0.56933  0.13993  0.79268  Biso   1.000  O
  O13      1.0000 0.68253  0.06797  0.77708  Biso   1.000  O
  O14      1.0000 0.07863  0.24470  0.44070  Biso   1.000  O
  O15      1.0000 0.36257  0.05690  0.72380  Biso   1.000  O
  O16      1.0000 0.50927  0.01447  0.68739  Biso   1.000  O
  O17      1.0000 0.46207  0.45668  0.34928  Biso   1.000  O
  O18      1.0000 0.31577  0.40950  0.34532  Biso   1.000  O
  O19      1.0000 0.90267  0.65275  0.86007  Biso   1.000  O
  O20      1.0000 0.01587  0.70911  0.93203  Biso   1.000  O
  O21      1.0000 0.41197  0.19600  0.75530  Biso   1.000  O
  O22      1.0000 0.30410  0.72380  0.05690  Biso   1.000  O
  O23      1.0000 0.15740  0.68739  0.01447  Biso   1.000  O
  O24      1.0000 0.20460  0.34928  0.45668  Biso   1.000  O
  O25      1.0000 0.35090  0.34532  0.40950  Biso   1.000  O
  O26      1.0000 0.76400  0.86007  0.65275  Biso   1.000  O
  O27      1.0000 0.65080  0.93203  0.70911  Biso   1.000  O
  O28      1.0000 0.25470  0.75530  0.19600  Biso   1.000  O
  O29      1.0000 0.97077  0.94310  0.66690  Biso   1.000  O
  O30      1.0000 0.82407  0.98553  0.67292  Biso   1.000  O
  O31      1.0000 0.87127  0.54332  0.89260  Biso   1.000  O
  O32      1.0000 0.01757  0.59050  0.93582  Biso   1.000  O
  O33      1.0000 0.43067  0.34725  0.20732  Biso   1.000  O
  O34      1.0000 0.31747  0.29089  0.22292  Biso   1.000  O
  O35      1.0000 0.92137  0.80400  0.55930  Biso   1.000  O
  O36      1.0000 0.63743  0.33310  0.27620  Biso   1.000  O
  O37      1.0000 0.49073  0.32708  0.31261  Biso   1.000  O
  O38      1.0000 0.53793  0.10740  0.65072  Biso   1.000  O
  O39      1.0000 0.68423  0.06418  0.65468  Biso   1.000  O
  O40      1.0000 0.09733  0.79268  0.13993  Biso   1.000  O
  O41      1.0000 0.98413  0.77708  0.06797  Biso   1.000  O
  O42      1.0000 0.58803  0.44070  0.24470  Biso   1.000  O
