data_image0
_cell_length_a       7.0249
_cell_length_b       7.0249
_cell_length_c       19.936
_cell_angle_alpha    90
_cell_angle_beta     90
_cell_angle_gamma    90

_symmetry_space_group_name_H-M    P 1
_symmetry_int_tables_number       1

loop_
  _symmetry_equiv_pos_as_xyz
  'x, y, z'

loop_
  _atom_site_label
  _atom_site_occupancy
  _atom_site_fract_x
  _atom_site_fract_y
  _atom_site_fract_z
  _atom_site_thermal_displace_type
  _atom_site_B_iso_or_equiv
  _atom_site_type_symbol
  Zn1      1.0000 0.00000  0.00000  0.72403  Biso   1.000  Zn
  Zn2      1.0000 0.50000  0.50000  0.22403  Biso   1.000  Zn
  Zn3      1.0000 0.50000  0.50000  0.77597  Biso   1.000  Zn
  Zn4      1.0000 0.00000  0.00000  0.27597  Biso   1.000  Zn
  H1       1.0000 0.83300  0.23350  0.94930  Biso   1.000  H
  H2       1.0000 0.16700  0.76650  0.94930  Biso   1.000  H
  H3       1.0000 0.26650  0.33300  0.44930  Biso   1.000  H
  H4       1.0000 0.73350  0.66700  0.44930  Biso   1.000  H
  H5       1.0000 0.66700  0.73350  0.55070  Biso   1.000  H
  H6       1.0000 0.33300  0.26650  0.55070  Biso   1.000  H
  H7       1.0000 0.23350  0.83300  0.05070  Biso   1.000  H
  H8       1.0000 0.76650  0.16700  0.05070  Biso   1.000  H
  C1       1.0000 0.89870  0.13780  0.92690  Biso   1.000  C
  C2       1.0000 0.89780  0.12950  0.85740  Biso   1.000  C
  C3       1.0000 0.78100  0.25530  0.81190  Biso   1.000  C
  C4       1.0000 0.10130  0.86220  0.92690  Biso   1.000  C
  C5       1.0000 0.10220  0.87050  0.85740  Biso   1.000  C
  C6       1.0000 0.21900  0.74470  0.81190  Biso   1.000  C
  C7       1.0000 0.36220  0.39870  0.42690  Biso   1.000  C
  C8       1.0000 0.37050  0.39780  0.35740  Biso   1.000  C
  C9       1.0000 0.24470  0.28100  0.31190  Biso   1.000  C
  C10      1.0000 0.63780  0.60130  0.42690  Biso   1.000  C
  C11      1.0000 0.62950  0.60220  0.35740  Biso   1.000  C
  C12      1.0000 0.75530  0.71900  0.31190  Biso   1.000  C
  C13      1.0000 0.60130  0.63780  0.57310  Biso   1.000  C
  C14      1.0000 0.60220  0.62950  0.64260  Biso   1.000  C
  C15      1.0000 0.71900  0.75530  0.68810  Biso   1.000  C
  C16      1.0000 0.39870  0.36220  0.57310  Biso   1.000  C
  C17      1.0000 0.39780  0.37050  0.64260  Biso   1.000  C
  C18      1.0000 0.28100  0.24470  0.68810  Biso   1.000  C
  C19      1.0000 0.13780  0.89870  0.07310  Biso   1.000  C
  C20      1.0000 0.12950  0.89780  0.14260  Biso   1.000  C
  C21      1.0000 0.25530  0.78100  0.18810  Biso   1.000  C
  C22      1.0000 0.86220  0.10130  0.07310  Biso   1.000  C
  C23      1.0000 0.87050  0.10220  0.14260  Biso   1.000  C
  C24      1.0000 0.74470  0.21900  0.18810  Biso   1.000  C
  C25      1.0000 0.00000  0.00000  0.96260  Biso   1.000  C
  C26      1.0000 0.50000  0.50000  0.46260  Biso   1.000  C
  C27      1.0000 0.50000  0.50000  0.53740  Biso   1.000  C
  C28      1.0000 0.00000  0.00000  0.03740  Biso   1.000  C
  N1       1.0000 0.00000  0.00000  0.82480  Biso   1.000  N
  N2       1.0000 0.50000  0.50000  0.32480  Biso   1.000  N
  N3       1.0000 0.50000  0.50000  0.67520  Biso   1.000  N
  N4       1.0000 0.00000  0.00000  0.17520  Biso   1.000  N
  O1       1.0000 0.66390  0.36540  0.83965  Biso   1.000  O
  O2       1.0000 0.80580  0.23590  0.75045  Biso   1.000  O
  O3       1.0000 0.33610  0.63460  0.83965  Biso   1.000  O
  O4       1.0000 0.19420  0.76410  0.75045  Biso   1.000  O
  O5       1.0000 0.13460  0.16390  0.33965  Biso   1.000  O
  O6       1.0000 0.26410  0.30580  0.25045  Biso   1.000  O
  O7       1.0000 0.86540  0.83610  0.33965  Biso   1.000  O
  O8       1.0000 0.73590  0.69420  0.25045  Biso   1.000  O
  O9       1.0000 0.83610  0.86540  0.66035  Biso   1.000  O
  O10      1.0000 0.69420  0.73590  0.74955  Biso   1.000  O
  O11      1.0000 0.16390  0.13460  0.66035  Biso   1.000  O
  O12      1.0000 0.30580  0.26410  0.74955  Biso   1.000  O
  O13      1.0000 0.36540  0.66390  0.16035  Biso   1.000  O
  O14      1.0000 0.23590  0.80580  0.24955  Biso   1.000  O
  O15      1.0000 0.63460  0.33610  0.16035  Biso   1.000  O
  O16      1.0000 0.76410  0.19420  0.24955  Biso   1.000  O
