data_HEWFUL_ion_b
_audit_creation_date              2014-07-02
_audit_creation_method            'Materials Studio'
_symmetry_space_group_name_H-M    'P1'
_symmetry_Int_Tables_number       1
_symmetry_cell_setting            triclinic
loop_
_symmetry_equiv_pos_as_xyz
  x,y,z
_cell_length_a                    16.6939
_cell_length_b                    16.6939
_cell_length_c                    16.6939
_cell_angle_alpha                 117.0605
_cell_angle_beta                  117.0605
_cell_angle_gamma                 117.0605
loop_
_atom_site_label
_atom_site_type_symbol
_atom_site_fract_x
_atom_site_fract_y
_atom_site_fract_z
_atom_site_U_iso_or_equiv
_atom_site_adp_type
_atom_site_occupancy
C1     C     0.14270   0.03970   0.33560   0.00000  Uiso   1.00
H2     H     0.23950   0.09970   0.37920   0.00000  Uiso   1.00
H3     H     0.08170   0.02710   0.26580   0.00000  Uiso   1.00
C4     C     0.30510   0.30200   0.57810   0.00000  Uiso   1.00
H5     H     0.27610   0.30150   0.51250   0.00000  Uiso   1.00
H6     H     0.41590   0.37160   0.65720   0.00000  Uiso   1.00
C7     C     0.29620   0.36920   0.66680   0.00000  Uiso   1.00
C8     C     0.82900   0.73070   0.11440   0.00000  Uiso   1.00
H9     H     0.78420   0.73080   0.05200   0.00000  Uiso   1.00
H10    H     0.75150   0.61800   0.03850   0.00000  Uiso   1.00
C11    C     0.69540   0.71340   0.14740   0.00000  Uiso   1.00
H12    H     0.63190   0.61470   0.10110   0.00000  Uiso   1.00
H13    H     0.63240   0.68170   0.05880   0.00000  Uiso   1.00
C14    C     0.72710   0.81800   0.26580   0.00000  Uiso   1.00
N15    N     0.19100   0.13200   0.47070   0.00000  Uiso   1.00
H16    H     0.24630   0.14020   0.53260   0.00000  Uiso   1.00
N17    N     0.84960   0.80230   0.22950   0.00000  Uiso   1.00
H18    H     0.88240   0.79080   0.27810   0.00000  Uiso   1.00
O19    O     0.09980   0.86530   0.33600   0.00000  Uiso   1.00
O20    O     0.98600   0.75900   0.09140   0.00000  Uiso   1.00
O22    O     0.17570   0.26650   0.61400   0.00000  Uiso   1.00
O23    O     0.40150   0.51540   0.78040   0.00000  Uiso   1.00
O24    O     0.87190   0.97020   0.40200   0.00000  Uiso   1.00
O25    O     0.61100   0.75140   0.22230   0.00000  Uiso   1.00
P26    P     0.01822   0.84022   0.21646   0.00000  Uiso   1.00
K27    K     0.38354   0.07168   0.63008   0.00000  Uiso   1.00
Cu28   Cu    0.01216   0.03959   0.41213   0.00000  Uiso   1.00
C31    C     0.33560   0.14270   0.03970   0.00000  Uiso   1.00
H32    H     0.37920   0.23950   0.09970   0.00000  Uiso   1.00
H33    H     0.26580   0.08170   0.02710   0.00000  Uiso   1.00
C34    C     0.57810   0.30510   0.30200   0.00000  Uiso   1.00
H35    H     0.51250   0.27610   0.30150   0.00000  Uiso   1.00
H36    H     0.65720   0.41590   0.37160   0.00000  Uiso   1.00
C37    C     0.66680   0.29620   0.36920   0.00000  Uiso   1.00
C38    C     0.11440   0.82900   0.73070   0.00000  Uiso   1.00
H39    H     0.05200   0.78420   0.73080   0.00000  Uiso   1.00
H40    H     0.03850   0.75150   0.61800   0.00000  Uiso   1.00
C41    C     0.14740   0.69540   0.71340   0.00000  Uiso   1.00
H42    H     0.10110   0.63190   0.61470   0.00000  Uiso   1.00
H43    H     0.05880   0.63240   0.68170   0.00000  Uiso   1.00
C44    C     0.26580   0.72710   0.81800   0.00000  Uiso   1.00
N45    N     0.47070   0.19100   0.13200   0.00000  Uiso   1.00
H46    H     0.53260   0.24630   0.14020   0.00000  Uiso   1.00
N47    N     0.22950   0.84960   0.80230   0.00000  Uiso   1.00
H48    H     0.27810   0.88240   0.79080   0.00000  Uiso   1.00
O49    O     0.33600   0.09980   0.86530   0.00000  Uiso   1.00
O50    O     0.09140   0.98600   0.75900   0.00000  Uiso   1.00
O52    O     0.61400   0.17570   0.26650   0.00000  Uiso   1.00
O53    O     0.78040   0.40150   0.51540   0.00000  Uiso   1.00
O54    O     0.40200   0.87190   0.97020   0.00000  Uiso   1.00
O55    O     0.22230   0.61100   0.75140   0.00000  Uiso   1.00
P56    P     0.21646   0.01822   0.84022   0.00000  Uiso   1.00
K57    K     0.63008   0.38354   0.07168   0.00000  Uiso   1.00
Cu58   Cu    0.41213   0.01216   0.03959   0.00000  Uiso   1.00
C61    C     0.03970   0.33560   0.14270   0.00000  Uiso   1.00
H62    H     0.09970   0.37920   0.23950   0.00000  Uiso   1.00
H63    H     0.02710   0.26580   0.08170   0.00000  Uiso   1.00
C64    C     0.30200   0.57810   0.30510   0.00000  Uiso   1.00
H65    H     0.30150   0.51250   0.27610   0.00000  Uiso   1.00
H66    H     0.37160   0.65720   0.41590   0.00000  Uiso   1.00
C67    C     0.36920   0.66680   0.29620   0.00000  Uiso   1.00
C68    C     0.73070   0.11440   0.82900   0.00000  Uiso   1.00
H69    H     0.73080   0.05200   0.78420   0.00000  Uiso   1.00
H70    H     0.61800   0.03850   0.75150   0.00000  Uiso   1.00
C71    C     0.71340   0.14740   0.69540   0.00000  Uiso   1.00
H72    H     0.61470   0.10110   0.63190   0.00000  Uiso   1.00
H73    H     0.68170   0.05880   0.63240   0.00000  Uiso   1.00
C74    C     0.81800   0.26580   0.72710   0.00000  Uiso   1.00
N75    N     0.13200   0.47070   0.19100   0.00000  Uiso   1.00
H76    H     0.14020   0.53260   0.24630   0.00000  Uiso   1.00
N77    N     0.80230   0.22950   0.84960   0.00000  Uiso   1.00
H78    H     0.79080   0.27810   0.88240   0.00000  Uiso   1.00
O79    O     0.86530   0.33600   0.09980   0.00000  Uiso   1.00
O80    O     0.75900   0.09140   0.98600   0.00000  Uiso   1.00
O82    O     0.26650   0.61400   0.17570   0.00000  Uiso   1.00
O83    O     0.51540   0.78040   0.40150   0.00000  Uiso   1.00
O84    O     0.97020   0.40200   0.87190   0.00000  Uiso   1.00
O85    O     0.75140   0.22230   0.61100   0.00000  Uiso   1.00
P86    P     0.84022   0.21646   0.01822   0.00000  Uiso   1.00
K87    K     0.07168   0.63008   0.38354   0.00000  Uiso   1.00
Cu88   Cu    0.03959   0.41213   0.01216   0.00000  Uiso   1.00
C91    C     0.85730   0.96030   0.66440   0.00000  Uiso   1.00
H92    H     0.76050   0.90030   0.62080   0.00000  Uiso   1.00
H93    H     0.91830   0.97290   0.73420   0.00000  Uiso   1.00
C94    C     0.69490   0.69800   0.42190   0.00000  Uiso   1.00
H95    H     0.72390   0.69850   0.48750   0.00000  Uiso   1.00
H96    H     0.58410   0.62840   0.34280   0.00000  Uiso   1.00
C97    C     0.70380   0.63080   0.33320   0.00000  Uiso   1.00
C98    C     0.17100   0.26930   0.88560   0.00000  Uiso   1.00
H99    H     0.21580   0.26920   0.94800   0.00000  Uiso   1.00
H100   H     0.24850   0.38200   0.96150   0.00000  Uiso   1.00
C101   C     0.30460   0.28660   0.85260   0.00000  Uiso   1.00
H102   H     0.36810   0.38530   0.89890   0.00000  Uiso   1.00
H103   H     0.36760   0.31830   0.94120   0.00000  Uiso   1.00
C104   C     0.27290   0.18200   0.73420   0.00000  Uiso   1.00
N105   N     0.80900   0.86800   0.52930   0.00000  Uiso   1.00
H106   H     0.75370   0.85980   0.46740   0.00000  Uiso   1.00
N107   N     0.15040   0.19770   0.77050   0.00000  Uiso   1.00
H108   H     0.11760   0.20920   0.72190   0.00000  Uiso   1.00
O109   O     0.90020   0.13470   0.66400   0.00000  Uiso   1.00
O110   O     0.01400   0.24100   0.90860   0.00000  Uiso   1.00
O112   O     0.82430   0.73350   0.38600   0.00000  Uiso   1.00
O113   O     0.59850   0.48460   0.21960   0.00000  Uiso   1.00
O114   O     0.12810   0.02980   0.59800   0.00000  Uiso   1.00
O115   O     0.38900   0.24860   0.77770   0.00000  Uiso   1.00
P116   P     0.98178   0.15978   0.78354   0.00000  Uiso   1.00
K117   K     0.61646   0.92832   0.36992   0.00000  Uiso   1.00
Cu118  Cu    0.98784   0.96041   0.58787   0.00000  Uiso   1.00
C121   C     0.66440   0.85730   0.96030   0.00000  Uiso   1.00
H122   H     0.62080   0.76050   0.90030   0.00000  Uiso   1.00
H123   H     0.73420   0.91830   0.97290   0.00000  Uiso   1.00
C124   C     0.42190   0.69490   0.69800   0.00000  Uiso   1.00
H125   H     0.48750   0.72390   0.69850   0.00000  Uiso   1.00
H126   H     0.34280   0.58410   0.62840   0.00000  Uiso   1.00
C127   C     0.33320   0.70380   0.63080   0.00000  Uiso   1.00
C128   C     0.88560   0.17100   0.26930   0.00000  Uiso   1.00
H129   H     0.94800   0.21580   0.26920   0.00000  Uiso   1.00
H130   H     0.96150   0.24850   0.38200   0.00000  Uiso   1.00
C131   C     0.85260   0.30460   0.28660   0.00000  Uiso   1.00
H132   H     0.89890   0.36810   0.38530   0.00000  Uiso   1.00
H133   H     0.94120   0.36760   0.31830   0.00000  Uiso   1.00
C134   C     0.73420   0.27290   0.18200   0.00000  Uiso   1.00
N135   N     0.52930   0.80900   0.86800   0.00000  Uiso   1.00
H136   H     0.46740   0.75370   0.85980   0.00000  Uiso   1.00
N137   N     0.77050   0.15040   0.19770   0.00000  Uiso   1.00
H138   H     0.72190   0.11760   0.20920   0.00000  Uiso   1.00
O139   O     0.66400   0.90020   0.13470   0.00000  Uiso   1.00
O140   O     0.90860   0.01400   0.24100   0.00000  Uiso   1.00
O142   O     0.38600   0.82430   0.73350   0.00000  Uiso   1.00
O143   O     0.21960   0.59850   0.48460   0.00000  Uiso   1.00
O144   O     0.59800   0.12810   0.02980   0.00000  Uiso   1.00
O145   O     0.77770   0.38900   0.24860   0.00000  Uiso   1.00
P146   P     0.78354   0.98178   0.15978   0.00000  Uiso   1.00
K147   K     0.36992   0.61646   0.92832   0.00000  Uiso   1.00
Cu148  Cu    0.58787   0.98784   0.96041   0.00000  Uiso   1.00
C151   C     0.96030   0.66440   0.85730   0.00000  Uiso   1.00
H152   H     0.90030   0.62080   0.76050   0.00000  Uiso   1.00
H153   H     0.97290   0.73420   0.91830   0.00000  Uiso   1.00
C154   C     0.69800   0.42190   0.69490   0.00000  Uiso   1.00
H155   H     0.69850   0.48750   0.72390   0.00000  Uiso   1.00
H156   H     0.62840   0.34280   0.58410   0.00000  Uiso   1.00
C157   C     0.63080   0.33320   0.70380   0.00000  Uiso   1.00
C158   C     0.26930   0.88560   0.17100   0.00000  Uiso   1.00
H159   H     0.26920   0.94800   0.21580   0.00000  Uiso   1.00
H160   H     0.38200   0.96150   0.24850   0.00000  Uiso   1.00
C161   C     0.28660   0.85260   0.30460   0.00000  Uiso   1.00
H162   H     0.38530   0.89890   0.36810   0.00000  Uiso   1.00
H163   H     0.31830   0.94120   0.36760   0.00000  Uiso   1.00
C164   C     0.18200   0.73420   0.27290   0.00000  Uiso   1.00
N165   N     0.86800   0.52930   0.80900   0.00000  Uiso   1.00
H166   H     0.85980   0.46740   0.75370   0.00000  Uiso   1.00
N167   N     0.19770   0.77050   0.15040   0.00000  Uiso   1.00
H168   H     0.20920   0.72190   0.11760   0.00000  Uiso   1.00
O169   O     0.13470   0.66400   0.90020   0.00000  Uiso   1.00
O170   O     0.24100   0.90860   0.01400   0.00000  Uiso   1.00
O172   O     0.73350   0.38600   0.82430   0.00000  Uiso   1.00
O173   O     0.48460   0.21960   0.59850   0.00000  Uiso   1.00
O174   O     0.02980   0.59800   0.12810   0.00000  Uiso   1.00
O175   O     0.24860   0.77770   0.38900   0.00000  Uiso   1.00
P176   P     0.15978   0.78354   0.98178   0.00000  Uiso   1.00
K177   K     0.92832   0.36992   0.61646   0.00000  Uiso   1.00
Cu178  Cu    0.96041   0.58787   0.98784   0.00000  Uiso   1.00
loop_
_geom_bond_atom_site_label_1
_geom_bond_atom_site_label_2
_geom_bond_distance
_geom_bond_site_symmetry_2
_ccdc_geom_bond_type
C1     H2      0.969   .     S
C1     H3      0.970   .     S
C1     N15     1.471   .     S
C1     P26     1.811   1_545 S
C4     H5      0.969   .     S
C4     H6      0.970   .     S
C4     C7      1.521   .     S
C4     N15     1.497   .     S
C7     O22     1.279   .     S
C7     O23     1.223   .     D
C8     H9      0.969   .     S
C8     H10     0.971   .     S
C8     N17     1.474   .     S
C8     P26     1.799   1_655 S
C11    H12     0.971   .     S
C11    H13     0.969   .     S
C11    C14     1.518   .     S
C11    N17     1.473   .     S
C14    O24     1.274   .     S
C14    O25     1.243   .     D
N15    H16     0.909   .     S
N15    Cu28    2.008   .     S
N17    H18     0.910   .     S
N17    Cu28    2.013   1_665 S
O19    P26     1.504   .     A
O20    P26     1.492   1_655 S
O22    Cu28    1.940   .     S
O24    Cu28    1.961   1_665 S
P26    C1      1.811   1_565 S
P26    C8      1.799   1_455 S
P26    O20     1.492   1_455 S
Cu28   N17     2.013   1_445 S
Cu28   O24     1.961   1_445 S
C31    H32     0.969   .     S
C31    H33     0.970   .     S
C31    N45     1.471   .     S
C31    P56     1.811   1_554 S
C34    H35     0.969   .     S
C34    H36     0.970   .     S
C34    C37     1.521   .     S
C34    N45     1.497   .     S
C37    O52     1.279   .     S
C37    O53     1.223   .     D
C38    H39     0.969   .     S
C38    H40     0.971   .     S
C38    N47     1.474   .     S
C38    P56     1.799   1_565 S
C41    H42     0.971   .     S
C41    H43     0.969   .     S
C41    C44     1.518   .     S
C41    N47     1.473   .     S
C44    O54     1.274   .     S
C44    O55     1.243   .     D
N45    H46     0.909   .     S
N45    Cu58    2.008   .     S
N47    H48     0.910   .     S
N47    Cu58    2.013   1_566 S
O49    P56     1.504   .     A
O50    P56     1.492   1_565 S
O52    Cu58    1.940   .     S
O54    Cu58    1.961   1_566 S
P56    C31     1.811   1_556 S
P56    C38     1.799   1_545 S
P56    O50     1.492   1_545 S
Cu58   N47     2.013   1_544 S
Cu58   O54     1.961   1_544 S
C61    H62     0.969   .     S
C61    H63     0.970   .     S
C61    N75     1.471   .     S
C61    P86     1.811   1_455 S
C64    H65     0.969   .     S
C64    H66     0.970   .     S
C64    C67     1.521   .     S
C64    N75     1.497   .     S
C67    O82     1.279   .     S
C67    O83     1.223   .     D
C68    H69     0.969   .     S
C68    H70     0.971   .     S
C68    N77     1.474   .     S
C68    P86     1.799   1_556 A
C71    H72     0.971   .     S
C71    H73     0.969   .     S
C71    C74     1.518   .     S
C71    N77     1.473   .     S
C74    O84     1.274   .     S
C74    O85     1.243   .     D
N75    H76     0.909   .     S
N75    Cu88    2.008   .     S
N77    H78     0.910   .     S
N77    Cu88    2.013   1_656 S
O79    P86     1.504   .     A
O80    P86     1.492   1_556 S
O82    Cu88    1.940   .     S
O84    Cu88    1.961   1_656 S
P86    C61     1.811   1_655 S
P86    C68     1.799   1_554 A
P86    O80     1.492   1_554 S
Cu88   N77     2.013   1_454 S
Cu88   O84     1.961   1_454 S
C91    H92     0.969   .     S
C91    H93     0.970   .     S
C91    N105    1.471   .     S
C91    P116    1.811   1_565 S
C94    H95     0.969   .     S
C94    H96     0.970   .     S
C94    C97     1.521   .     S
C94    N105    1.497   .     S
C97    O112    1.279   .     S
C97    O113    1.223   .     D
C98    H99     0.969   .     S
C98    H100    0.971   .     S
C98    N107    1.474   .     S
C98    P116    1.799   1_455 D
C101   H102    0.971   .     S
C101   H103    0.969   .     S
C101   C104    1.518   .     S
C101   N107    1.473   .     S
C104   O114    1.274   .     S
C104   O115    1.243   .     D
N105   H106    0.909   .     S
N105   Cu118   2.008   .     S
N107   H108    0.910   .     S
N107   Cu118   2.013   1_445 S
O109   P116    1.504   .     A
O110   P116    1.492   1_455 S
O112   Cu118   1.940   .     S
O114   Cu118   1.961   1_445 S
P116   C91     1.811   1_545 S
P116   C98     1.799   1_655 D
P116   O110    1.492   1_655 S
Cu118  N107    2.013   1_665 S
Cu118  O114    1.961   1_665 S
C121   H122    0.969   .     S
C121   H123    0.970   .     S
C121   N135    1.471   .     S
C121   P146    1.811   1_556 D
C124   H125    0.969   .     S
C124   H126    0.970   .     S
C124   C127    1.521   .     S
C124   N135    1.497   .     S
C127   O142    1.279   .     S
C127   O143    1.223   .     D
C128   H129    0.969   .     S
C128   H130    0.971   .     S
C128   N137    1.474   .     S
C128   P146    1.799   1_545 S
C131   H132    0.971   .     S
C131   H133    0.969   .     S
C131   C134    1.518   .     S
C131   N137    1.473   .     S
C134   O144    1.274   .     S
C134   O145    1.243   .     D
N135   H136    0.909   .     S
N135   Cu148   2.008   .     S
N137   H138    0.910   .     S
N137   Cu148   2.013   1_544 S
O139   P146    1.504   .     A
O140   P146    1.492   1_545 S
O142   Cu148   1.940   .     S
O144   Cu148   1.961   1_544 A
P146   C121    1.811   1_554 D
P146   C128    1.799   1_565 S
P146   O140    1.492   1_565 S
Cu148  N137    2.013   1_566 S
Cu148  O144    1.961   1_566 A
C151   H152    0.969   .     S
C151   H153    0.970   .     S
C151   N165    1.471   .     S
C151   P176    1.811   1_655 S
C154   H155    0.969   .     S
C154   H156    0.970   .     S
C154   C157    1.521   .     S
C154   N165    1.497   .     S
C157   O172    1.279   .     S
C157   O173    1.223   .     D
C158   H159    0.969   .     S
C158   H160    0.971   .     S
C158   N167    1.474   .     S
C158   P176    1.799   1_554 S
C161   H162    0.971   .     S
C161   H163    0.969   .     S
C161   C164    1.518   .     S
C161   N167    1.473   .     S
C164   O174    1.274   .     S
C164   O175    1.243   .     D
N165   H166    0.909   .     S
N165   Cu178   2.008   .     S
N167   H168    0.910   .     S
N167   Cu178   2.013   1_454 S
O169   P176    1.504   .     A
O170   P176    1.492   1_554 S
O172   Cu178   1.940   .     S
O174   Cu178   1.961   1_454 D
P176   C151    1.811   1_455 S
P176   C158    1.799   1_556 S
P176   O170    1.492   1_556 S
Cu178  N167    2.013   1_656 S
Cu178  O174    1.961   1_656 D
