data_image0
_cell_length_a       10.464
_cell_length_b       17.142
_cell_length_c       8.4481
_cell_angle_alpha    90
_cell_angle_beta     90
_cell_angle_gamma    90

_symmetry_space_group_name_H-M    "P 1"
_symmetry_int_tables_number       1

loop_
  _symmetry_equiv_pos_as_xyz
  'x, y, z'

loop_
  _atom_site_label
  _atom_site_occupancy
  _atom_site_fract_x
  _atom_site_fract_y
  _atom_site_fract_z
  _atom_site_thermal_displace_type
  _atom_site_B_iso_or_equiv
  _atom_site_type_symbol
  V1       1.0000 0.85891  0.43838  0.22045  Biso   1.000  V
  P1       1.0000 0.62872  0.41284  0.47438  Biso   1.000  P
  O1       1.0000 0.71501  0.41030  0.01940  Biso   1.000  O
  O2       1.0000 0.84236  0.32603  0.25430  Biso   1.000  O
  O3       1.0000 0.66278  0.45293  0.63259  Biso   1.000  O
  O4       1.0000 0.48260  0.41388  0.45157  Biso   1.000  O
  O5       1.0000 0.67482  0.32784  0.49053  Biso   1.000  O
  O6       1.0000 0.69461  0.45521  0.33579  Biso   1.000  O
  O7       1.0000 0.95592  0.45951  0.36269  Biso   1.000  O
  H1       1.0000 0.64600  0.41200  0.05800  Biso   1.000  H
  H2       1.0000 0.71500  0.44200  0.95200  Biso   1.000  H
  H3       1.0000 0.90100  0.31000  0.21900  Biso   1.000  H
  V2       1.0000 0.64109  0.56162  0.72045  Biso   1.000  V
  P2       1.0000 0.87128  0.58716  0.97438  Biso   1.000  P
  O8       1.0000 0.78499  0.58970  0.51940  Biso   1.000  O
  O9       1.0000 0.65764  0.67397  0.75430  Biso   1.000  O
  O10      1.0000 0.83722  0.54707  0.13259  Biso   1.000  O
  O11      1.0000 0.01740  0.58612  0.95157  Biso   1.000  O
  O12      1.0000 0.82518  0.67216  0.99053  Biso   1.000  O
  O13      1.0000 0.80539  0.54479  0.83579  Biso   1.000  O
  O14      1.0000 0.54408  0.54049  0.86269  Biso   1.000  O
  H4       1.0000 0.85400  0.58800  0.55800  Biso   1.000  H
  H5       1.0000 0.78500  0.55800  0.45200  Biso   1.000  H
  H6       1.0000 0.59900  0.69000  0.71900  Biso   1.000  H
  V3       1.0000 0.14109  0.93838  0.77955  Biso   1.000  V
  P3       1.0000 0.37128  0.91284  0.52562  Biso   1.000  P
  O15      1.0000 0.28499  0.91030  0.98060  Biso   1.000  O
  O16      1.0000 0.15764  0.82603  0.74570  Biso   1.000  O
  O17      1.0000 0.33722  0.95293  0.36741  Biso   1.000  O
  O18      1.0000 0.51740  0.91388  0.54843  Biso   1.000  O
  O19      1.0000 0.32518  0.82784  0.50947  Biso   1.000  O
  O20      1.0000 0.30539  0.95521  0.66421  Biso   1.000  O
  O21      1.0000 0.04408  0.95951  0.63731  Biso   1.000  O
  H7       1.0000 0.35400  0.91200  0.94200  Biso   1.000  H
  H8       1.0000 0.28500  0.94200  0.04800  Biso   1.000  H
  H9       1.0000 0.09900  0.81000  0.78100  Biso   1.000  H
  V4       1.0000 0.35891  0.06162  0.27955  Biso   1.000  V
  P4       1.0000 0.12872  0.08716  0.02562  Biso   1.000  P
  O22      1.0000 0.21501  0.08970  0.48060  Biso   1.000  O
  O23      1.0000 0.34236  0.17397  0.24570  Biso   1.000  O
  O24      1.0000 0.16278  0.04707  0.86741  Biso   1.000  O
  O25      1.0000 0.98260  0.08612  0.04843  Biso   1.000  O
  O26      1.0000 0.17482  0.17216  0.00947  Biso   1.000  O
  O27      1.0000 0.19461  0.04479  0.16421  Biso   1.000  O
  O28      1.0000 0.45592  0.04049  0.13731  Biso   1.000  O
  H10      1.0000 0.14600  0.08800  0.44200  Biso   1.000  H
  H11      1.0000 0.21500  0.05800  0.54800  Biso   1.000  H
  H12      1.0000 0.40100  0.19000  0.28100  Biso   1.000  H
  V5       1.0000 0.14109  0.56162  0.77955  Biso   1.000  V
  P5       1.0000 0.37128  0.58716  0.52562  Biso   1.000  P
  O29      1.0000 0.28499  0.58970  0.98060  Biso   1.000  O
  O30      1.0000 0.15764  0.67397  0.74570  Biso   1.000  O
  O31      1.0000 0.33722  0.54707  0.36741  Biso   1.000  O
  O32      1.0000 0.51740  0.58612  0.54843  Biso   1.000  O
  O33      1.0000 0.32518  0.67216  0.50947  Biso   1.000  O
  O34      1.0000 0.30539  0.54479  0.66421  Biso   1.000  O
  O35      1.0000 0.04408  0.54049  0.63731  Biso   1.000  O
  H13      1.0000 0.35400  0.58800  0.94200  Biso   1.000  H
  H14      1.0000 0.28500  0.55800  0.04800  Biso   1.000  H
  H15      1.0000 0.09900  0.69000  0.78100  Biso   1.000  H
  V6       1.0000 0.35891  0.43838  0.27955  Biso   1.000  V
  P6       1.0000 0.12872  0.41284  0.02562  Biso   1.000  P
  O36      1.0000 0.21501  0.41030  0.48060  Biso   1.000  O
  O37      1.0000 0.34236  0.32603  0.24570  Biso   1.000  O
  O38      1.0000 0.16278  0.45293  0.86741  Biso   1.000  O
  O39      1.0000 0.98260  0.41388  0.04843  Biso   1.000  O
  O40      1.0000 0.17482  0.32784  0.00947  Biso   1.000  O
  O41      1.0000 0.19461  0.45521  0.16421  Biso   1.000  O
  O42      1.0000 0.45592  0.45951  0.13731  Biso   1.000  O
  H16      1.0000 0.14600  0.41200  0.44200  Biso   1.000  H
  H17      1.0000 0.21500  0.44200  0.54800  Biso   1.000  H
  H18      1.0000 0.40100  0.31000  0.28100  Biso   1.000  H
  V7       1.0000 0.85891  0.06162  0.22045  Biso   1.000  V
  P7       1.0000 0.62872  0.08716  0.47438  Biso   1.000  P
  O43      1.0000 0.71501  0.08970  0.01940  Biso   1.000  O
  O44      1.0000 0.84236  0.17397  0.25430  Biso   1.000  O
  O45      1.0000 0.66278  0.04707  0.63259  Biso   1.000  O
  O46      1.0000 0.48260  0.08612  0.45157  Biso   1.000  O
  O47      1.0000 0.67482  0.17216  0.49053  Biso   1.000  O
  O48      1.0000 0.69461  0.04479  0.33579  Biso   1.000  O
  O49      1.0000 0.95592  0.04049  0.36269  Biso   1.000  O
  H19      1.0000 0.64600  0.08800  0.05800  Biso   1.000  H
  H20      1.0000 0.71500  0.05800  0.95200  Biso   1.000  H
  H21      1.0000 0.90100  0.19000  0.21900  Biso   1.000  H
  V8       1.0000 0.64109  0.93838  0.72045  Biso   1.000  V
  P8       1.0000 0.87128  0.91284  0.97438  Biso   1.000  P
  O50      1.0000 0.78499  0.91030  0.51940  Biso   1.000  O
  O51      1.0000 0.65764  0.82603  0.75430  Biso   1.000  O
  O52      1.0000 0.83722  0.95293  0.13259  Biso   1.000  O
  O53      1.0000 0.01740  0.91388  0.95157  Biso   1.000  O
  O54      1.0000 0.82518  0.82784  0.99053  Biso   1.000  O
  O55      1.0000 0.80539  0.95521  0.83579  Biso   1.000  O
  O56      1.0000 0.54408  0.95951  0.86269  Biso   1.000  O
  H22      1.0000 0.85400  0.91200  0.55800  Biso   1.000  H
  H23      1.0000 0.78500  0.94200  0.45200  Biso   1.000  H
  H24      1.0000 0.59900  0.81000  0.71900  Biso   1.000  H
  V9       1.0000 0.71662  0.25000  0.32863  Biso   1.000  V
  O57      1.0000 0.60020  0.25000  0.20620  Biso   1.000  O
  V10      1.0000 0.78338  0.75000  0.82863  Biso   1.000  V
  O58      1.0000 0.89980  0.75000  0.70620  Biso   1.000  O
  V11      1.0000 0.28338  0.75000  0.67137  Biso   1.000  V
  O59      1.0000 0.39980  0.75000  0.79380  Biso   1.000  O
  V12      1.0000 0.21662  0.25000  0.17137  Biso   1.000  V
  O60      1.0000 0.10020  0.25000  0.29380  Biso   1.000  O
