data_image0
_cell_length_a       9.853
_cell_length_b       11.315
_cell_length_c       14.4
_cell_angle_alpha    91.32
_cell_angle_beta     90
_cell_angle_gamma    90

_symmetry_space_group_name_H-M    P 1
_symmetry_int_tables_number       1

loop_
  _symmetry_equiv_pos_as_xyz
  'x, y, z'

loop_
  _atom_site_label
  _atom_site_occupancy
  _atom_site_fract_x
  _atom_site_fract_y
  _atom_site_fract_z
  _atom_site_thermal_displace_type
  _atom_site_B_iso_or_equiv
  _atom_site_type_symbol
  Mg1      1.0000 0.91807  0.74451  0.86508  Biso   1.000  Mg
  Mg2      1.0000 0.10788  0.76124  0.68845  Biso   1.000  Mg
  Mg3      1.0000 0.41807  0.75549  0.63492  Biso   1.000  Mg
  Mg4      1.0000 0.60788  0.73876  0.81155  Biso   1.000  Mg
  Mg5      1.0000 0.08193  0.25549  0.13492  Biso   1.000  Mg
  Mg6      1.0000 0.89212  0.23876  0.31155  Biso   1.000  Mg
  Mg7      1.0000 0.58193  0.24451  0.36508  Biso   1.000  Mg
  Mg8      1.0000 0.39212  0.26124  0.18845  Biso   1.000  Mg
  Mg9      1.0000 0.00000  0.00000  0.00000  Biso   1.000  Mg
  Mg10     1.0000 0.50000  0.50000  0.50000  Biso   1.000  Mg
  Mg11     1.0000 0.00000  0.50000  0.00000  Biso   1.000  Mg
  Mg12     1.0000 0.50000  0.00000  0.50000  Biso   1.000  Mg
  H1       1.0000 0.03320  0.02520  0.73330  Biso   1.000  H
  H2       1.0000 0.61740  0.94310  0.95760  Biso   1.000  H
  H3       1.0000 0.75600  0.63630  0.63000  Biso   1.000  H
  H4       1.0000 0.70450  0.50930  0.99140  Biso   1.000  H
  H5       1.0000 0.18680  0.51860  0.76500  Biso   1.000  H
  H6       1.0000 0.15850  0.80170  0.07020  Biso   1.000  H
  H7       1.0000 0.53320  0.47480  0.76670  Biso   1.000  H
  H8       1.0000 0.11740  0.55690  0.54240  Biso   1.000  H
  H9       1.0000 0.25600  0.86370  0.87000  Biso   1.000  H
  H10      1.0000 0.20450  0.99070  0.50860  Biso   1.000  H
  H11      1.0000 0.68680  0.98140  0.73500  Biso   1.000  H
  H12      1.0000 0.65850  0.69830  0.42980  Biso   1.000  H
  H13      1.0000 0.96680  0.97480  0.26670  Biso   1.000  H
  H14      1.0000 0.38260  0.05690  0.04240  Biso   1.000  H
  H15      1.0000 0.24400  0.36370  0.37000  Biso   1.000  H
  H16      1.0000 0.29550  0.49070  0.00860  Biso   1.000  H
  H17      1.0000 0.81320  0.48140  0.23500  Biso   1.000  H
  H18      1.0000 0.84150  0.19830  0.92980  Biso   1.000  H
  H19      1.0000 0.46680  0.52520  0.23330  Biso   1.000  H
  H20      1.0000 0.88260  0.44310  0.45760  Biso   1.000  H
  H21      1.0000 0.74400  0.13630  0.13000  Biso   1.000  H
  H22      1.0000 0.79550  0.00930  0.49140  Biso   1.000  H
  H23      1.0000 0.31320  0.01860  0.26500  Biso   1.000  H
  H24      1.0000 0.34150  0.30170  0.57020  Biso   1.000  H
  C1       1.0000 0.01314  0.98208  0.78744  Biso   1.000  C
  C2       1.0000 0.71083  0.92524  0.94928  Biso   1.000  C
  C3       1.0000 0.82551  0.66931  0.66826  Biso   1.000  C
  C4       1.0000 0.72205  0.57065  0.94914  Biso   1.000  C
  C5       1.0000 0.12575  0.54675  0.81154  Biso   1.000  C
  C6       1.0000 0.10168  0.75800  0.02857  Biso   1.000  C
  C7       1.0000 0.51314  0.51792  0.71256  Biso   1.000  C
  C8       1.0000 0.21083  0.57476  0.55072  Biso   1.000  C
  C9       1.0000 0.32551  0.83069  0.83174  Biso   1.000  C
  C10      1.0000 0.22205  0.92935  0.55086  Biso   1.000  C
  C11      1.0000 0.62575  0.95325  0.68846  Biso   1.000  C
  C12      1.0000 0.60168  0.74200  0.47143  Biso   1.000  C
  C13      1.0000 0.98686  0.01792  0.21256  Biso   1.000  C
  C14      1.0000 0.28917  0.07476  0.05072  Biso   1.000  C
  C15      1.0000 0.17449  0.33069  0.33174  Biso   1.000  C
  C16      1.0000 0.27795  0.42935  0.05086  Biso   1.000  C
  C17      1.0000 0.87425  0.45325  0.18846  Biso   1.000  C
  C18      1.0000 0.89832  0.24200  0.97143  Biso   1.000  C
  C19      1.0000 0.48686  0.48208  0.28744  Biso   1.000  C
  C20      1.0000 0.78917  0.42524  0.44928  Biso   1.000  C
  C21      1.0000 0.67449  0.16931  0.16826  Biso   1.000  C
  C22      1.0000 0.77795  0.07065  0.44914  Biso   1.000  C
  C23      1.0000 0.37425  0.04675  0.31154  Biso   1.000  C
  C24      1.0000 0.39832  0.25800  0.52857  Biso   1.000  C
  O1       1.0000 0.00219  0.87000  0.77825  Biso   1.000  O
  O2       1.0000 0.74092  0.84374  0.88951  Biso   1.000  O
  O3       1.0000 0.79624  0.69068  0.75330  Biso   1.000  O
  O4       1.0000 0.84578  0.60203  0.93925  Biso   1.000  O
  O5       1.0000 0.07818  0.65068  0.80224  Biso   1.000  O
  O6       1.0000 0.02458  0.81698  0.97471  Biso   1.000  O
  O7       1.0000 0.99975  0.03898  0.86107  Biso   1.000  O
  O8       1.0000 0.79294  0.98262  0.99700  Biso   1.000  O
  O9       1.0000 0.62284  0.61293  0.90864  Biso   1.000  O
  O10      1.0000 0.09985  0.47917  0.87544  Biso   1.000  O
  O11      1.0000 0.10802  0.64901  0.03068  Biso   1.000  O
  O12      1.0000 0.93749  0.68803  0.63116  Biso   1.000  O
  O13      1.0000 0.50219  0.63000  0.72175  Biso   1.000  O
  O14      1.0000 0.24092  0.65626  0.61049  Biso   1.000  O
  O15      1.0000 0.29624  0.80932  0.74670  Biso   1.000  O
  O16      1.0000 0.34578  0.89797  0.56075  Biso   1.000  O
  O17      1.0000 0.57818  0.84932  0.69776  Biso   1.000  O
  O18      1.0000 0.52458  0.68302  0.52529  Biso   1.000  O
  O19      1.0000 0.49975  0.46102  0.63893  Biso   1.000  O
  O20      1.0000 0.29294  0.51738  0.50300  Biso   1.000  O
  O21      1.0000 0.12284  0.88707  0.59136  Biso   1.000  O
  O22      1.0000 0.59985  0.02083  0.62456  Biso   1.000  O
  O23      1.0000 0.60802  0.85099  0.46932  Biso   1.000  O
  O24      1.0000 0.43749  0.81197  0.86884  Biso   1.000  O
  O25      1.0000 0.99781  0.13000  0.22175  Biso   1.000  O
  O26      1.0000 0.25908  0.15626  0.11049  Biso   1.000  O
  O27      1.0000 0.20376  0.30932  0.24670  Biso   1.000  O
  O28      1.0000 0.15422  0.39797  0.06075  Biso   1.000  O
  O29      1.0000 0.92182  0.34932  0.19776  Biso   1.000  O
  O30      1.0000 0.97542  0.18302  0.02529  Biso   1.000  O
  O31      1.0000 0.00025  0.96102  0.13893  Biso   1.000  O
  O32      1.0000 0.20706  0.01738  0.00300  Biso   1.000  O
  O33      1.0000 0.37716  0.38707  0.09136  Biso   1.000  O
  O34      1.0000 0.90015  0.52083  0.12456  Biso   1.000  O
  O35      1.0000 0.89198  0.35099  0.96932  Biso   1.000  O
  O36      1.0000 0.06251  0.31197  0.36884  Biso   1.000  O
  O37      1.0000 0.49781  0.37000  0.27825  Biso   1.000  O
  O38      1.0000 0.75908  0.34374  0.38951  Biso   1.000  O
  O39      1.0000 0.70376  0.19068  0.25330  Biso   1.000  O
  O40      1.0000 0.65422  0.10203  0.43925  Biso   1.000  O
  O41      1.0000 0.42182  0.15068  0.30224  Biso   1.000  O
  O42      1.0000 0.47542  0.31698  0.47471  Biso   1.000  O
  O43      1.0000 0.50025  0.53898  0.36107  Biso   1.000  O
  O44      1.0000 0.70706  0.48262  0.49700  Biso   1.000  O
  O45      1.0000 0.87716  0.11293  0.40864  Biso   1.000  O
  O46      1.0000 0.40015  0.97917  0.37544  Biso   1.000  O
  O47      1.0000 0.39198  0.14901  0.53068  Biso   1.000  O
  O48      1.0000 0.56251  0.18803  0.13116  Biso   1.000  O
