data_image0
_cell_length_a       10.165
_cell_length_b       11.624
_cell_length_c       14.738
_cell_angle_alpha    91.402
_cell_angle_beta     90
_cell_angle_gamma    90

_symmetry_space_group_name_H-M    P 1
_symmetry_int_tables_number       1

loop_
  _symmetry_equiv_pos_as_xyz
  'x, y, z'

loop_
  _atom_site_label
  _atom_site_occupancy
  _atom_site_fract_x
  _atom_site_fract_y
  _atom_site_fract_z
  _atom_site_thermal_displace_type
  _atom_site_B_iso_or_equiv
  _atom_site_type_symbol
  Mn1      1.0000 0.91451  0.74394  0.86828  Biso   1.000  Mn
  Mn2      1.0000 0.09925  0.76155  0.68359  Biso   1.000  Mn
  Mn3      1.0000 0.41451  0.75606  0.63172  Biso   1.000  Mn
  Mn4      1.0000 0.59925  0.73845  0.81641  Biso   1.000  Mn
  Mn5      1.0000 0.08549  0.25606  0.13172  Biso   1.000  Mn
  Mn6      1.0000 0.90075  0.23845  0.31641  Biso   1.000  Mn
  Mn7      1.0000 0.58549  0.24394  0.36828  Biso   1.000  Mn
  Mn8      1.0000 0.40075  0.26155  0.18359  Biso   1.000  Mn
  Mn9      1.0000 0.00000  0.00000  0.00000  Biso   1.000  Mn
  Mn10     1.0000 0.50000  0.50000  0.50000  Biso   1.000  Mn
  Mn11     1.0000 0.00000  0.50000  0.00000  Biso   1.000  Mn
  Mn12     1.0000 0.50000  0.00000  0.50000  Biso   1.000  Mn
  H1       1.0000 0.02240  0.02390  0.73250  Biso   1.000  H
  H2       1.0000 0.61750  0.94370  0.96200  Biso   1.000  H
  H3       1.0000 0.74790  0.63660  0.63350  Biso   1.000  H
  H4       1.0000 0.70230  0.50770  0.99420  Biso   1.000  H
  H5       1.0000 0.17850  0.51980  0.76210  Biso   1.000  H
  H6       1.0000 0.16020  0.80030  0.06980  Biso   1.000  H
  H7       1.0000 0.52240  0.47610  0.76750  Biso   1.000  H
  H8       1.0000 0.11750  0.55630  0.53800  Biso   1.000  H
  H9       1.0000 0.24790  0.86340  0.86650  Biso   1.000  H
  H10      1.0000 0.20230  0.99230  0.50580  Biso   1.000  H
  H11      1.0000 0.67850  0.98020  0.73790  Biso   1.000  H
  H12      1.0000 0.66020  0.69970  0.43020  Biso   1.000  H
  H13      1.0000 0.97760  0.97610  0.26750  Biso   1.000  H
  H14      1.0000 0.38250  0.05630  0.03800  Biso   1.000  H
  H15      1.0000 0.25210  0.36340  0.36650  Biso   1.000  H
  H16      1.0000 0.29770  0.49230  0.00580  Biso   1.000  H
  H17      1.0000 0.82150  0.48020  0.23790  Biso   1.000  H
  H18      1.0000 0.83980  0.19970  0.93020  Biso   1.000  H
  H19      1.0000 0.47760  0.52390  0.23250  Biso   1.000  H
  H20      1.0000 0.88250  0.44370  0.46200  Biso   1.000  H
  H21      1.0000 0.75210  0.13660  0.13350  Biso   1.000  H
  H22      1.0000 0.79770  0.00770  0.49420  Biso   1.000  H
  H23      1.0000 0.32150  0.01980  0.26210  Biso   1.000  H
  H24      1.0000 0.33980  0.30030  0.56980  Biso   1.000  H
  C1       1.0000 0.00560  0.98309  0.78634  Biso   1.000  C
  C2       1.0000 0.70797  0.92594  0.95334  Biso   1.000  C
  C3       1.0000 0.81668  0.66939  0.66928  Biso   1.000  C
  C4       1.0000 0.71762  0.56808  0.95320  Biso   1.000  C
  C5       1.0000 0.12014  0.54638  0.80847  Biso   1.000  C
  C6       1.0000 0.10503  0.75744  0.02940  Biso   1.000  C
  C7       1.0000 0.50560  0.51691  0.71366  Biso   1.000  C
  C8       1.0000 0.20797  0.57406  0.54666  Biso   1.000  C
  C9       1.0000 0.31668  0.83061  0.83072  Biso   1.000  C
  C10      1.0000 0.21762  0.93192  0.54680  Biso   1.000  C
  C11      1.0000 0.62014  0.95362  0.69153  Biso   1.000  C
  C12      1.0000 0.60503  0.74256  0.47060  Biso   1.000  C
  C13      1.0000 0.99440  0.01691  0.21366  Biso   1.000  C
  C14      1.0000 0.29203  0.07406  0.04666  Biso   1.000  C
  C15      1.0000 0.18332  0.33061  0.33072  Biso   1.000  C
  C16      1.0000 0.28238  0.43192  0.04680  Biso   1.000  C
  C17      1.0000 0.87986  0.45362  0.19153  Biso   1.000  C
  C18      1.0000 0.89497  0.24256  0.97060  Biso   1.000  C
  C19      1.0000 0.49440  0.48309  0.28634  Biso   1.000  C
  C20      1.0000 0.79203  0.42594  0.45334  Biso   1.000  C
  C21      1.0000 0.68332  0.16939  0.16928  Biso   1.000  C
  C22      1.0000 0.78238  0.06808  0.45320  Biso   1.000  C
  C23      1.0000 0.37986  0.04638  0.30847  Biso   1.000  C
  C24      1.0000 0.39497  0.25744  0.52940  Biso   1.000  C
  O1       1.0000 0.99823  0.87383  0.77908  Biso   1.000  O
  O2       1.0000 0.73600  0.84684  0.89442  Biso   1.000  O
  O3       1.0000 0.79133  0.69108  0.75264  Biso   1.000  O
  O4       1.0000 0.83673  0.60053  0.94275  Biso   1.000  O
  O5       1.0000 0.07444  0.64788  0.80131  Biso   1.000  O
  O6       1.0000 0.02826  0.81430  0.97809  Biso   1.000  O
  O7       1.0000 0.99272  0.04033  0.85731  Biso   1.000  O
  O8       1.0000 0.78838  0.98127  0.99991  Biso   1.000  O
  O9       1.0000 0.61992  0.60871  0.91429  Biso   1.000  O
  O10      1.0000 0.09571  0.47911  0.87011  Biso   1.000  O
  O11      1.0000 0.11317  0.65189  0.03067  Biso   1.000  O
  O12      1.0000 0.92325  0.68718  0.63019  Biso   1.000  O
  O13      1.0000 0.49823  0.62617  0.72092  Biso   1.000  O
  O14      1.0000 0.23600  0.65316  0.60558  Biso   1.000  O
  O15      1.0000 0.29133  0.80892  0.74736  Biso   1.000  O
  O16      1.0000 0.33673  0.89947  0.55725  Biso   1.000  O
  O17      1.0000 0.57444  0.85212  0.69869  Biso   1.000  O
  O18      1.0000 0.52826  0.68570  0.52191  Biso   1.000  O
  O19      1.0000 0.49272  0.45967  0.64269  Biso   1.000  O
  O20      1.0000 0.28838  0.51873  0.50009  Biso   1.000  O
  O21      1.0000 0.11992  0.89129  0.58571  Biso   1.000  O
  O22      1.0000 0.59571  0.02089  0.62989  Biso   1.000  O
  O23      1.0000 0.61317  0.84811  0.46933  Biso   1.000  O
  O24      1.0000 0.42325  0.81282  0.86981  Biso   1.000  O
  O25      1.0000 0.00177  0.12617  0.22092  Biso   1.000  O
  O26      1.0000 0.26400  0.15316  0.10558  Biso   1.000  O
  O27      1.0000 0.20867  0.30892  0.24736  Biso   1.000  O
  O28      1.0000 0.16327  0.39947  0.05725  Biso   1.000  O
  O29      1.0000 0.92556  0.35212  0.19869  Biso   1.000  O
  O30      1.0000 0.97174  0.18570  0.02191  Biso   1.000  O
  O31      1.0000 0.00728  0.95967  0.14269  Biso   1.000  O
  O32      1.0000 0.21162  0.01873  0.00009  Biso   1.000  O
  O33      1.0000 0.38008  0.39129  0.08571  Biso   1.000  O
  O34      1.0000 0.90429  0.52089  0.12989  Biso   1.000  O
  O35      1.0000 0.88683  0.34811  0.96933  Biso   1.000  O
  O36      1.0000 0.07675  0.31282  0.36981  Biso   1.000  O
  O37      1.0000 0.50177  0.37383  0.27908  Biso   1.000  O
  O38      1.0000 0.76400  0.34684  0.39442  Biso   1.000  O
  O39      1.0000 0.70867  0.19108  0.25264  Biso   1.000  O
  O40      1.0000 0.66327  0.10053  0.44275  Biso   1.000  O
  O41      1.0000 0.42556  0.14788  0.30131  Biso   1.000  O
  O42      1.0000 0.47174  0.31430  0.47809  Biso   1.000  O
  O43      1.0000 0.50728  0.54033  0.35731  Biso   1.000  O
  O44      1.0000 0.71162  0.48127  0.49991  Biso   1.000  O
  O45      1.0000 0.88008  0.10871  0.41429  Biso   1.000  O
  O46      1.0000 0.40429  0.97911  0.37011  Biso   1.000  O
  O47      1.0000 0.38683  0.15189  0.53067  Biso   1.000  O
  O48      1.0000 0.57675  0.18718  0.13019  Biso   1.000  O
