data_image0
_cell_length_a       6.5052
_cell_length_b       17.5005
_cell_length_c       8.1811
_cell_angle_alpha    90
_cell_angle_beta     107.656
_cell_angle_gamma    90

_symmetry_space_group_name_H-M    "P 1"
_symmetry_int_tables_number       1

loop_
  _symmetry_equiv_pos_as_xyz
  'x, y, z'

loop_
  _atom_site_label
  _atom_site_occupancy
  _atom_site_fract_x
  _atom_site_fract_y
  _atom_site_fract_z
  _atom_site_thermal_displace_type
  _atom_site_B_iso_or_equiv
  _atom_site_type_symbol
  P1       1.0000 0.73610  0.04740  0.75700  Biso   1.000  P
  P2       1.0000 0.39400  0.09130  0.15820  Biso   1.000  P
  P3       1.0000 0.07050  0.83674  0.87070  Biso   1.000  P
  O1       1.0000 0.55180  0.98830  0.72730  Biso   1.000  O
  O2       1.0000 0.95320  0.00660  0.83240  Biso   1.000  O
  O3       1.0000 0.70810  0.11270  0.87170  Biso   1.000  O
  O4       1.0000 0.72930  0.08240  0.58140  Biso   1.000  O
  O5       1.0000 0.40660  0.02820  0.03220  Biso   1.000  O
  O6       1.0000 0.41910  0.05260  0.33310  Biso   1.000  O
  O7       1.0000 0.18680  0.13670  0.09280  Biso   1.000  O
  O8       1.0000 0.57780  0.14930  0.17630  Biso   1.000  O
  O9       1.0000 0.23830  0.88090  0.81510  Biso   1.000  O
  O10      1.0000 0.86140  0.82970  0.72250  Biso   1.000  O
  O11      1.0000 0.01720  0.88070  0.02120  Biso   1.000  O
  O12      1.0000 0.16180  0.75980  0.94700  Biso   1.000  O
  O13      1.0000 0.21150  0.11450  0.65090  Biso   1.000  O
  O14      1.0000 0.04510  0.17020  0.40140  Biso   1.000  O
  O15      1.0000 0.08180  0.97550  0.50830  Biso   1.000  O
  O16      1.0000 0.92690  0.03070  0.25620  Biso   1.000  O
  C1       1.0000 0.10280  0.11330  0.49520  Biso   1.000  C
  C2       1.0000 0.03220  0.03340  0.41210  Biso   1.000  C
  In1      1.0000 0.25563  0.00250  0.77951  Biso   1.000  In
  In2      1.0000 0.88092  0.14147  0.12599  Biso   1.000  In
  P4       1.0000 0.26390  0.54740  0.24300  Biso   1.000  P
  P5       1.0000 0.60600  0.59130  0.84180  Biso   1.000  P
  P6       1.0000 0.92950  0.33674  0.12930  Biso   1.000  P
  O17      1.0000 0.44820  0.48830  0.27270  Biso   1.000  O
  O18      1.0000 0.04680  0.50660  0.16760  Biso   1.000  O
  O19      1.0000 0.29190  0.61270  0.12830  Biso   1.000  O
  O20      1.0000 0.27070  0.58240  0.41860  Biso   1.000  O
  O21      1.0000 0.59340  0.52820  0.96780  Biso   1.000  O
  O22      1.0000 0.58090  0.55260  0.66690  Biso   1.000  O
  O23      1.0000 0.81320  0.63670  0.90720  Biso   1.000  O
  O24      1.0000 0.42220  0.64930  0.82370  Biso   1.000  O
  O25      1.0000 0.76170  0.38090  0.18490  Biso   1.000  O
  O26      1.0000 0.13860  0.32970  0.27750  Biso   1.000  O
  O27      1.0000 0.98280  0.38070  0.97880  Biso   1.000  O
  O28      1.0000 0.83820  0.25980  0.05300  Biso   1.000  O
  O29      1.0000 0.78850  0.61450  0.34910  Biso   1.000  O
  O30      1.0000 0.95490  0.67020  0.59860  Biso   1.000  O
  O31      1.0000 0.91820  0.47550  0.49170  Biso   1.000  O
  O32      1.0000 0.07310  0.53070  0.74380  Biso   1.000  O
  C3       1.0000 0.89720  0.61330  0.50480  Biso   1.000  C
  C4       1.0000 0.96780  0.53340  0.58790  Biso   1.000  C
  In3      1.0000 0.74437  0.50250  0.22049  Biso   1.000  In
  In4      1.0000 0.11908  0.64147  0.87401  Biso   1.000  In
