data_image0
_cell_length_a       10.814
_cell_length_b       10.814
_cell_length_c       25.41
_cell_angle_alpha    90
_cell_angle_beta     90
_cell_angle_gamma    90

_symmetry_space_group_name_H-M    P 1
_symmetry_int_tables_number       1

loop_
  _symmetry_equiv_pos_as_xyz
  'x, y, z'

loop_
  _atom_site_label
  _atom_site_occupancy
  _atom_site_fract_x
  _atom_site_fract_y
  _atom_site_fract_z
  _atom_site_thermal_displace_type
  _atom_site_B_iso_or_equiv
  _atom_site_type_symbol
  Zn1      1.0000 0.45659  0.45906  0.92075  Biso   1.000  Zn
  Zn2      1.0000 0.54341  0.54094  0.42075  Biso   1.000  Zn
  Zn3      1.0000 0.04094  0.95659  0.17075  Biso   1.000  Zn
  Zn4      1.0000 0.95906  0.04341  0.67075  Biso   1.000  Zn
  Zn5      1.0000 0.04341  0.95906  0.32925  Biso   1.000  Zn
  Zn6      1.0000 0.95659  0.04094  0.82925  Biso   1.000  Zn
  Zn7      1.0000 0.45906  0.45659  0.07925  Biso   1.000  Zn
  Zn8      1.0000 0.54094  0.54341  0.57925  Biso   1.000  Zn
  H1       1.0000 0.33200  0.31600  0.79170  Biso   1.000  H
  H2       1.0000 0.16140  0.20030  0.76970  Biso   1.000  H
  H3       1.0000 0.09340  0.14470  0.91830  Biso   1.000  H
  H4       1.0000 0.69580  0.73690  0.92210  Biso   1.000  H
  H5       1.0000 0.66800  0.68400  0.29170  Biso   1.000  H
  H6       1.0000 0.83860  0.79970  0.26970  Biso   1.000  H
  H7       1.0000 0.90660  0.85530  0.41830  Biso   1.000  H
  H8       1.0000 0.30420  0.26310  0.42210  Biso   1.000  H
  H9       1.0000 0.18400  0.83200  0.04170  Biso   1.000  H
  H10      1.0000 0.29970  0.66140  0.01970  Biso   1.000  H
  H11      1.0000 0.35530  0.59340  0.16830  Biso   1.000  H
  H12      1.0000 0.76310  0.19580  0.17210  Biso   1.000  H
  H13      1.0000 0.81600  0.16800  0.54170  Biso   1.000  H
  H14      1.0000 0.70030  0.33860  0.51970  Biso   1.000  H
  H15      1.0000 0.64470  0.40660  0.66830  Biso   1.000  H
  H16      1.0000 0.23690  0.80420  0.67210  Biso   1.000  H
  H17      1.0000 0.16800  0.81600  0.45830  Biso   1.000  H
  H18      1.0000 0.33860  0.70030  0.48030  Biso   1.000  H
  H19      1.0000 0.40660  0.64470  0.33170  Biso   1.000  H
  H20      1.0000 0.80420  0.23690  0.32790  Biso   1.000  H
  H21      1.0000 0.83200  0.18400  0.95830  Biso   1.000  H
  H22      1.0000 0.66140  0.29970  0.98030  Biso   1.000  H
  H23      1.0000 0.59340  0.35530  0.83170  Biso   1.000  H
  H24      1.0000 0.19580  0.76310  0.82790  Biso   1.000  H
  H25      1.0000 0.31600  0.33200  0.20830  Biso   1.000  H
  H26      1.0000 0.20030  0.16140  0.23030  Biso   1.000  H
  H27      1.0000 0.14470  0.09340  0.08170  Biso   1.000  H
  H28      1.0000 0.73690  0.69580  0.07790  Biso   1.000  H
  H29      1.0000 0.68400  0.66800  0.70830  Biso   1.000  H
  H30      1.0000 0.79970  0.83860  0.73030  Biso   1.000  H
  H31      1.0000 0.85530  0.90660  0.58170  Biso   1.000  H
  H32      1.0000 0.26310  0.30420  0.57790  Biso   1.000  H
  H33      1.0000 0.94400  0.94400  0.00000  Biso   1.000  H
  H34      1.0000 0.05600  0.05600  0.50000  Biso   1.000  H
  H35      1.0000 0.55600  0.44400  0.25000  Biso   1.000  H
  H36      1.0000 0.44400  0.55600  0.75000  Biso   1.000  H
  C1       1.0000 0.28290  0.28340  0.81837  Biso   1.000  C
  C2       1.0000 0.18120  0.21120  0.80501  Biso   1.000  C
  C3       1.0000 0.14090  0.17940  0.89160  Biso   1.000  C
  C4       1.0000 0.24160  0.25340  0.90466  Biso   1.000  C
  C5       1.0000 0.27180  0.27760  0.95934  Biso   1.000  C
  C6       1.0000 0.73520  0.75860  0.95331  Biso   1.000  C
  C7       1.0000 0.82730  0.84800  0.95293  Biso   1.000  C
  C8       1.0000 0.86640  0.90780  0.90232  Biso   1.000  C
  C9       1.0000 0.71710  0.71660  0.31837  Biso   1.000  C
  C10      1.0000 0.81880  0.78880  0.30501  Biso   1.000  C
  C11      1.0000 0.85910  0.82060  0.39160  Biso   1.000  C
  C12      1.0000 0.75840  0.74660  0.40466  Biso   1.000  C
  C13      1.0000 0.72820  0.72240  0.45934  Biso   1.000  C
  C14      1.0000 0.26480  0.24140  0.45331  Biso   1.000  C
  C15      1.0000 0.17270  0.15200  0.45293  Biso   1.000  C
  C16      1.0000 0.13360  0.09220  0.40232  Biso   1.000  C
  C17      1.0000 0.21660  0.78290  0.06837  Biso   1.000  C
  C18      1.0000 0.28880  0.68120  0.05501  Biso   1.000  C
  C19      1.0000 0.32060  0.64090  0.14160  Biso   1.000  C
  C20      1.0000 0.24660  0.74160  0.15466  Biso   1.000  C
  C21      1.0000 0.22240  0.77180  0.20934  Biso   1.000  C
  C22      1.0000 0.74140  0.23520  0.20331  Biso   1.000  C
  C23      1.0000 0.65200  0.32730  0.20293  Biso   1.000  C
  C24      1.0000 0.59220  0.36640  0.15232  Biso   1.000  C
  C25      1.0000 0.78340  0.21710  0.56837  Biso   1.000  C
  C26      1.0000 0.71120  0.31880  0.55501  Biso   1.000  C
  C27      1.0000 0.67940  0.35910  0.64160  Biso   1.000  C
  C28      1.0000 0.75340  0.25840  0.65466  Biso   1.000  C
  C29      1.0000 0.77760  0.22820  0.70934  Biso   1.000  C
  C30      1.0000 0.25860  0.76480  0.70331  Biso   1.000  C
  C31      1.0000 0.34800  0.67270  0.70293  Biso   1.000  C
  C32      1.0000 0.40780  0.63360  0.65232  Biso   1.000  C
  C33      1.0000 0.21710  0.78340  0.43163  Biso   1.000  C
  C34      1.0000 0.31880  0.71120  0.44499  Biso   1.000  C
  C35      1.0000 0.35910  0.67940  0.35840  Biso   1.000  C
  C36      1.0000 0.25840  0.75340  0.34534  Biso   1.000  C
  C37      1.0000 0.22820  0.77760  0.29066  Biso   1.000  C
  C38      1.0000 0.76480  0.25860  0.29669  Biso   1.000  C
  C39      1.0000 0.67270  0.34800  0.29707  Biso   1.000  C
  C40      1.0000 0.63360  0.40780  0.34768  Biso   1.000  C
  C41      1.0000 0.78290  0.21660  0.93163  Biso   1.000  C
  C42      1.0000 0.68120  0.28880  0.94499  Biso   1.000  C
  C43      1.0000 0.64090  0.32060  0.85840  Biso   1.000  C
  C44      1.0000 0.74160  0.24660  0.84534  Biso   1.000  C
  C45      1.0000 0.77180  0.22240  0.79066  Biso   1.000  C
  C46      1.0000 0.23520  0.74140  0.79669  Biso   1.000  C
  C47      1.0000 0.32730  0.65200  0.79707  Biso   1.000  C
  C48      1.0000 0.36640  0.59220  0.84768  Biso   1.000  C
  C49      1.0000 0.28340  0.28290  0.18163  Biso   1.000  C
  C50      1.0000 0.21120  0.18120  0.19499  Biso   1.000  C
  C51      1.0000 0.17940  0.14090  0.10840  Biso   1.000  C
  C52      1.0000 0.25340  0.24160  0.09534  Biso   1.000  C
  C53      1.0000 0.27760  0.27180  0.04066  Biso   1.000  C
  C54      1.0000 0.75860  0.73520  0.04669  Biso   1.000  C
  C55      1.0000 0.84800  0.82730  0.04707  Biso   1.000  C
  C56      1.0000 0.90780  0.86640  0.09768  Biso   1.000  C
  C57      1.0000 0.71660  0.71710  0.68163  Biso   1.000  C
  C58      1.0000 0.78880  0.81880  0.69499  Biso   1.000  C
  C59      1.0000 0.82060  0.85910  0.60840  Biso   1.000  C
  C60      1.0000 0.74660  0.75840  0.59534  Biso   1.000  C
  C61      1.0000 0.72240  0.72820  0.54066  Biso   1.000  C
  C62      1.0000 0.24140  0.26480  0.54669  Biso   1.000  C
  C63      1.0000 0.15200  0.17270  0.54707  Biso   1.000  C
  C64      1.0000 0.09220  0.13360  0.59768  Biso   1.000  C
  C65      1.0000 0.60380  0.60380  0.00000  Biso   1.000  C
  C66      1.0000 0.70170  0.70170  0.00000  Biso   1.000  C
  C67      1.0000 0.88320  0.88320  0.00000  Biso   1.000  C
  C68      1.0000 0.39620  0.39620  0.50000  Biso   1.000  C
  C69      1.0000 0.29830  0.29830  0.50000  Biso   1.000  C
  C70      1.0000 0.11680  0.11680  0.50000  Biso   1.000  C
  C71      1.0000 0.89620  0.10380  0.25000  Biso   1.000  C
  C72      1.0000 0.79830  0.20170  0.25000  Biso   1.000  C
  C73      1.0000 0.61680  0.38320  0.25000  Biso   1.000  C
  C74      1.0000 0.10380  0.89620  0.75000  Biso   1.000  C
  C75      1.0000 0.20170  0.79830  0.75000  Biso   1.000  C
  C76      1.0000 0.38320  0.61680  0.75000  Biso   1.000  C
  N1       1.0000 0.11140  0.15740  0.84172  Biso   1.000  N
  N2       1.0000 0.31190  0.30690  0.86821  Biso   1.000  N
  N3       1.0000 0.35730  0.36040  0.97337  Biso   1.000  N
  N4       1.0000 0.88860  0.84260  0.34172  Biso   1.000  N
  N5       1.0000 0.68810  0.69310  0.36821  Biso   1.000  N
  N6       1.0000 0.64270  0.63960  0.47337  Biso   1.000  N
  N7       1.0000 0.34260  0.61140  0.09172  Biso   1.000  N
  N8       1.0000 0.19310  0.81190  0.11821  Biso   1.000  N
  N9       1.0000 0.13960  0.85730  0.22337  Biso   1.000  N
  N10      1.0000 0.65740  0.38860  0.59172  Biso   1.000  N
  N11      1.0000 0.80690  0.18810  0.61821  Biso   1.000  N
  N12      1.0000 0.86040  0.14270  0.72337  Biso   1.000  N
  N13      1.0000 0.38860  0.65740  0.40828  Biso   1.000  N
  N14      1.0000 0.18810  0.80690  0.38179  Biso   1.000  N
  N15      1.0000 0.14270  0.86040  0.27663  Biso   1.000  N
  N16      1.0000 0.61140  0.34260  0.90828  Biso   1.000  N
  N17      1.0000 0.81190  0.19310  0.88179  Biso   1.000  N
  N18      1.0000 0.85730  0.13960  0.77663  Biso   1.000  N
  N19      1.0000 0.15740  0.11140  0.15828  Biso   1.000  N
  N20      1.0000 0.30690  0.31190  0.13179  Biso   1.000  N
  N21      1.0000 0.36040  0.35730  0.02663  Biso   1.000  N
  N22      1.0000 0.84260  0.88860  0.65828  Biso   1.000  N
  N23      1.0000 0.69310  0.68810  0.63179  Biso   1.000  N
  N24      1.0000 0.63960  0.64270  0.52663  Biso   1.000  N
  N25      1.0000 0.21961  0.21961  0.00000  Biso   1.000  N
  N26      1.0000 0.78039  0.78039  0.50000  Biso   1.000  N
  N27      1.0000 0.28039  0.71961  0.25000  Biso   1.000  N
  N28      1.0000 0.71961  0.28039  0.75000  Biso   1.000  N
  O1       1.0000 0.53720  0.59475  0.95988  Biso   1.000  O
  O2       1.0000 0.80070  0.90280  0.86221  Biso   1.000  O
  O3       1.0000 0.96640  0.96700  0.90209  Biso   1.000  O
  O4       1.0000 0.46280  0.40525  0.45988  Biso   1.000  O
  O5       1.0000 0.19930  0.09720  0.36221  Biso   1.000  O
  O6       1.0000 0.03360  0.03300  0.40209  Biso   1.000  O
  O7       1.0000 0.90525  0.03720  0.20988  Biso   1.000  O
  O8       1.0000 0.59720  0.30070  0.11221  Biso   1.000  O
  O9       1.0000 0.53300  0.46640  0.15209  Biso   1.000  O
  O10      1.0000 0.09475  0.96280  0.70988  Biso   1.000  O
  O11      1.0000 0.40280  0.69930  0.61221  Biso   1.000  O
  O12      1.0000 0.46700  0.53360  0.65209  Biso   1.000  O
  O13      1.0000 0.96280  0.09475  0.29012  Biso   1.000  O
  O14      1.0000 0.69930  0.40280  0.38779  Biso   1.000  O
  O15      1.0000 0.53360  0.46700  0.34791  Biso   1.000  O
  O16      1.0000 0.03720  0.90525  0.79012  Biso   1.000  O
  O17      1.0000 0.30070  0.59720  0.88779  Biso   1.000  O
  O18      1.0000 0.46640  0.53300  0.84791  Biso   1.000  O
  O19      1.0000 0.59475  0.53720  0.04012  Biso   1.000  O
  O20      1.0000 0.90280  0.80070  0.13779  Biso   1.000  O
  O21      1.0000 0.96700  0.96640  0.09791  Biso   1.000  O
  O22      1.0000 0.40525  0.46280  0.54012  Biso   1.000  O
  O23      1.0000 0.09720  0.19930  0.63779  Biso   1.000  O
  O24      1.0000 0.03300  0.03360  0.59791  Biso   1.000  O
