data_image0
_cell_length_a       14.6026
_cell_length_b       16.6301
_cell_length_c       16.6617
_cell_angle_alpha    90
_cell_angle_beta     90
_cell_angle_gamma    90

_symmetry_space_group_name_H-M    "P 1"
_symmetry_int_tables_number       1

loop_
  _symmetry_equiv_pos_as_xyz
  'x, y, z'

loop_
  _atom_site_label
  _atom_site_occupancy
  _atom_site_fract_x
  _atom_site_fract_y
  _atom_site_fract_z
  _atom_site_thermal_displace_type
  _atom_site_B_iso_or_equiv
  _atom_site_type_symbol
  O1       1.0000 0.63160  0.96570  0.63620  Biso   1.000  O
  O2       1.0000 0.60450  0.06570  0.72180  Biso   1.000  O
  O3       1.0000 0.85540  0.74860  0.72530  Biso   1.000  O
  O4       1.0000 0.93350  0.78000  0.83350  Biso   1.000  O
  C1       1.0000 0.73380  0.97020  0.98700  Biso   1.000  C
  H1       1.0000 0.77990  0.94940  0.00740  Biso   1.000  H
  H2       1.0000 0.68230  0.94530  0.01270  Biso   1.000  H
  O5       1.0000 0.55410  0.09600  0.52350  Biso   1.000  O
  O6       1.0000 0.45530  0.14460  0.61510  Biso   1.000  O
  O7       1.0000 0.27420  0.42650  0.41550  Biso   1.000  O
  O8       1.0000 0.26860  0.38480  0.53580  Biso   1.000  O
  C2       1.0000 0.46370  0.23160  0.26220  Biso   1.000  C
  H3       1.0000 0.43600  0.27770  0.23740  Biso   1.000  H
  H4       1.0000 0.43620  0.18510  0.23810  Biso   1.000  H
  C3       1.0000 0.63610  0.99750  0.70350  Biso   1.000  C
  C4       1.0000 0.86950  0.79470  0.78710  Biso   1.000  C
  C5       1.0000 0.68630  0.95410  0.76800  Biso   1.000  C
  C6       1.0000 0.74610  0.89120  0.74910  Biso   1.000  C
  H5       1.0000 0.74990  0.87240  0.69660  Biso   1.000  H
  C7       1.0000 0.79900  0.85740  0.80750  Biso   1.000  C
  C8       1.0000 0.78770  0.88020  0.88790  Biso   1.000  C
  H6       1.0000 0.81910  0.85710  0.92420  Biso   1.000  H
  C9       1.0000 0.72690  0.93880  0.90840  Biso   1.000  C
  C10      1.0000 0.68120  0.98170  0.84680  Biso   1.000  C
  H7       1.0000 0.64810  0.02780  0.85890  Biso   1.000  H
  C11      1.0000 0.48990  0.14260  0.54370  Biso   1.000  C
  C12      1.0000 0.29860  0.38050  0.46590  Biso   1.000  C
  C13      1.0000 0.45060  0.19410  0.48270  Biso   1.000  C
  C14      1.0000 0.39110  0.25750  0.50430  Biso   1.000  C
  H8       1.0000 0.37530  0.26550  0.55780  Biso   1.000  H
  C15      1.0000 0.35560  0.30870  0.44420  Biso   1.000  C
  C16      1.0000 0.37880  0.29320  0.36420  Biso   1.000  C
  H9       1.0000 0.35490  0.32570  0.32390  Biso   1.000  H
  C17      1.0000 0.43590  0.23130  0.34380  Biso   1.000  C
  C18      1.0000 0.47600  0.18710  0.40330  Biso   1.000  C
  H10      1.0000 0.51820  0.15410  0.39090  Biso   1.000  H
  O9       1.0000 0.73380  0.02980  0.01300  Biso   1.000  O
  O10      1.0000 0.53630  0.23160  0.23780  Biso   1.000  O
  O11      1.0000 0.13160  0.46570  0.63620  Biso   1.000  O
  O12      1.0000 0.10450  0.56570  0.72180  Biso   1.000  O
  O13      1.0000 0.35540  0.24860  0.72530  Biso   1.000  O
  O14      1.0000 0.43350  0.28000  0.83350  Biso   1.000  O
  C19      1.0000 0.23380  0.47020  0.98700  Biso   1.000  C
  H11      1.0000 0.27990  0.44940  0.00740  Biso   1.000  H
  H12      1.0000 0.18230  0.44530  0.01270  Biso   1.000  H
  O15      1.0000 0.05410  0.59600  0.52350  Biso   1.000  O
  O16      1.0000 0.95530  0.64460  0.61510  Biso   1.000  O
  O17      1.0000 0.77420  0.92650  0.41550  Biso   1.000  O
  O18      1.0000 0.76860  0.88480  0.53580  Biso   1.000  O
  C20      1.0000 0.96370  0.73160  0.26220  Biso   1.000  C
  H13      1.0000 0.93600  0.77770  0.23740  Biso   1.000  H
  H14      1.0000 0.93620  0.68510  0.23810  Biso   1.000  H
  C21      1.0000 0.13610  0.49750  0.70350  Biso   1.000  C
  C22      1.0000 0.36950  0.29470  0.78710  Biso   1.000  C
  C23      1.0000 0.18630  0.45410  0.76800  Biso   1.000  C
  C24      1.0000 0.24610  0.39120  0.74910  Biso   1.000  C
  H15      1.0000 0.24990  0.37240  0.69660  Biso   1.000  H
  C25      1.0000 0.29900  0.35740  0.80750  Biso   1.000  C
  C26      1.0000 0.28770  0.38020  0.88790  Biso   1.000  C
  H16      1.0000 0.31910  0.35710  0.92420  Biso   1.000  H
  C27      1.0000 0.22690  0.43880  0.90840  Biso   1.000  C
  C28      1.0000 0.18120  0.48170  0.84680  Biso   1.000  C
  H17      1.0000 0.14810  0.52780  0.85890  Biso   1.000  H
  C29      1.0000 0.98990  0.64260  0.54370  Biso   1.000  C
  C30      1.0000 0.79860  0.88050  0.46590  Biso   1.000  C
  C31      1.0000 0.95060  0.69410  0.48270  Biso   1.000  C
  C32      1.0000 0.89110  0.75750  0.50430  Biso   1.000  C
  H18      1.0000 0.87530  0.76550  0.55780  Biso   1.000  H
  C33      1.0000 0.85560  0.80870  0.44420  Biso   1.000  C
  C34      1.0000 0.87880  0.79320  0.36420  Biso   1.000  C
  H19      1.0000 0.85490  0.82570  0.32390  Biso   1.000  H
  C35      1.0000 0.93590  0.73130  0.34380  Biso   1.000  C
  C36      1.0000 0.97600  0.68710  0.40330  Biso   1.000  C
  H20      1.0000 0.01820  0.65410  0.39090  Biso   1.000  H
  O19      1.0000 0.23380  0.52980  0.01300  Biso   1.000  O
  O20      1.0000 0.03630  0.73160  0.23780  Biso   1.000  O
  O21      1.0000 0.36840  0.03430  0.13620  Biso   1.000  O
  O22      1.0000 0.39550  0.93430  0.22180  Biso   1.000  O
  O23      1.0000 0.14460  0.25140  0.22530  Biso   1.000  O
  O24      1.0000 0.06650  0.22000  0.33350  Biso   1.000  O
  C37      1.0000 0.26620  0.02980  0.48700  Biso   1.000  C
  H21      1.0000 0.22010  0.05060  0.50740  Biso   1.000  H
  H22      1.0000 0.31770  0.05470  0.51270  Biso   1.000  H
  O25      1.0000 0.44590  0.90400  0.02350  Biso   1.000  O
  O26      1.0000 0.54470  0.85540  0.11510  Biso   1.000  O
  O27      1.0000 0.72580  0.57350  0.91550  Biso   1.000  O
  O28      1.0000 0.73140  0.61520  0.03580  Biso   1.000  O
  C38      1.0000 0.53630  0.76840  0.76220  Biso   1.000  C
  H23      1.0000 0.56400  0.72230  0.73740  Biso   1.000  H
  H24      1.0000 0.56380  0.81490  0.73810  Biso   1.000  H
  C39      1.0000 0.36390  0.00250  0.20350  Biso   1.000  C
  C40      1.0000 0.13050  0.20530  0.28710  Biso   1.000  C
  C41      1.0000 0.31370  0.04590  0.26800  Biso   1.000  C
  C42      1.0000 0.25390  0.10880  0.24910  Biso   1.000  C
  H25      1.0000 0.25010  0.12760  0.19660  Biso   1.000  H
  C43      1.0000 0.20100  0.14260  0.30750  Biso   1.000  C
  C44      1.0000 0.21230  0.11980  0.38790  Biso   1.000  C
  H26      1.0000 0.18090  0.14290  0.42420  Biso   1.000  H
  C45      1.0000 0.27310  0.06120  0.40840  Biso   1.000  C
  C46      1.0000 0.31880  0.01830  0.34680  Biso   1.000  C
  H27      1.0000 0.35190  0.97220  0.35890  Biso   1.000  H
  C47      1.0000 0.51010  0.85740  0.04370  Biso   1.000  C
  C48      1.0000 0.70140  0.61950  0.96590  Biso   1.000  C
  C49      1.0000 0.54940  0.80590  0.98270  Biso   1.000  C
  C50      1.0000 0.60890  0.74250  0.00430  Biso   1.000  C
  H28      1.0000 0.62470  0.73450  0.05780  Biso   1.000  H
  C51      1.0000 0.64440  0.69130  0.94420  Biso   1.000  C
  C52      1.0000 0.62120  0.70680  0.86420  Biso   1.000  C
  H29      1.0000 0.64510  0.67430  0.82390  Biso   1.000  H
  C53      1.0000 0.56410  0.76870  0.84380  Biso   1.000  C
  C54      1.0000 0.52400  0.81290  0.90330  Biso   1.000  C
  H30      1.0000 0.48180  0.84590  0.89090  Biso   1.000  H
  O29      1.0000 0.26620  0.97020  0.51300  Biso   1.000  O
  O30      1.0000 0.46370  0.76840  0.73780  Biso   1.000  O
  O31      1.0000 0.86840  0.53430  0.13620  Biso   1.000  O
  O32      1.0000 0.89550  0.43430  0.22180  Biso   1.000  O
  O33      1.0000 0.64460  0.75140  0.22530  Biso   1.000  O
  O34      1.0000 0.56650  0.72000  0.33350  Biso   1.000  O
  C55      1.0000 0.76620  0.52980  0.48700  Biso   1.000  C
  H31      1.0000 0.72010  0.55060  0.50740  Biso   1.000  H
  H32      1.0000 0.81770  0.55470  0.51270  Biso   1.000  H
  O35      1.0000 0.94590  0.40400  0.02350  Biso   1.000  O
  O36      1.0000 0.04470  0.35540  0.11510  Biso   1.000  O
  O37      1.0000 0.22580  0.07350  0.91550  Biso   1.000  O
  O38      1.0000 0.23140  0.11520  0.03580  Biso   1.000  O
  C56      1.0000 0.03630  0.26840  0.76220  Biso   1.000  C
  H33      1.0000 0.06400  0.22230  0.73740  Biso   1.000  H
  H34      1.0000 0.06380  0.31490  0.73810  Biso   1.000  H
  C57      1.0000 0.86390  0.50250  0.20350  Biso   1.000  C
  C58      1.0000 0.63050  0.70530  0.28710  Biso   1.000  C
  C59      1.0000 0.81370  0.54590  0.26800  Biso   1.000  C
  C60      1.0000 0.75390  0.60880  0.24910  Biso   1.000  C
  H35      1.0000 0.75010  0.62760  0.19660  Biso   1.000  H
  C61      1.0000 0.70100  0.64260  0.30750  Biso   1.000  C
  C62      1.0000 0.71230  0.61980  0.38790  Biso   1.000  C
  H36      1.0000 0.68090  0.64290  0.42420  Biso   1.000  H
  C63      1.0000 0.77310  0.56120  0.40840  Biso   1.000  C
  C64      1.0000 0.81880  0.51830  0.34680  Biso   1.000  C
  H37      1.0000 0.85190  0.47220  0.35890  Biso   1.000  H
  C65      1.0000 0.01010  0.35740  0.04370  Biso   1.000  C
  C66      1.0000 0.20140  0.11950  0.96590  Biso   1.000  C
  C67      1.0000 0.04940  0.30590  0.98270  Biso   1.000  C
  C68      1.0000 0.10890  0.24250  0.00430  Biso   1.000  C
  H38      1.0000 0.12470  0.23450  0.05780  Biso   1.000  H
  C69      1.0000 0.14440  0.19130  0.94420  Biso   1.000  C
  C70      1.0000 0.12120  0.20680  0.86420  Biso   1.000  C
  H39      1.0000 0.14510  0.17430  0.82390  Biso   1.000  H
  C71      1.0000 0.06410  0.26870  0.84380  Biso   1.000  C
  C72      1.0000 0.02400  0.31290  0.90330  Biso   1.000  C
  H40      1.0000 0.98180  0.34590  0.89090  Biso   1.000  H
  O39      1.0000 0.76620  0.47020  0.51300  Biso   1.000  O
  O40      1.0000 0.96370  0.26840  0.73780  Biso   1.000  O
  O41      1.0000 0.36840  0.96570  0.86380  Biso   1.000  O
  O42      1.0000 0.39550  0.06570  0.77820  Biso   1.000  O
  O43      1.0000 0.14460  0.74860  0.77470  Biso   1.000  O
  O44      1.0000 0.06650  0.78000  0.66650  Biso   1.000  O
  H41      1.0000 0.22010  0.94940  0.49260  Biso   1.000  H
  H42      1.0000 0.31770  0.94530  0.48730  Biso   1.000  H
  O45      1.0000 0.44590  0.09600  0.97650  Biso   1.000  O
  O46      1.0000 0.54470  0.14460  0.88490  Biso   1.000  O
  O47      1.0000 0.72580  0.42650  0.08450  Biso   1.000  O
  O48      1.0000 0.73140  0.38480  0.96420  Biso   1.000  O
  H43      1.0000 0.56400  0.27770  0.26260  Biso   1.000  H
  H44      1.0000 0.56380  0.18510  0.26190  Biso   1.000  H
  C73      1.0000 0.36390  0.99750  0.79650  Biso   1.000  C
  C74      1.0000 0.13050  0.79470  0.71290  Biso   1.000  C
  C75      1.0000 0.31370  0.95410  0.73200  Biso   1.000  C
  C76      1.0000 0.25390  0.89120  0.75090  Biso   1.000  C
  H45      1.0000 0.25010  0.87240  0.80340  Biso   1.000  H
  C77      1.0000 0.20100  0.85740  0.69250  Biso   1.000  C
  C78      1.0000 0.21230  0.88020  0.61210  Biso   1.000  C
  H46      1.0000 0.18090  0.85710  0.57580  Biso   1.000  H
  C79      1.0000 0.27310  0.93880  0.59160  Biso   1.000  C
  C80      1.0000 0.31880  0.98170  0.65320  Biso   1.000  C
  H47      1.0000 0.35190  0.02780  0.64110  Biso   1.000  H
  C81      1.0000 0.51010  0.14260  0.95630  Biso   1.000  C
  C82      1.0000 0.70140  0.38050  0.03410  Biso   1.000  C
  C83      1.0000 0.54940  0.19410  0.01730  Biso   1.000  C
  C84      1.0000 0.60890  0.25750  0.99570  Biso   1.000  C
  H48      1.0000 0.62470  0.26550  0.94220  Biso   1.000  H
  C85      1.0000 0.64440  0.30870  0.05580  Biso   1.000  C
  C86      1.0000 0.62120  0.29320  0.13580  Biso   1.000  C
  H49      1.0000 0.64510  0.32570  0.17610  Biso   1.000  H
  C87      1.0000 0.56410  0.23130  0.15620  Biso   1.000  C
  C88      1.0000 0.52400  0.18710  0.09670  Biso   1.000  C
  H50      1.0000 0.48180  0.15410  0.10910  Biso   1.000  H
  O49      1.0000 0.86840  0.46570  0.86380  Biso   1.000  O
  O50      1.0000 0.89550  0.56570  0.77820  Biso   1.000  O
  O51      1.0000 0.64460  0.24860  0.77470  Biso   1.000  O
  O52      1.0000 0.56650  0.28000  0.66650  Biso   1.000  O
  H51      1.0000 0.72010  0.44940  0.49260  Biso   1.000  H
  H52      1.0000 0.81770  0.44530  0.48730  Biso   1.000  H
  O53      1.0000 0.94590  0.59600  0.97650  Biso   1.000  O
  O54      1.0000 0.04470  0.64460  0.88490  Biso   1.000  O
  O55      1.0000 0.22580  0.92650  0.08450  Biso   1.000  O
  O56      1.0000 0.23140  0.88480  0.96420  Biso   1.000  O
  H53      1.0000 0.06400  0.77770  0.26260  Biso   1.000  H
  H54      1.0000 0.06380  0.68510  0.26190  Biso   1.000  H
  C89      1.0000 0.86390  0.49750  0.79650  Biso   1.000  C
  C90      1.0000 0.63050  0.29470  0.71290  Biso   1.000  C
  C91      1.0000 0.81370  0.45410  0.73200  Biso   1.000  C
  C92      1.0000 0.75390  0.39120  0.75090  Biso   1.000  C
  H55      1.0000 0.75010  0.37240  0.80340  Biso   1.000  H
  C93      1.0000 0.70100  0.35740  0.69250  Biso   1.000  C
  C94      1.0000 0.71230  0.38020  0.61210  Biso   1.000  C
  H56      1.0000 0.68090  0.35710  0.57580  Biso   1.000  H
  C95      1.0000 0.77310  0.43880  0.59160  Biso   1.000  C
  C96      1.0000 0.81880  0.48170  0.65320  Biso   1.000  C
  H57      1.0000 0.85190  0.52780  0.64110  Biso   1.000  H
  C97      1.0000 0.01010  0.64260  0.95630  Biso   1.000  C
  C98      1.0000 0.20140  0.88050  0.03410  Biso   1.000  C
  C99      1.0000 0.04940  0.69410  0.01730  Biso   1.000  C
  C100     1.0000 0.10890  0.75750  0.99570  Biso   1.000  C
  H58      1.0000 0.12470  0.76550  0.94220  Biso   1.000  H
  C101     1.0000 0.14440  0.80870  0.05580  Biso   1.000  C
  C102     1.0000 0.12120  0.79320  0.13580  Biso   1.000  C
  H59      1.0000 0.14510  0.82570  0.17610  Biso   1.000  H
  C103     1.0000 0.06410  0.73130  0.15620  Biso   1.000  C
  C104     1.0000 0.02400  0.68710  0.09670  Biso   1.000  C
  H60      1.0000 0.98180  0.65410  0.10910  Biso   1.000  H
  O57      1.0000 0.63160  0.03430  0.36380  Biso   1.000  O
  O58      1.0000 0.60450  0.93430  0.27820  Biso   1.000  O
  O59      1.0000 0.85540  0.25140  0.27470  Biso   1.000  O
  O60      1.0000 0.93350  0.22000  0.16650  Biso   1.000  O
  H61      1.0000 0.77990  0.05060  0.99260  Biso   1.000  H
  H62      1.0000 0.68230  0.05470  0.98730  Biso   1.000  H
  O61      1.0000 0.55410  0.90400  0.47650  Biso   1.000  O
  O62      1.0000 0.45530  0.85540  0.38490  Biso   1.000  O
  O63      1.0000 0.27420  0.57350  0.58450  Biso   1.000  O
  O64      1.0000 0.26860  0.61520  0.46420  Biso   1.000  O
  H63      1.0000 0.43600  0.72230  0.76260  Biso   1.000  H
  H64      1.0000 0.43620  0.81490  0.76190  Biso   1.000  H
  C105     1.0000 0.63610  0.00250  0.29650  Biso   1.000  C
  C106     1.0000 0.86950  0.20530  0.21290  Biso   1.000  C
  C107     1.0000 0.68630  0.04590  0.23200  Biso   1.000  C
  C108     1.0000 0.74610  0.10880  0.25090  Biso   1.000  C
  H65      1.0000 0.74990  0.12760  0.30340  Biso   1.000  H
  C109     1.0000 0.79900  0.14260  0.19250  Biso   1.000  C
  C110     1.0000 0.78770  0.11980  0.11210  Biso   1.000  C
  H66      1.0000 0.81910  0.14290  0.07580  Biso   1.000  H
  C111     1.0000 0.72690  0.06120  0.09160  Biso   1.000  C
  C112     1.0000 0.68120  0.01830  0.15320  Biso   1.000  C
  H67      1.0000 0.64810  0.97220  0.14110  Biso   1.000  H
  C113     1.0000 0.48990  0.85740  0.45630  Biso   1.000  C
  C114     1.0000 0.29860  0.61950  0.53410  Biso   1.000  C
  C115     1.0000 0.45060  0.80590  0.51730  Biso   1.000  C
  C116     1.0000 0.39110  0.74250  0.49570  Biso   1.000  C
  H68      1.0000 0.37530  0.73450  0.44220  Biso   1.000  H
  C117     1.0000 0.35560  0.69130  0.55580  Biso   1.000  C
  C118     1.0000 0.37880  0.70680  0.63580  Biso   1.000  C
  H69      1.0000 0.35490  0.67430  0.67610  Biso   1.000  H
  C119     1.0000 0.43590  0.76870  0.65620  Biso   1.000  C
  C120     1.0000 0.47600  0.81290  0.59670  Biso   1.000  C
  H70      1.0000 0.51820  0.84590  0.60910  Biso   1.000  H
  O65      1.0000 0.13160  0.53430  0.36380  Biso   1.000  O
  O66      1.0000 0.10450  0.43430  0.27820  Biso   1.000  O
  O67      1.0000 0.35540  0.75140  0.27470  Biso   1.000  O
  O68      1.0000 0.43350  0.72000  0.16650  Biso   1.000  O
  H71      1.0000 0.27990  0.55060  0.99260  Biso   1.000  H
  H72      1.0000 0.18230  0.55470  0.98730  Biso   1.000  H
  O69      1.0000 0.05410  0.40400  0.47650  Biso   1.000  O
  O70      1.0000 0.95530  0.35540  0.38490  Biso   1.000  O
  O71      1.0000 0.77420  0.07350  0.58450  Biso   1.000  O
  O72      1.0000 0.76860  0.11520  0.46420  Biso   1.000  O
  H73      1.0000 0.93600  0.22230  0.76260  Biso   1.000  H
  H74      1.0000 0.93620  0.31490  0.76190  Biso   1.000  H
  C121     1.0000 0.13610  0.50250  0.29650  Biso   1.000  C
  C122     1.0000 0.36950  0.70530  0.21290  Biso   1.000  C
  C123     1.0000 0.18630  0.54590  0.23200  Biso   1.000  C
  C124     1.0000 0.24610  0.60880  0.25090  Biso   1.000  C
  H75      1.0000 0.24990  0.62760  0.30340  Biso   1.000  H
  C125     1.0000 0.29900  0.64260  0.19250  Biso   1.000  C
  C126     1.0000 0.28770  0.61980  0.11210  Biso   1.000  C
  H76      1.0000 0.31910  0.64290  0.07580  Biso   1.000  H
  C127     1.0000 0.22690  0.56120  0.09160  Biso   1.000  C
  C128     1.0000 0.18120  0.51830  0.15320  Biso   1.000  C
  H77      1.0000 0.14810  0.47220  0.14110  Biso   1.000  H
  C129     1.0000 0.98990  0.35740  0.45630  Biso   1.000  C
  C130     1.0000 0.79860  0.11950  0.53410  Biso   1.000  C
  C131     1.0000 0.95060  0.30590  0.51730  Biso   1.000  C
  C132     1.0000 0.89110  0.24250  0.49570  Biso   1.000  C
  H78      1.0000 0.87530  0.23450  0.44220  Biso   1.000  H
  C133     1.0000 0.85560  0.19130  0.55580  Biso   1.000  C
  C134     1.0000 0.87880  0.20680  0.63580  Biso   1.000  C
  H79      1.0000 0.85490  0.17430  0.67610  Biso   1.000  H
  C135     1.0000 0.93590  0.26870  0.65620  Biso   1.000  C
  C136     1.0000 0.97600  0.31290  0.59670  Biso   1.000  C
  H80      1.0000 0.01820  0.34590  0.60910  Biso   1.000  H
  Sm1      1.0000 0.50000  0.16801  0.75000  Biso   1.000  Sm
  Sm2      1.0000 0.00000  0.66801  0.75000  Biso   1.000  Sm
  Sm3      1.0000 0.50000  0.83199  0.25000  Biso   1.000  Sm
  Sm4      1.0000 0.00000  0.33199  0.25000  Biso   1.000  Sm
  Sm5      1.0000 0.66213  0.00000  0.50000  Biso   1.000  Sm
  Sm6      1.0000 0.16213  0.50000  0.50000  Biso   1.000  Sm
  Sm7      1.0000 0.33787  0.00000  0.00000  Biso   1.000  Sm
  Sm8      1.0000 0.83787  0.50000  0.00000  Biso   1.000  Sm
