data_image0
_cell_length_a       14.6077
_cell_length_b       16.5568
_cell_length_c       16.6303
_cell_angle_alpha    90
_cell_angle_beta     90
_cell_angle_gamma    90

_symmetry_space_group_name_H-M    "P 1"
_symmetry_int_tables_number       1

loop_
  _symmetry_equiv_pos_as_xyz
  'x, y, z'

loop_
  _atom_site_label
  _atom_site_occupancy
  _atom_site_fract_x
  _atom_site_fract_y
  _atom_site_fract_z
  _atom_site_thermal_displace_type
  _atom_site_B_iso_or_equiv
  _atom_site_type_symbol
  O1       1.0000 0.55380  0.09690  0.52390  Biso   1.000  O
  O2       1.0000 0.45660  0.14370  0.61480  Biso   1.000  O
  O3       1.0000 0.26640  0.38480  0.53620  Biso   1.000  O
  O4       1.0000 0.27190  0.42610  0.41400  Biso   1.000  O
  O5       1.0000 0.35690  0.24800  0.72510  Biso   1.000  O
  O6       1.0000 0.43530  0.28040  0.83220  Biso   1.000  O
  O7       1.0000 0.13100  0.46540  0.63530  Biso   1.000  O
  O8       1.0000 0.10210  0.56540  0.72190  Biso   1.000  O
  C1       1.0000 0.23150  0.46880  0.98720  Biso   1.000  C
  H1       1.0000 0.28470  0.44450  0.01100  Biso   1.000  H
  H2       1.0000 0.17980  0.44390  0.01280  Biso   1.000  H
  C2       1.0000 0.49050  0.14240  0.54400  Biso   1.000  C
  C3       1.0000 0.29680  0.37920  0.46540  Biso   1.000  C
  C4       1.0000 0.45120  0.19510  0.48300  Biso   1.000  C
  C5       1.0000 0.47550  0.18580  0.40330  Biso   1.000  C
  H3       1.0000 0.51930  0.14750  0.38950  Biso   1.000  H
  C6       1.0000 0.43620  0.23220  0.34370  Biso   1.000  C
  C7       1.0000 0.37830  0.29320  0.36460  Biso   1.000  C
  H4       1.0000 0.35350  0.32560  0.32440  Biso   1.000  H
  C8       1.0000 0.35460  0.30880  0.44560  Biso   1.000  C
  C9       1.0000 0.39160  0.25790  0.50550  Biso   1.000  C
  H5       1.0000 0.37670  0.26580  0.55930  Biso   1.000  H
  C10      1.0000 0.36880  0.29360  0.78590  Biso   1.000  C
  C11      1.0000 0.13650  0.49840  0.70370  Biso   1.000  C
  C12      1.0000 0.29910  0.35530  0.80740  Biso   1.000  C
  C13      1.0000 0.24710  0.39220  0.74880  Biso   1.000  C
  H6       1.0000 0.25240  0.37560  0.69560  Biso   1.000  H
  C14      1.0000 0.18740  0.45360  0.76830  Biso   1.000  C
  C15      1.0000 0.17940  0.48030  0.84680  Biso   1.000  C
  H7       1.0000 0.14400  0.52530  0.85900  Biso   1.000  H
  C16      1.0000 0.22580  0.43810  0.90810  Biso   1.000  C
  C17      1.0000 0.28710  0.37900  0.88730  Biso   1.000  C
  H8       1.0000 0.32140  0.35410  0.92730  Biso   1.000  H
  C18      1.0000 0.46480  0.23470  0.26260  Biso   1.000  C
  H9       1.0000 0.43660  0.28210  0.24040  Biso   1.000  H
  H10      1.0000 0.43540  0.18950  0.23740  Biso   1.000  H
  O9       1.0000 0.05380  0.59690  0.52390  Biso   1.000  O
  O10      1.0000 0.95660  0.64370  0.61480  Biso   1.000  O
  O11      1.0000 0.76640  0.88480  0.53620  Biso   1.000  O
  O12      1.0000 0.77190  0.92610  0.41400  Biso   1.000  O
  O13      1.0000 0.85690  0.74800  0.72510  Biso   1.000  O
  O14      1.0000 0.93530  0.78040  0.83220  Biso   1.000  O
  O15      1.0000 0.63100  0.96540  0.63530  Biso   1.000  O
  O16      1.0000 0.60210  0.06540  0.72190  Biso   1.000  O
  C19      1.0000 0.73150  0.96880  0.98720  Biso   1.000  C
  H11      1.0000 0.78470  0.94450  0.01100  Biso   1.000  H
  H12      1.0000 0.67980  0.94390  0.01280  Biso   1.000  H
  C20      1.0000 0.99050  0.64240  0.54400  Biso   1.000  C
  C21      1.0000 0.79680  0.87920  0.46540  Biso   1.000  C
  C22      1.0000 0.95120  0.69510  0.48300  Biso   1.000  C
  C23      1.0000 0.97550  0.68580  0.40330  Biso   1.000  C
  H13      1.0000 0.01930  0.64750  0.38950  Biso   1.000  H
  C24      1.0000 0.93620  0.73220  0.34370  Biso   1.000  C
  C25      1.0000 0.87830  0.79320  0.36460  Biso   1.000  C
  H14      1.0000 0.85350  0.82560  0.32440  Biso   1.000  H
  C26      1.0000 0.85460  0.80880  0.44560  Biso   1.000  C
  C27      1.0000 0.89160  0.75790  0.50550  Biso   1.000  C
  H15      1.0000 0.87670  0.76580  0.55930  Biso   1.000  H
  C28      1.0000 0.86880  0.79360  0.78590  Biso   1.000  C
  C29      1.0000 0.63650  0.99840  0.70370  Biso   1.000  C
  C30      1.0000 0.79910  0.85530  0.80740  Biso   1.000  C
  C31      1.0000 0.74710  0.89220  0.74880  Biso   1.000  C
  H16      1.0000 0.75240  0.87560  0.69560  Biso   1.000  H
  C32      1.0000 0.68740  0.95360  0.76830  Biso   1.000  C
  C33      1.0000 0.67940  0.98030  0.84680  Biso   1.000  C
  H17      1.0000 0.64400  0.02530  0.85900  Biso   1.000  H
  C34      1.0000 0.72580  0.93810  0.90810  Biso   1.000  C
  C35      1.0000 0.78710  0.87900  0.88730  Biso   1.000  C
  H18      1.0000 0.82140  0.85410  0.92730  Biso   1.000  H
  C36      1.0000 0.96480  0.73470  0.26260  Biso   1.000  C
  H19      1.0000 0.93660  0.78210  0.24040  Biso   1.000  H
  H20      1.0000 0.93540  0.68950  0.23740  Biso   1.000  H
  O17      1.0000 0.44620  0.90310  0.02390  Biso   1.000  O
  O18      1.0000 0.54340  0.85630  0.11480  Biso   1.000  O
  O19      1.0000 0.73360  0.61520  0.03620  Biso   1.000  O
  O20      1.0000 0.72810  0.57390  0.91400  Biso   1.000  O
  O21      1.0000 0.64310  0.75200  0.22510  Biso   1.000  O
  O22      1.0000 0.56470  0.71960  0.33220  Biso   1.000  O
  O23      1.0000 0.86900  0.53460  0.13530  Biso   1.000  O
  O24      1.0000 0.89790  0.43460  0.22190  Biso   1.000  O
  C37      1.0000 0.76850  0.53120  0.48720  Biso   1.000  C
  H21      1.0000 0.71530  0.55550  0.51100  Biso   1.000  H
  H22      1.0000 0.82020  0.55610  0.51280  Biso   1.000  H
  C38      1.0000 0.50950  0.85760  0.04400  Biso   1.000  C
  C39      1.0000 0.70320  0.62080  0.96540  Biso   1.000  C
  C40      1.0000 0.54880  0.80490  0.98300  Biso   1.000  C
  C41      1.0000 0.52450  0.81420  0.90330  Biso   1.000  C
  H23      1.0000 0.48070  0.85250  0.88950  Biso   1.000  H
  C42      1.0000 0.56380  0.76780  0.84370  Biso   1.000  C
  C43      1.0000 0.62170  0.70680  0.86460  Biso   1.000  C
  H24      1.0000 0.64650  0.67440  0.82440  Biso   1.000  H
  C44      1.0000 0.64540  0.69120  0.94560  Biso   1.000  C
  C45      1.0000 0.60840  0.74210  0.00550  Biso   1.000  C
  H25      1.0000 0.62330  0.73420  0.05930  Biso   1.000  H
  C46      1.0000 0.63120  0.70640  0.28590  Biso   1.000  C
  C47      1.0000 0.86350  0.50160  0.20370  Biso   1.000  C
  C48      1.0000 0.70090  0.64470  0.30740  Biso   1.000  C
  C49      1.0000 0.75290  0.60780  0.24880  Biso   1.000  C
  H26      1.0000 0.74760  0.62440  0.19560  Biso   1.000  H
  C50      1.0000 0.81260  0.54640  0.26830  Biso   1.000  C
  C51      1.0000 0.82060  0.51970  0.34680  Biso   1.000  C
  H27      1.0000 0.85600  0.47470  0.35900  Biso   1.000  H
  C52      1.0000 0.77420  0.56190  0.40810  Biso   1.000  C
  C53      1.0000 0.71290  0.62100  0.38730  Biso   1.000  C
  H28      1.0000 0.67860  0.64590  0.42730  Biso   1.000  H
  C54      1.0000 0.53520  0.76530  0.76260  Biso   1.000  C
  H29      1.0000 0.56340  0.71790  0.74040  Biso   1.000  H
  H30      1.0000 0.56460  0.81050  0.73740  Biso   1.000  H
  O25      1.0000 0.94620  0.40310  0.02390  Biso   1.000  O
  O26      1.0000 0.04340  0.35630  0.11480  Biso   1.000  O
  O27      1.0000 0.23360  0.11520  0.03620  Biso   1.000  O
  O28      1.0000 0.22810  0.07390  0.91400  Biso   1.000  O
  O29      1.0000 0.14310  0.25200  0.22510  Biso   1.000  O
  O30      1.0000 0.06470  0.21960  0.33220  Biso   1.000  O
  O31      1.0000 0.36900  0.03460  0.13530  Biso   1.000  O
  O32      1.0000 0.39790  0.93460  0.22190  Biso   1.000  O
  C55      1.0000 0.26850  0.03120  0.48720  Biso   1.000  C
  H31      1.0000 0.21530  0.05550  0.51100  Biso   1.000  H
  H32      1.0000 0.32020  0.05610  0.51280  Biso   1.000  H
  C56      1.0000 0.00950  0.35760  0.04400  Biso   1.000  C
  C57      1.0000 0.20320  0.12080  0.96540  Biso   1.000  C
  C58      1.0000 0.04880  0.30490  0.98300  Biso   1.000  C
  C59      1.0000 0.02450  0.31420  0.90330  Biso   1.000  C
  H33      1.0000 0.98070  0.35250  0.88950  Biso   1.000  H
  C60      1.0000 0.06380  0.26780  0.84370  Biso   1.000  C
  C61      1.0000 0.12170  0.20680  0.86460  Biso   1.000  C
  H34      1.0000 0.14650  0.17440  0.82440  Biso   1.000  H
  C62      1.0000 0.14540  0.19120  0.94560  Biso   1.000  C
  C63      1.0000 0.10840  0.24210  0.00550  Biso   1.000  C
  H35      1.0000 0.12330  0.23420  0.05930  Biso   1.000  H
  C64      1.0000 0.13120  0.20640  0.28590  Biso   1.000  C
  C65      1.0000 0.36350  0.00160  0.20370  Biso   1.000  C
  C66      1.0000 0.20090  0.14470  0.30740  Biso   1.000  C
  C67      1.0000 0.25290  0.10780  0.24880  Biso   1.000  C
  H36      1.0000 0.24760  0.12440  0.19560  Biso   1.000  H
  C68      1.0000 0.31260  0.04640  0.26830  Biso   1.000  C
  C69      1.0000 0.32060  0.01970  0.34680  Biso   1.000  C
  H37      1.0000 0.35600  0.97470  0.35900  Biso   1.000  H
  C70      1.0000 0.27420  0.06190  0.40810  Biso   1.000  C
  C71      1.0000 0.21290  0.12100  0.38730  Biso   1.000  C
  H38      1.0000 0.17860  0.14590  0.42730  Biso   1.000  H
  C72      1.0000 0.03520  0.26530  0.76260  Biso   1.000  C
  H39      1.0000 0.06340  0.21790  0.74040  Biso   1.000  H
  H40      1.0000 0.06460  0.31050  0.73740  Biso   1.000  H
  O33      1.0000 0.44620  0.09690  0.97610  Biso   1.000  O
  O34      1.0000 0.54340  0.14370  0.88520  Biso   1.000  O
  O35      1.0000 0.73360  0.38480  0.96380  Biso   1.000  O
  O36      1.0000 0.72810  0.42610  0.08600  Biso   1.000  O
  O37      1.0000 0.64310  0.24800  0.77490  Biso   1.000  O
  O38      1.0000 0.56470  0.28040  0.66780  Biso   1.000  O
  O39      1.0000 0.86900  0.46540  0.86470  Biso   1.000  O
  O40      1.0000 0.89790  0.56540  0.77810  Biso   1.000  O
  C73      1.0000 0.76850  0.46880  0.51280  Biso   1.000  C
  H41      1.0000 0.71530  0.44450  0.48900  Biso   1.000  H
  H42      1.0000 0.82020  0.44390  0.48720  Biso   1.000  H
  C74      1.0000 0.50950  0.14240  0.95600  Biso   1.000  C
  C75      1.0000 0.70320  0.37920  0.03460  Biso   1.000  C
  C76      1.0000 0.54880  0.19510  0.01700  Biso   1.000  C
  C77      1.0000 0.52450  0.18580  0.09670  Biso   1.000  C
  H43      1.0000 0.48070  0.14750  0.11050  Biso   1.000  H
  C78      1.0000 0.56380  0.23220  0.15630  Biso   1.000  C
  C79      1.0000 0.62170  0.29320  0.13540  Biso   1.000  C
  H44      1.0000 0.64650  0.32560  0.17560  Biso   1.000  H
  C80      1.0000 0.64540  0.30880  0.05440  Biso   1.000  C
  C81      1.0000 0.60840  0.25790  0.99450  Biso   1.000  C
  H45      1.0000 0.62330  0.26580  0.94070  Biso   1.000  H
  C82      1.0000 0.63120  0.29360  0.71410  Biso   1.000  C
  C83      1.0000 0.86350  0.49840  0.79630  Biso   1.000  C
  C84      1.0000 0.70090  0.35530  0.69260  Biso   1.000  C
  C85      1.0000 0.75290  0.39220  0.75120  Biso   1.000  C
  H46      1.0000 0.74760  0.37560  0.80440  Biso   1.000  H
  C86      1.0000 0.81260  0.45360  0.73170  Biso   1.000  C
  C87      1.0000 0.82060  0.48030  0.65320  Biso   1.000  C
  H47      1.0000 0.85600  0.52530  0.64100  Biso   1.000  H
  C88      1.0000 0.77420  0.43810  0.59190  Biso   1.000  C
  C89      1.0000 0.71290  0.37900  0.61270  Biso   1.000  C
  H48      1.0000 0.67860  0.35410  0.57270  Biso   1.000  H
  C90      1.0000 0.53520  0.23470  0.23740  Biso   1.000  C
  H49      1.0000 0.56340  0.28210  0.25960  Biso   1.000  H
  H50      1.0000 0.56460  0.18950  0.26260  Biso   1.000  H
  O41      1.0000 0.94620  0.59690  0.97610  Biso   1.000  O
  O42      1.0000 0.04340  0.64370  0.88520  Biso   1.000  O
  O43      1.0000 0.23360  0.88480  0.96380  Biso   1.000  O
  O44      1.0000 0.22810  0.92610  0.08600  Biso   1.000  O
  O45      1.0000 0.14310  0.74800  0.77490  Biso   1.000  O
  O46      1.0000 0.06470  0.78040  0.66780  Biso   1.000  O
  O47      1.0000 0.36900  0.96540  0.86470  Biso   1.000  O
  O48      1.0000 0.39790  0.06540  0.77810  Biso   1.000  O
  C91      1.0000 0.26850  0.96880  0.51280  Biso   1.000  C
  H51      1.0000 0.21530  0.94450  0.48900  Biso   1.000  H
  H52      1.0000 0.32020  0.94390  0.48720  Biso   1.000  H
  C92      1.0000 0.00950  0.64240  0.95600  Biso   1.000  C
  C93      1.0000 0.20320  0.87920  0.03460  Biso   1.000  C
  C94      1.0000 0.04880  0.69510  0.01700  Biso   1.000  C
  C95      1.0000 0.02450  0.68580  0.09670  Biso   1.000  C
  H53      1.0000 0.98070  0.64750  0.11050  Biso   1.000  H
  C96      1.0000 0.06380  0.73220  0.15630  Biso   1.000  C
  C97      1.0000 0.12170  0.79320  0.13540  Biso   1.000  C
  H54      1.0000 0.14650  0.82560  0.17560  Biso   1.000  H
  C98      1.0000 0.14540  0.80880  0.05440  Biso   1.000  C
  C99      1.0000 0.10840  0.75790  0.99450  Biso   1.000  C
  H55      1.0000 0.12330  0.76580  0.94070  Biso   1.000  H
  C100     1.0000 0.13120  0.79360  0.71410  Biso   1.000  C
  C101     1.0000 0.36350  0.99840  0.79630  Biso   1.000  C
  C102     1.0000 0.20090  0.85530  0.69260  Biso   1.000  C
  C103     1.0000 0.25290  0.89220  0.75120  Biso   1.000  C
  H56      1.0000 0.24760  0.87560  0.80440  Biso   1.000  H
  C104     1.0000 0.31260  0.95360  0.73170  Biso   1.000  C
  C105     1.0000 0.32060  0.98030  0.65320  Biso   1.000  C
  H57      1.0000 0.35600  0.02530  0.64100  Biso   1.000  H
  C106     1.0000 0.27420  0.93810  0.59190  Biso   1.000  C
  C107     1.0000 0.21290  0.87900  0.61270  Biso   1.000  C
  H58      1.0000 0.17860  0.85410  0.57270  Biso   1.000  H
  C108     1.0000 0.03520  0.73470  0.23740  Biso   1.000  C
  H59      1.0000 0.06340  0.78210  0.25960  Biso   1.000  H
  H60      1.0000 0.06460  0.68950  0.26260  Biso   1.000  H
  O49      1.0000 0.55380  0.90310  0.47610  Biso   1.000  O
  O50      1.0000 0.45660  0.85630  0.38520  Biso   1.000  O
  O51      1.0000 0.26640  0.61520  0.46380  Biso   1.000  O
  O52      1.0000 0.27190  0.57390  0.58600  Biso   1.000  O
  O53      1.0000 0.35690  0.75200  0.27490  Biso   1.000  O
  O54      1.0000 0.43530  0.71960  0.16780  Biso   1.000  O
  O55      1.0000 0.13100  0.53460  0.36470  Biso   1.000  O
  O56      1.0000 0.10210  0.43460  0.27810  Biso   1.000  O
  C109     1.0000 0.23150  0.53120  0.01280  Biso   1.000  C
  H61      1.0000 0.28470  0.55550  0.98900  Biso   1.000  H
  H62      1.0000 0.17980  0.55610  0.98720  Biso   1.000  H
  C110     1.0000 0.49050  0.85760  0.45600  Biso   1.000  C
  C111     1.0000 0.29680  0.62080  0.53460  Biso   1.000  C
  C112     1.0000 0.45120  0.80490  0.51700  Biso   1.000  C
  C113     1.0000 0.47550  0.81420  0.59670  Biso   1.000  C
  H63      1.0000 0.51930  0.85250  0.61050  Biso   1.000  H
  C114     1.0000 0.43620  0.76780  0.65630  Biso   1.000  C
  C115     1.0000 0.37830  0.70680  0.63540  Biso   1.000  C
  H64      1.0000 0.35350  0.67440  0.67560  Biso   1.000  H
  C116     1.0000 0.35460  0.69120  0.55440  Biso   1.000  C
  C117     1.0000 0.39160  0.74210  0.49450  Biso   1.000  C
  H65      1.0000 0.37670  0.73420  0.44070  Biso   1.000  H
  C118     1.0000 0.36880  0.70640  0.21410  Biso   1.000  C
  C119     1.0000 0.13650  0.50160  0.29630  Biso   1.000  C
  C120     1.0000 0.29910  0.64470  0.19260  Biso   1.000  C
  C121     1.0000 0.24710  0.60780  0.25120  Biso   1.000  C
  H66      1.0000 0.25240  0.62440  0.30440  Biso   1.000  H
  C122     1.0000 0.18740  0.54640  0.23170  Biso   1.000  C
  C123     1.0000 0.17940  0.51970  0.15320  Biso   1.000  C
  H67      1.0000 0.14400  0.47470  0.14100  Biso   1.000  H
  C124     1.0000 0.22580  0.56190  0.09190  Biso   1.000  C
  C125     1.0000 0.28710  0.62100  0.11270  Biso   1.000  C
  H68      1.0000 0.32140  0.64590  0.07270  Biso   1.000  H
  C126     1.0000 0.46480  0.76530  0.73740  Biso   1.000  C
  H69      1.0000 0.43660  0.71790  0.75960  Biso   1.000  H
  H70      1.0000 0.43540  0.81050  0.76260  Biso   1.000  H
  O57      1.0000 0.05380  0.40310  0.47610  Biso   1.000  O
  O58      1.0000 0.95660  0.35630  0.38520  Biso   1.000  O
  O59      1.0000 0.76640  0.11520  0.46380  Biso   1.000  O
  O60      1.0000 0.77190  0.07390  0.58600  Biso   1.000  O
  O61      1.0000 0.85690  0.25200  0.27490  Biso   1.000  O
  O62      1.0000 0.93530  0.21960  0.16780  Biso   1.000  O
  O63      1.0000 0.63100  0.03460  0.36470  Biso   1.000  O
  O64      1.0000 0.60210  0.93460  0.27810  Biso   1.000  O
  C127     1.0000 0.73150  0.03120  0.01280  Biso   1.000  C
  H71      1.0000 0.78470  0.05550  0.98900  Biso   1.000  H
  H72      1.0000 0.67980  0.05610  0.98720  Biso   1.000  H
  C128     1.0000 0.99050  0.35760  0.45600  Biso   1.000  C
  C129     1.0000 0.79680  0.12080  0.53460  Biso   1.000  C
  C130     1.0000 0.95120  0.30490  0.51700  Biso   1.000  C
  C131     1.0000 0.97550  0.31420  0.59670  Biso   1.000  C
  H73      1.0000 0.01930  0.35250  0.61050  Biso   1.000  H
  C132     1.0000 0.93620  0.26780  0.65630  Biso   1.000  C
  C133     1.0000 0.87830  0.20680  0.63540  Biso   1.000  C
  H74      1.0000 0.85350  0.17440  0.67560  Biso   1.000  H
  C134     1.0000 0.85460  0.19120  0.55440  Biso   1.000  C
  C135     1.0000 0.89160  0.24210  0.49450  Biso   1.000  C
  H75      1.0000 0.87670  0.23420  0.44070  Biso   1.000  H
  C136     1.0000 0.86880  0.20640  0.21410  Biso   1.000  C
  C137     1.0000 0.63650  0.00160  0.29630  Biso   1.000  C
  C138     1.0000 0.79910  0.14470  0.19260  Biso   1.000  C
  C139     1.0000 0.74710  0.10780  0.25120  Biso   1.000  C
  H76      1.0000 0.75240  0.12440  0.30440  Biso   1.000  H
  C140     1.0000 0.68740  0.04640  0.23170  Biso   1.000  C
  C141     1.0000 0.67940  0.01970  0.15320  Biso   1.000  C
  H77      1.0000 0.64400  0.97470  0.14100  Biso   1.000  H
  C142     1.0000 0.72580  0.06190  0.09190  Biso   1.000  C
  C143     1.0000 0.78710  0.12100  0.11270  Biso   1.000  C
  H78      1.0000 0.82140  0.14590  0.07270  Biso   1.000  H
  C144     1.0000 0.96480  0.26530  0.73740  Biso   1.000  C
  H79      1.0000 0.93660  0.21790  0.75960  Biso   1.000  H
  H80      1.0000 0.93540  0.31050  0.76260  Biso   1.000  H
  Eu1      1.0000 0.66194  0.00000  0.50000  Biso   1.000  Eu
  Eu2      1.0000 0.16194  0.50000  0.50000  Biso   1.000  Eu
  Eu3      1.0000 0.33806  0.00000  0.00000  Biso   1.000  Eu
  Eu4      1.0000 0.83806  0.50000  0.00000  Biso   1.000  Eu
  Eu5      1.0000 0.50000  0.16804  0.75000  Biso   1.000  Eu
  Eu6      1.0000 0.00000  0.66804  0.75000  Biso   1.000  Eu
  Eu7      1.0000 0.50000  0.83196  0.25000  Biso   1.000  Eu
  Eu8      1.0000 0.00000  0.33196  0.25000  Biso   1.000  Eu
