data_image0
_cell_length_a       30.404
_cell_length_b       19.657
_cell_length_c       19.683
_cell_angle_alpha    90
_cell_angle_beta     127.63
_cell_angle_gamma    90

_symmetry_space_group_name_H-M    "P 1"
_symmetry_int_tables_number       1

loop_
  _symmetry_equiv_pos_as_xyz
  'x, y, z'

loop_
  _atom_site_label
  _atom_site_occupancy
  _atom_site_fract_x
  _atom_site_fract_y
  _atom_site_fract_z
  _atom_site_thermal_displace_type
  _atom_site_B_iso_or_equiv
  _atom_site_type_symbol
  W1       1.0000 0.23458  0.44484  0.21149  Biso   1.000  W
  S1       1.0000 0.17066  0.48330  0.22486  Biso   1.000  S
  S2       1.0000 0.31284  0.47494  0.33855  Biso   1.000  S
  S3       1.0000 0.23124  0.32716  0.21965  Biso   1.000  S
  Cu1      1.0000 0.18039  0.37390  0.25343  Biso   1.000  Cu
  Cu2      1.0000 0.29626  0.36841  0.34955  Biso   1.000  Cu
  Cu3      1.0000 0.09471  0.25377  0.37022  Biso   1.000  Cu
  B1       1.0000 0.22540  0.50830  0.04250  Biso   1.000  B
  H1       1.0000 0.22400  0.52900  0.99500  Biso   1.000  H
  N1       1.0000 0.16830  0.43670  0.06770  Biso   1.000  N
  N2       1.0000 0.17040  0.47450  0.01070  Biso   1.000  N
  N3       1.0000 0.23680  0.55250  0.17380  Biso   1.000  N
  N4       1.0000 0.23850  0.56500  0.10520  Biso   1.000  N
  N5       1.0000 0.28550  0.42610  0.16420  Biso   1.000  N
  N6       1.0000 0.27290  0.45630  0.09040  Biso   1.000  N
  N7       1.0000 0.06620  0.33540  0.40830  Biso   1.000  N
  C1       1.0000 0.11630  0.40590  0.01660  Biso   1.000  C
  C2       1.0000 0.08790  0.42610  0.93250  Biso   1.000  C
  H2       1.0000 0.05170  0.41370  0.88570  Biso   1.000  H
  C3       1.0000 0.12430  0.46890  0.93130  Biso   1.000  C
  C4       1.0000 0.09490  0.35980  0.05120  Biso   1.000  C
  H3       1.0000 0.11660  0.31820  0.07220  Biso   1.000  H
  H4       1.0000 0.05630  0.34900  0.00600  Biso   1.000  H
  H5       1.0000 0.09810  0.38240  0.09790  Biso   1.000  H
  C5       1.0000 0.11390  0.50540  0.85610  Biso   1.000  C
  H6       1.0000 0.11460  0.55410  0.86470  Biso   1.000  H
  H7       1.0000 0.07780  0.49240  0.80440  Biso   1.000  H
  H8       1.0000 0.14250  0.49340  0.85050  Biso   1.000  H
  C6       1.0000 0.24640  0.61310  0.21110  Biso   1.000  C
  C7       1.0000 0.25290  0.66090  0.17000  Biso   1.000  C
  H9       1.0000 0.25870  0.70740  0.18370  Biso   1.000  H
  C8       1.0000 0.24970  0.63130  0.10600  Biso   1.000  C
  C9       1.0000 0.24230  0.62680  0.28520  Biso   1.000  C
  H10      1.0000 0.20480  0.61770  0.26520  Biso   1.000  H
  H11      1.0000 0.25160  0.67400  0.30310  Biso   1.000  H
  H12      1.0000 0.26800  0.59730  0.33340  Biso   1.000  H
  C10      1.0000 0.25500  0.66270  0.04200  Biso   1.000  C
  H13      1.0000 0.27640  0.63290  0.03300  Biso   1.000  H
  H14      1.0000 0.27370  0.70630  0.06340  Biso   1.000  H
  H15      1.0000 0.21830  0.66940  0.98810  Biso   1.000  H
  C11      1.0000 0.33170  0.38640  0.19500  Biso   1.000  C
  C12      1.0000 0.34730  0.39450  0.14110  Biso   1.000  C
  H16      1.0000 0.37800  0.37450  0.14810  Biso   1.000  H
  C13      1.0000 0.30880  0.43720  0.07660  Biso   1.000  C
  C14      1.0000 0.36240  0.34610  0.27550  Biso   1.000  C
  H17      1.0000 0.37440  0.37580  0.32330  Biso   1.000  H
  H18      1.0000 0.39460  0.32520  0.28480  Biso   1.000  H
  H19      1.0000 0.33840  0.31090  0.27090  Biso   1.000  H
  C15      1.0000 0.30740  0.46450  0.00490  Biso   1.000  C
  H20      1.0000 0.27390  0.44920  0.95070  Biso   1.000  H
  H21      1.0000 0.33960  0.44840  0.01050  Biso   1.000  H
  H22      1.0000 0.30790  0.51390  0.00690  Biso   1.000  H
  C16      1.0000 0.01400  0.36090  0.35780  Biso   1.000  C
  H23      1.0000 0.98910  0.34470  0.30130  Biso   1.000  H
  C17      1.0000 0.99570  0.41050  0.38670  Biso   1.000  C
  H24      1.0000 0.95920  0.42720  0.35050  Biso   1.000  H
  C18      1.0000 0.03420  0.43490  0.47270  Biso   1.000  C
  C19      1.0000 0.08530  0.40650  0.52180  Biso   1.000  C
  H25      1.0000 0.11050  0.42010  0.57940  Biso   1.000  H
  C20      1.0000 0.10190  0.35810  0.49040  Biso   1.000  C
  H26      1.0000 0.13820  0.34070  0.52640  Biso   1.000  H
  C21      1.0000 0.02140  0.48400  0.51790  Biso   1.000  C
  H27      1.0000 0.04830  0.49000  0.57730  Biso   1.000  H
  N8       1.0000 0.12990  0.29830  0.32430  Biso   1.000  N
  C22      1.0000 0.14690  0.32630  0.29370  Biso   1.000  C
  N9       1.0000 0.35950  0.29380  0.51860  Biso   1.000  N
  C23      1.0000 0.33620  0.32180  0.45450  Biso   1.000  C
  N10      1.0000 0.02310  0.21300  0.27850  Biso   1.000  N
  C24      1.0000 0.97690  0.21300  0.22150  Biso   1.000  C
  W2       1.0000 0.73458  0.94484  0.21149  Biso   1.000  W
  S4       1.0000 0.67066  0.98330  0.22486  Biso   1.000  S
  S5       1.0000 0.81284  0.97494  0.33855  Biso   1.000  S
  S6       1.0000 0.73124  0.82716  0.21965  Biso   1.000  S
  Cu4      1.0000 0.68039  0.87390  0.25343  Biso   1.000  Cu
  Cu5      1.0000 0.79626  0.86841  0.34955  Biso   1.000  Cu
  Cu6      1.0000 0.59471  0.75377  0.37022  Biso   1.000  Cu
  B2       1.0000 0.72540  0.00830  0.04250  Biso   1.000  B
  H28      1.0000 0.72400  0.02900  0.99500  Biso   1.000  H
  N11      1.0000 0.66830  0.93670  0.06770  Biso   1.000  N
  N12      1.0000 0.67040  0.97450  0.01070  Biso   1.000  N
  N13      1.0000 0.73680  0.05250  0.17380  Biso   1.000  N
  N14      1.0000 0.73850  0.06500  0.10520  Biso   1.000  N
  N15      1.0000 0.78550  0.92610  0.16420  Biso   1.000  N
  N16      1.0000 0.77290  0.95630  0.09040  Biso   1.000  N
  N17      1.0000 0.56620  0.83540  0.40830  Biso   1.000  N
  C25      1.0000 0.61630  0.90590  0.01660  Biso   1.000  C
  C26      1.0000 0.58790  0.92610  0.93250  Biso   1.000  C
  H29      1.0000 0.55170  0.91370  0.88570  Biso   1.000  H
  C27      1.0000 0.62430  0.96890  0.93130  Biso   1.000  C
  C28      1.0000 0.59490  0.85980  0.05120  Biso   1.000  C
  H30      1.0000 0.61660  0.81820  0.07220  Biso   1.000  H
  H31      1.0000 0.55630  0.84900  0.00600  Biso   1.000  H
  H32      1.0000 0.59810  0.88240  0.09790  Biso   1.000  H
  C29      1.0000 0.61390  0.00540  0.85610  Biso   1.000  C
  H33      1.0000 0.61460  0.05410  0.86470  Biso   1.000  H
  H34      1.0000 0.57780  0.99240  0.80440  Biso   1.000  H
  H35      1.0000 0.64250  0.99340  0.85050  Biso   1.000  H
  C30      1.0000 0.74640  0.11310  0.21110  Biso   1.000  C
  C31      1.0000 0.75290  0.16090  0.17000  Biso   1.000  C
  H36      1.0000 0.75870  0.20740  0.18370  Biso   1.000  H
  C32      1.0000 0.74970  0.13130  0.10600  Biso   1.000  C
  C33      1.0000 0.74230  0.12680  0.28520  Biso   1.000  C
  H37      1.0000 0.70480  0.11770  0.26520  Biso   1.000  H
  H38      1.0000 0.75160  0.17400  0.30310  Biso   1.000  H
  H39      1.0000 0.76800  0.09730  0.33340  Biso   1.000  H
  C34      1.0000 0.75500  0.16270  0.04200  Biso   1.000  C
  H40      1.0000 0.77640  0.13290  0.03300  Biso   1.000  H
  H41      1.0000 0.77370  0.20630  0.06340  Biso   1.000  H
  H42      1.0000 0.71830  0.16940  0.98810  Biso   1.000  H
  C35      1.0000 0.83170  0.88640  0.19500  Biso   1.000  C
  C36      1.0000 0.84730  0.89450  0.14110  Biso   1.000  C
  H43      1.0000 0.87800  0.87450  0.14810  Biso   1.000  H
  C37      1.0000 0.80880  0.93720  0.07660  Biso   1.000  C
  C38      1.0000 0.86240  0.84610  0.27550  Biso   1.000  C
  H44      1.0000 0.87440  0.87580  0.32330  Biso   1.000  H
  H45      1.0000 0.89460  0.82520  0.28480  Biso   1.000  H
  H46      1.0000 0.83840  0.81090  0.27090  Biso   1.000  H
  C39      1.0000 0.80740  0.96450  0.00490  Biso   1.000  C
  H47      1.0000 0.77390  0.94920  0.95070  Biso   1.000  H
  H48      1.0000 0.83960  0.94840  0.01050  Biso   1.000  H
  H49      1.0000 0.80790  0.01390  0.00690  Biso   1.000  H
  C40      1.0000 0.51400  0.86090  0.35780  Biso   1.000  C
  H50      1.0000 0.48910  0.84470  0.30130  Biso   1.000  H
  C41      1.0000 0.49570  0.91050  0.38670  Biso   1.000  C
  H51      1.0000 0.45920  0.92720  0.35050  Biso   1.000  H
  C42      1.0000 0.53420  0.93490  0.47270  Biso   1.000  C
  C43      1.0000 0.58530  0.90650  0.52180  Biso   1.000  C
  H52      1.0000 0.61050  0.92010  0.57940  Biso   1.000  H
  C44      1.0000 0.60190  0.85810  0.49040  Biso   1.000  C
  H53      1.0000 0.63820  0.84070  0.52640  Biso   1.000  H
  C45      1.0000 0.52140  0.98400  0.51790  Biso   1.000  C
  H54      1.0000 0.54830  0.99000  0.57730  Biso   1.000  H
  N18      1.0000 0.62990  0.79830  0.32430  Biso   1.000  N
  C46      1.0000 0.64690  0.82630  0.29370  Biso   1.000  C
  N19      1.0000 0.85950  0.79380  0.51860  Biso   1.000  N
  C47      1.0000 0.83620  0.82180  0.45450  Biso   1.000  C
  N20      1.0000 0.52310  0.71300  0.27850  Biso   1.000  N
  C48      1.0000 0.47690  0.71300  0.22150  Biso   1.000  C
  W3       1.0000 0.76542  0.44484  0.28851  Biso   1.000  W
  S7       1.0000 0.82934  0.48330  0.27514  Biso   1.000  S
  S8       1.0000 0.68716  0.47494  0.16145  Biso   1.000  S
  S9       1.0000 0.76876  0.32716  0.28035  Biso   1.000  S
  Cu7      1.0000 0.81961  0.37390  0.24657  Biso   1.000  Cu
  Cu8      1.0000 0.70374  0.36841  0.15045  Biso   1.000  Cu
  Cu9      1.0000 0.90529  0.25377  0.12978  Biso   1.000  Cu
  B3       1.0000 0.77460  0.50830  0.45750  Biso   1.000  B
  H55      1.0000 0.77600  0.52900  0.50500  Biso   1.000  H
  N21      1.0000 0.83170  0.43670  0.43230  Biso   1.000  N
  N22      1.0000 0.82960  0.47450  0.48930  Biso   1.000  N
  N23      1.0000 0.76320  0.55250  0.32620  Biso   1.000  N
  N24      1.0000 0.76150  0.56500  0.39480  Biso   1.000  N
  N25      1.0000 0.71450  0.42610  0.33580  Biso   1.000  N
  N26      1.0000 0.72710  0.45630  0.40960  Biso   1.000  N
  N27      1.0000 0.93380  0.33540  0.09170  Biso   1.000  N
  C49      1.0000 0.88370  0.40590  0.48340  Biso   1.000  C
  C50      1.0000 0.91210  0.42610  0.56750  Biso   1.000  C
  H56      1.0000 0.94830  0.41370  0.61430  Biso   1.000  H
  C51      1.0000 0.87570  0.46890  0.56870  Biso   1.000  C
  C52      1.0000 0.90510  0.35980  0.44880  Biso   1.000  C
  H57      1.0000 0.88340  0.31820  0.42780  Biso   1.000  H
  H58      1.0000 0.94370  0.34900  0.49400  Biso   1.000  H
  H59      1.0000 0.90190  0.38240  0.40210  Biso   1.000  H
  C53      1.0000 0.88610  0.50540  0.64390  Biso   1.000  C
  H60      1.0000 0.88540  0.55410  0.63530  Biso   1.000  H
  H61      1.0000 0.92220  0.49240  0.69560  Biso   1.000  H
  H62      1.0000 0.85750  0.49340  0.64950  Biso   1.000  H
  C54      1.0000 0.75360  0.61310  0.28890  Biso   1.000  C
  C55      1.0000 0.74710  0.66090  0.33000  Biso   1.000  C
  H63      1.0000 0.74130  0.70740  0.31630  Biso   1.000  H
  C56      1.0000 0.75030  0.63130  0.39400  Biso   1.000  C
  C57      1.0000 0.75770  0.62680  0.21480  Biso   1.000  C
  H64      1.0000 0.79520  0.61770  0.23480  Biso   1.000  H
  H65      1.0000 0.74840  0.67400  0.19690  Biso   1.000  H
  H66      1.0000 0.73200  0.59730  0.16660  Biso   1.000  H
  C58      1.0000 0.74500  0.66270  0.45800  Biso   1.000  C
  H67      1.0000 0.72360  0.63290  0.46700  Biso   1.000  H
  H68      1.0000 0.72630  0.70630  0.43660  Biso   1.000  H
  H69      1.0000 0.78170  0.66940  0.51190  Biso   1.000  H
  C59      1.0000 0.66830  0.38640  0.30500  Biso   1.000  C
  C60      1.0000 0.65270  0.39450  0.35890  Biso   1.000  C
  H70      1.0000 0.62200  0.37450  0.35190  Biso   1.000  H
  C61      1.0000 0.69120  0.43720  0.42340  Biso   1.000  C
  C62      1.0000 0.63760  0.34610  0.22450  Biso   1.000  C
  H71      1.0000 0.62560  0.37580  0.17670  Biso   1.000  H
  H72      1.0000 0.60540  0.32520  0.21520  Biso   1.000  H
  H73      1.0000 0.66160  0.31090  0.22910  Biso   1.000  H
  C63      1.0000 0.69260  0.46450  0.49510  Biso   1.000  C
  H74      1.0000 0.72610  0.44920  0.54930  Biso   1.000  H
  H75      1.0000 0.66040  0.44840  0.48950  Biso   1.000  H
  H76      1.0000 0.69210  0.51390  0.49310  Biso   1.000  H
  C64      1.0000 0.98600  0.36090  0.14220  Biso   1.000  C
  H77      1.0000 0.01090  0.34470  0.19870  Biso   1.000  H
  C65      1.0000 0.00430  0.41050  0.11330  Biso   1.000  C
  H78      1.0000 0.04080  0.42720  0.14950  Biso   1.000  H
  C66      1.0000 0.96580  0.43490  0.02730  Biso   1.000  C
  C67      1.0000 0.91470  0.40650  0.97820  Biso   1.000  C
  H79      1.0000 0.88950  0.42010  0.92060  Biso   1.000  H
  C68      1.0000 0.89810  0.35810  0.00960  Biso   1.000  C
  H80      1.0000 0.86180  0.34070  0.97360  Biso   1.000  H
  C69      1.0000 0.97860  0.48400  0.98210  Biso   1.000  C
  H81      1.0000 0.95170  0.49000  0.92270  Biso   1.000  H
  N28      1.0000 0.87010  0.29830  0.17570  Biso   1.000  N
  C70      1.0000 0.85310  0.32630  0.20630  Biso   1.000  C
  N29      1.0000 0.64050  0.29380  0.98140  Biso   1.000  N
  C71      1.0000 0.66380  0.32180  0.04550  Biso   1.000  C
  W4       1.0000 0.26542  0.94484  0.28851  Biso   1.000  W
  S10      1.0000 0.32934  0.98330  0.27514  Biso   1.000  S
  S11      1.0000 0.18716  0.97494  0.16145  Biso   1.000  S
  S12      1.0000 0.26876  0.82716  0.28035  Biso   1.000  S
  Cu10     1.0000 0.31961  0.87390  0.24657  Biso   1.000  Cu
  Cu11     1.0000 0.20374  0.86841  0.15045  Biso   1.000  Cu
  Cu12     1.0000 0.40529  0.75377  0.12978  Biso   1.000  Cu
  B4       1.0000 0.27460  0.00830  0.45750  Biso   1.000  B
  H82      1.0000 0.27600  0.02900  0.50500  Biso   1.000  H
  N30      1.0000 0.33170  0.93670  0.43230  Biso   1.000  N
  N31      1.0000 0.32960  0.97450  0.48930  Biso   1.000  N
  N32      1.0000 0.26320  0.05250  0.32620  Biso   1.000  N
  N33      1.0000 0.26150  0.06500  0.39480  Biso   1.000  N
  N34      1.0000 0.21450  0.92610  0.33580  Biso   1.000  N
  N35      1.0000 0.22710  0.95630  0.40960  Biso   1.000  N
  N36      1.0000 0.43380  0.83540  0.09170  Biso   1.000  N
  C72      1.0000 0.38370  0.90590  0.48340  Biso   1.000  C
  C73      1.0000 0.41210  0.92610  0.56750  Biso   1.000  C
  H83      1.0000 0.44830  0.91370  0.61430  Biso   1.000  H
  C74      1.0000 0.37570  0.96890  0.56870  Biso   1.000  C
  C75      1.0000 0.40510  0.85980  0.44880  Biso   1.000  C
  H84      1.0000 0.38340  0.81820  0.42780  Biso   1.000  H
  H85      1.0000 0.44370  0.84900  0.49400  Biso   1.000  H
  H86      1.0000 0.40190  0.88240  0.40210  Biso   1.000  H
  C76      1.0000 0.38610  0.00540  0.64390  Biso   1.000  C
  H87      1.0000 0.38540  0.05410  0.63530  Biso   1.000  H
  H88      1.0000 0.42220  0.99240  0.69560  Biso   1.000  H
  H89      1.0000 0.35750  0.99340  0.64950  Biso   1.000  H
  C77      1.0000 0.25360  0.11310  0.28890  Biso   1.000  C
  C78      1.0000 0.24710  0.16090  0.33000  Biso   1.000  C
  H90      1.0000 0.24130  0.20740  0.31630  Biso   1.000  H
  C79      1.0000 0.25030  0.13130  0.39400  Biso   1.000  C
  C80      1.0000 0.25770  0.12680  0.21480  Biso   1.000  C
  H91      1.0000 0.29520  0.11770  0.23480  Biso   1.000  H
  H92      1.0000 0.24840  0.17400  0.19690  Biso   1.000  H
  H93      1.0000 0.23200  0.09730  0.16660  Biso   1.000  H
  C81      1.0000 0.24500  0.16270  0.45800  Biso   1.000  C
  H94      1.0000 0.22360  0.13290  0.46700  Biso   1.000  H
  H95      1.0000 0.22630  0.20630  0.43660  Biso   1.000  H
  H96      1.0000 0.28170  0.16940  0.51190  Biso   1.000  H
  C82      1.0000 0.16830  0.88640  0.30500  Biso   1.000  C
  C83      1.0000 0.15270  0.89450  0.35890  Biso   1.000  C
  H97      1.0000 0.12200  0.87450  0.35190  Biso   1.000  H
  C84      1.0000 0.19120  0.93720  0.42340  Biso   1.000  C
  C85      1.0000 0.13760  0.84610  0.22450  Biso   1.000  C
  H98      1.0000 0.12560  0.87580  0.17670  Biso   1.000  H
  H99      1.0000 0.10540  0.82520  0.21520  Biso   1.000  H
  H100     1.0000 0.16160  0.81090  0.22910  Biso   1.000  H
  C86      1.0000 0.19260  0.96450  0.49510  Biso   1.000  C
  H101     1.0000 0.22610  0.94920  0.54930  Biso   1.000  H
  H102     1.0000 0.16040  0.94840  0.48950  Biso   1.000  H
  H103     1.0000 0.19210  0.01390  0.49310  Biso   1.000  H
  C87      1.0000 0.48600  0.86090  0.14220  Biso   1.000  C
  H104     1.0000 0.51090  0.84470  0.19870  Biso   1.000  H
  C88      1.0000 0.50430  0.91050  0.11330  Biso   1.000  C
  H105     1.0000 0.54080  0.92720  0.14950  Biso   1.000  H
  C89      1.0000 0.46580  0.93490  0.02730  Biso   1.000  C
  C90      1.0000 0.41470  0.90650  0.97820  Biso   1.000  C
  H106     1.0000 0.38950  0.92010  0.92060  Biso   1.000  H
  C91      1.0000 0.39810  0.85810  0.00960  Biso   1.000  C
  H107     1.0000 0.36180  0.84070  0.97360  Biso   1.000  H
  C92      1.0000 0.47860  0.98400  0.98210  Biso   1.000  C
  H108     1.0000 0.45170  0.99000  0.92270  Biso   1.000  H
  N37      1.0000 0.37010  0.79830  0.17570  Biso   1.000  N
  C93      1.0000 0.35310  0.82630  0.20630  Biso   1.000  C
  N38      1.0000 0.14050  0.79380  0.98140  Biso   1.000  N
  C94      1.0000 0.16380  0.82180  0.04550  Biso   1.000  C
  W5       1.0000 0.76542  0.55516  0.78851  Biso   1.000  W
  S13      1.0000 0.82934  0.51670  0.77514  Biso   1.000  S
  S14      1.0000 0.68716  0.52506  0.66145  Biso   1.000  S
  S15      1.0000 0.76876  0.67284  0.78035  Biso   1.000  S
  Cu13     1.0000 0.81961  0.62610  0.74657  Biso   1.000  Cu
  Cu14     1.0000 0.70374  0.63159  0.65045  Biso   1.000  Cu
  Cu15     1.0000 0.90529  0.74623  0.62978  Biso   1.000  Cu
  B5       1.0000 0.77460  0.49170  0.95750  Biso   1.000  B
  H109     1.0000 0.77600  0.47100  0.00500  Biso   1.000  H
  N39      1.0000 0.83170  0.56330  0.93230  Biso   1.000  N
  N40      1.0000 0.82960  0.52550  0.98930  Biso   1.000  N
  N41      1.0000 0.76320  0.44750  0.82620  Biso   1.000  N
  N42      1.0000 0.76150  0.43500  0.89480  Biso   1.000  N
  N43      1.0000 0.71450  0.57390  0.83580  Biso   1.000  N
  N44      1.0000 0.72710  0.54370  0.90960  Biso   1.000  N
  N45      1.0000 0.93380  0.66460  0.59170  Biso   1.000  N
  C95      1.0000 0.88370  0.59410  0.98340  Biso   1.000  C
  C96      1.0000 0.91210  0.57390  0.06750  Biso   1.000  C
  H110     1.0000 0.94830  0.58630  0.11430  Biso   1.000  H
  C97      1.0000 0.87570  0.53110  0.06870  Biso   1.000  C
  C98      1.0000 0.90510  0.64020  0.94880  Biso   1.000  C
  H111     1.0000 0.88340  0.68180  0.92780  Biso   1.000  H
  H112     1.0000 0.94370  0.65100  0.99400  Biso   1.000  H
  H113     1.0000 0.90190  0.61760  0.90210  Biso   1.000  H
  C99      1.0000 0.88610  0.49460  0.14390  Biso   1.000  C
  H114     1.0000 0.88540  0.44590  0.13530  Biso   1.000  H
  H115     1.0000 0.92220  0.50760  0.19560  Biso   1.000  H
  H116     1.0000 0.85750  0.50660  0.14950  Biso   1.000  H
  C100     1.0000 0.75360  0.38690  0.78890  Biso   1.000  C
  C101     1.0000 0.74710  0.33910  0.83000  Biso   1.000  C
  H117     1.0000 0.74130  0.29260  0.81630  Biso   1.000  H
  C102     1.0000 0.75030  0.36870  0.89400  Biso   1.000  C
  C103     1.0000 0.75770  0.37320  0.71480  Biso   1.000  C
  H118     1.0000 0.79520  0.38230  0.73480  Biso   1.000  H
  H119     1.0000 0.74840  0.32600  0.69690  Biso   1.000  H
  H120     1.0000 0.73200  0.40270  0.66660  Biso   1.000  H
  C104     1.0000 0.74500  0.33730  0.95800  Biso   1.000  C
  H121     1.0000 0.72360  0.36710  0.96700  Biso   1.000  H
  H122     1.0000 0.72630  0.29370  0.93660  Biso   1.000  H
  H123     1.0000 0.78170  0.33060  0.01190  Biso   1.000  H
  C105     1.0000 0.66830  0.61360  0.80500  Biso   1.000  C
  C106     1.0000 0.65270  0.60550  0.85890  Biso   1.000  C
  H124     1.0000 0.62200  0.62550  0.85190  Biso   1.000  H
  C107     1.0000 0.69120  0.56280  0.92340  Biso   1.000  C
  C108     1.0000 0.63760  0.65390  0.72450  Biso   1.000  C
  H125     1.0000 0.62560  0.62420  0.67670  Biso   1.000  H
  H126     1.0000 0.60540  0.67480  0.71520  Biso   1.000  H
  H127     1.0000 0.66160  0.68910  0.72910  Biso   1.000  H
  C109     1.0000 0.69260  0.53550  0.99510  Biso   1.000  C
  H128     1.0000 0.72610  0.55080  0.04930  Biso   1.000  H
  H129     1.0000 0.66040  0.55160  0.98950  Biso   1.000  H
  H130     1.0000 0.69210  0.48610  0.99310  Biso   1.000  H
  C110     1.0000 0.98600  0.63910  0.64220  Biso   1.000  C
  H131     1.0000 0.01090  0.65530  0.69870  Biso   1.000  H
  C111     1.0000 0.00430  0.58950  0.61330  Biso   1.000  C
  H132     1.0000 0.04080  0.57280  0.64950  Biso   1.000  H
  C112     1.0000 0.96580  0.56510  0.52730  Biso   1.000  C
  C113     1.0000 0.91470  0.59350  0.47820  Biso   1.000  C
  H133     1.0000 0.88950  0.57990  0.42060  Biso   1.000  H
  C114     1.0000 0.89810  0.64190  0.50960  Biso   1.000  C
  H134     1.0000 0.86180  0.65930  0.47360  Biso   1.000  H
  C115     1.0000 0.97860  0.51600  0.48210  Biso   1.000  C
  H135     1.0000 0.95170  0.51000  0.42270  Biso   1.000  H
  N46      1.0000 0.87010  0.70170  0.67570  Biso   1.000  N
  C116     1.0000 0.85310  0.67370  0.70630  Biso   1.000  C
  N47      1.0000 0.64050  0.70620  0.48140  Biso   1.000  N
  C117     1.0000 0.66380  0.67820  0.54550  Biso   1.000  C
  N48      1.0000 0.97690  0.78700  0.72150  Biso   1.000  N
  C118     1.0000 0.02310  0.78700  0.77850  Biso   1.000  C
  W6       1.0000 0.26542  0.05516  0.78851  Biso   1.000  W
  S16      1.0000 0.32934  0.01670  0.77514  Biso   1.000  S
  S17      1.0000 0.18716  0.02506  0.66145  Biso   1.000  S
  S18      1.0000 0.26876  0.17284  0.78035  Biso   1.000  S
  Cu16     1.0000 0.31961  0.12610  0.74657  Biso   1.000  Cu
  Cu17     1.0000 0.20374  0.13159  0.65045  Biso   1.000  Cu
  Cu18     1.0000 0.40529  0.24623  0.62978  Biso   1.000  Cu
  B6       1.0000 0.27460  0.99170  0.95750  Biso   1.000  B
  H136     1.0000 0.27600  0.97100  0.00500  Biso   1.000  H
  N49      1.0000 0.33170  0.06330  0.93230  Biso   1.000  N
  N50      1.0000 0.32960  0.02550  0.98930  Biso   1.000  N
  N51      1.0000 0.26320  0.94750  0.82620  Biso   1.000  N
  N52      1.0000 0.26150  0.93500  0.89480  Biso   1.000  N
  N53      1.0000 0.21450  0.07390  0.83580  Biso   1.000  N
  N54      1.0000 0.22710  0.04370  0.90960  Biso   1.000  N
  N55      1.0000 0.43380  0.16460  0.59170  Biso   1.000  N
  C119     1.0000 0.38370  0.09410  0.98340  Biso   1.000  C
  C120     1.0000 0.41210  0.07390  0.06750  Biso   1.000  C
  H137     1.0000 0.44830  0.08630  0.11430  Biso   1.000  H
  C121     1.0000 0.37570  0.03110  0.06870  Biso   1.000  C
  C122     1.0000 0.40510  0.14020  0.94880  Biso   1.000  C
  H138     1.0000 0.38340  0.18180  0.92780  Biso   1.000  H
  H139     1.0000 0.44370  0.15100  0.99400  Biso   1.000  H
  H140     1.0000 0.40190  0.11760  0.90210  Biso   1.000  H
  C123     1.0000 0.38610  0.99460  0.14390  Biso   1.000  C
  H141     1.0000 0.38540  0.94590  0.13530  Biso   1.000  H
  H142     1.0000 0.42220  0.00760  0.19560  Biso   1.000  H
  H143     1.0000 0.35750  0.00660  0.14950  Biso   1.000  H
  C124     1.0000 0.25360  0.88690  0.78890  Biso   1.000  C
  C125     1.0000 0.24710  0.83910  0.83000  Biso   1.000  C
  H144     1.0000 0.24130  0.79260  0.81630  Biso   1.000  H
  C126     1.0000 0.25030  0.86870  0.89400  Biso   1.000  C
  C127     1.0000 0.25770  0.87320  0.71480  Biso   1.000  C
  H145     1.0000 0.29520  0.88230  0.73480  Biso   1.000  H
  H146     1.0000 0.24840  0.82600  0.69690  Biso   1.000  H
  H147     1.0000 0.23200  0.90270  0.66660  Biso   1.000  H
  C128     1.0000 0.24500  0.83730  0.95800  Biso   1.000  C
  H148     1.0000 0.22360  0.86710  0.96700  Biso   1.000  H
  H149     1.0000 0.22630  0.79370  0.93660  Biso   1.000  H
  H150     1.0000 0.28170  0.83060  0.01190  Biso   1.000  H
  C129     1.0000 0.16830  0.11360  0.80500  Biso   1.000  C
  C130     1.0000 0.15270  0.10550  0.85890  Biso   1.000  C
  H151     1.0000 0.12200  0.12550  0.85190  Biso   1.000  H
  C131     1.0000 0.19120  0.06280  0.92340  Biso   1.000  C
  C132     1.0000 0.13760  0.15390  0.72450  Biso   1.000  C
  H152     1.0000 0.12560  0.12420  0.67670  Biso   1.000  H
  H153     1.0000 0.10540  0.17480  0.71520  Biso   1.000  H
  H154     1.0000 0.16160  0.18910  0.72910  Biso   1.000  H
  C133     1.0000 0.19260  0.03550  0.99510  Biso   1.000  C
  H155     1.0000 0.22610  0.05080  0.04930  Biso   1.000  H
  H156     1.0000 0.16040  0.05160  0.98950  Biso   1.000  H
  H157     1.0000 0.19210  0.98610  0.99310  Biso   1.000  H
  C134     1.0000 0.48600  0.13910  0.64220  Biso   1.000  C
  H158     1.0000 0.51090  0.15530  0.69870  Biso   1.000  H
  C135     1.0000 0.50430  0.08950  0.61330  Biso   1.000  C
  H159     1.0000 0.54080  0.07280  0.64950  Biso   1.000  H
  C136     1.0000 0.46580  0.06510  0.52730  Biso   1.000  C
  C137     1.0000 0.41470  0.09350  0.47820  Biso   1.000  C
  H160     1.0000 0.38950  0.07990  0.42060  Biso   1.000  H
  C138     1.0000 0.39810  0.14190  0.50960  Biso   1.000  C
  H161     1.0000 0.36180  0.15930  0.47360  Biso   1.000  H
  C139     1.0000 0.47860  0.01600  0.48210  Biso   1.000  C
  H162     1.0000 0.45170  0.01000  0.42270  Biso   1.000  H
  N56      1.0000 0.37010  0.20170  0.67570  Biso   1.000  N
  C140     1.0000 0.35310  0.17370  0.70630  Biso   1.000  C
  N57      1.0000 0.14050  0.20620  0.48140  Biso   1.000  N
  C141     1.0000 0.16380  0.17820  0.54550  Biso   1.000  C
  N58      1.0000 0.47690  0.28700  0.72150  Biso   1.000  N
  C142     1.0000 0.52310  0.28700  0.77850  Biso   1.000  C
  W7       1.0000 0.23458  0.55516  0.71149  Biso   1.000  W
  S19      1.0000 0.17066  0.51670  0.72486  Biso   1.000  S
  S20      1.0000 0.31284  0.52506  0.83855  Biso   1.000  S
  S21      1.0000 0.23124  0.67284  0.71965  Biso   1.000  S
  Cu19     1.0000 0.18039  0.62610  0.75343  Biso   1.000  Cu
  Cu20     1.0000 0.29626  0.63159  0.84955  Biso   1.000  Cu
  Cu21     1.0000 0.09471  0.74623  0.87022  Biso   1.000  Cu
  B7       1.0000 0.22540  0.49170  0.54250  Biso   1.000  B
  H163     1.0000 0.22400  0.47100  0.49500  Biso   1.000  H
  N59      1.0000 0.16830  0.56330  0.56770  Biso   1.000  N
  N60      1.0000 0.17040  0.52550  0.51070  Biso   1.000  N
  N61      1.0000 0.23680  0.44750  0.67380  Biso   1.000  N
  N62      1.0000 0.23850  0.43500  0.60520  Biso   1.000  N
  N63      1.0000 0.28550  0.57390  0.66420  Biso   1.000  N
  N64      1.0000 0.27290  0.54370  0.59040  Biso   1.000  N
  N65      1.0000 0.06620  0.66460  0.90830  Biso   1.000  N
  C143     1.0000 0.11630  0.59410  0.51660  Biso   1.000  C
  C144     1.0000 0.08790  0.57390  0.43250  Biso   1.000  C
  H164     1.0000 0.05170  0.58630  0.38570  Biso   1.000  H
  C145     1.0000 0.12430  0.53110  0.43130  Biso   1.000  C
  C146     1.0000 0.09490  0.64020  0.55120  Biso   1.000  C
  H165     1.0000 0.11660  0.68180  0.57220  Biso   1.000  H
  H166     1.0000 0.05630  0.65100  0.50600  Biso   1.000  H
  H167     1.0000 0.09810  0.61760  0.59790  Biso   1.000  H
  C147     1.0000 0.11390  0.49460  0.35610  Biso   1.000  C
  H168     1.0000 0.11460  0.44590  0.36470  Biso   1.000  H
  H169     1.0000 0.07780  0.50760  0.30440  Biso   1.000  H
  H170     1.0000 0.14250  0.50660  0.35050  Biso   1.000  H
  C148     1.0000 0.24640  0.38690  0.71110  Biso   1.000  C
  C149     1.0000 0.25290  0.33910  0.67000  Biso   1.000  C
  H171     1.0000 0.25870  0.29260  0.68370  Biso   1.000  H
  C150     1.0000 0.24970  0.36870  0.60600  Biso   1.000  C
  C151     1.0000 0.24230  0.37320  0.78520  Biso   1.000  C
  H172     1.0000 0.20480  0.38230  0.76520  Biso   1.000  H
  H173     1.0000 0.25160  0.32600  0.80310  Biso   1.000  H
  H174     1.0000 0.26800  0.40270  0.83340  Biso   1.000  H
  C152     1.0000 0.25500  0.33730  0.54200  Biso   1.000  C
  H175     1.0000 0.27640  0.36710  0.53300  Biso   1.000  H
  H176     1.0000 0.27370  0.29370  0.56340  Biso   1.000  H
  H177     1.0000 0.21830  0.33060  0.48810  Biso   1.000  H
  C153     1.0000 0.33170  0.61360  0.69500  Biso   1.000  C
  C154     1.0000 0.34730  0.60550  0.64110  Biso   1.000  C
  H178     1.0000 0.37800  0.62550  0.64810  Biso   1.000  H
  C155     1.0000 0.30880  0.56280  0.57660  Biso   1.000  C
  C156     1.0000 0.36240  0.65390  0.77550  Biso   1.000  C
  H179     1.0000 0.37440  0.62420  0.82330  Biso   1.000  H
  H180     1.0000 0.39460  0.67480  0.78480  Biso   1.000  H
  H181     1.0000 0.33840  0.68910  0.77090  Biso   1.000  H
  C157     1.0000 0.30740  0.53550  0.50490  Biso   1.000  C
  H182     1.0000 0.27390  0.55080  0.45070  Biso   1.000  H
  H183     1.0000 0.33960  0.55160  0.51050  Biso   1.000  H
  H184     1.0000 0.30790  0.48610  0.50690  Biso   1.000  H
  C158     1.0000 0.01400  0.63910  0.85780  Biso   1.000  C
  H185     1.0000 0.98910  0.65530  0.80130  Biso   1.000  H
  C159     1.0000 0.99570  0.58950  0.88670  Biso   1.000  C
  H186     1.0000 0.95920  0.57280  0.85050  Biso   1.000  H
  C160     1.0000 0.03420  0.56510  0.97270  Biso   1.000  C
  C161     1.0000 0.08530  0.59350  0.02180  Biso   1.000  C
  H187     1.0000 0.11050  0.57990  0.07940  Biso   1.000  H
  C162     1.0000 0.10190  0.64190  0.99040  Biso   1.000  C
  H188     1.0000 0.13820  0.65930  0.02640  Biso   1.000  H
  C163     1.0000 0.02140  0.51600  0.01790  Biso   1.000  C
  H189     1.0000 0.04830  0.51000  0.07730  Biso   1.000  H
  N66      1.0000 0.12990  0.70170  0.82430  Biso   1.000  N
  C164     1.0000 0.14690  0.67370  0.79370  Biso   1.000  C
  N67      1.0000 0.35950  0.70620  0.01860  Biso   1.000  N
  C165     1.0000 0.33620  0.67820  0.95450  Biso   1.000  C
  W8       1.0000 0.73458  0.05516  0.71149  Biso   1.000  W
  S22      1.0000 0.67066  0.01670  0.72486  Biso   1.000  S
  S23      1.0000 0.81284  0.02506  0.83855  Biso   1.000  S
  S24      1.0000 0.73124  0.17284  0.71965  Biso   1.000  S
  Cu22     1.0000 0.68039  0.12610  0.75343  Biso   1.000  Cu
  Cu23     1.0000 0.79626  0.13159  0.84955  Biso   1.000  Cu
  Cu24     1.0000 0.59471  0.24623  0.87022  Biso   1.000  Cu
  B8       1.0000 0.72540  0.99170  0.54250  Biso   1.000  B
  H190     1.0000 0.72400  0.97100  0.49500  Biso   1.000  H
  N68      1.0000 0.66830  0.06330  0.56770  Biso   1.000  N
  N69      1.0000 0.67040  0.02550  0.51070  Biso   1.000  N
  N70      1.0000 0.73680  0.94750  0.67380  Biso   1.000  N
  N71      1.0000 0.73850  0.93500  0.60520  Biso   1.000  N
  N72      1.0000 0.78550  0.07390  0.66420  Biso   1.000  N
  N73      1.0000 0.77290  0.04370  0.59040  Biso   1.000  N
  N74      1.0000 0.56620  0.16460  0.90830  Biso   1.000  N
  C166     1.0000 0.61630  0.09410  0.51660  Biso   1.000  C
  C167     1.0000 0.58790  0.07390  0.43250  Biso   1.000  C
  H191     1.0000 0.55170  0.08630  0.38570  Biso   1.000  H
  C168     1.0000 0.62430  0.03110  0.43130  Biso   1.000  C
  C169     1.0000 0.59490  0.14020  0.55120  Biso   1.000  C
  H192     1.0000 0.61660  0.18180  0.57220  Biso   1.000  H
  H193     1.0000 0.55630  0.15100  0.50600  Biso   1.000  H
  H194     1.0000 0.59810  0.11760  0.59790  Biso   1.000  H
  C170     1.0000 0.61390  0.99460  0.35610  Biso   1.000  C
  H195     1.0000 0.61460  0.94590  0.36470  Biso   1.000  H
  H196     1.0000 0.57780  0.00760  0.30440  Biso   1.000  H
  H197     1.0000 0.64250  0.00660  0.35050  Biso   1.000  H
  C171     1.0000 0.74640  0.88690  0.71110  Biso   1.000  C
  C172     1.0000 0.75290  0.83910  0.67000  Biso   1.000  C
  H198     1.0000 0.75870  0.79260  0.68370  Biso   1.000  H
  C173     1.0000 0.74970  0.86870  0.60600  Biso   1.000  C
  C174     1.0000 0.74230  0.87320  0.78520  Biso   1.000  C
  H199     1.0000 0.70480  0.88230  0.76520  Biso   1.000  H
  H200     1.0000 0.75160  0.82600  0.80310  Biso   1.000  H
  H201     1.0000 0.76800  0.90270  0.83340  Biso   1.000  H
  C175     1.0000 0.75500  0.83730  0.54200  Biso   1.000  C
  H202     1.0000 0.77640  0.86710  0.53300  Biso   1.000  H
  H203     1.0000 0.77370  0.79370  0.56340  Biso   1.000  H
  H204     1.0000 0.71830  0.83060  0.48810  Biso   1.000  H
  C176     1.0000 0.83170  0.11360  0.69500  Biso   1.000  C
  C177     1.0000 0.84730  0.10550  0.64110  Biso   1.000  C
  H205     1.0000 0.87800  0.12550  0.64810  Biso   1.000  H
  C178     1.0000 0.80880  0.06280  0.57660  Biso   1.000  C
  C179     1.0000 0.86240  0.15390  0.77550  Biso   1.000  C
  H206     1.0000 0.87440  0.12420  0.82330  Biso   1.000  H
  H207     1.0000 0.89460  0.17480  0.78480  Biso   1.000  H
  H208     1.0000 0.83840  0.18910  0.77090  Biso   1.000  H
  C180     1.0000 0.80740  0.03550  0.50490  Biso   1.000  C
  H209     1.0000 0.77390  0.05080  0.45070  Biso   1.000  H
  H210     1.0000 0.83960  0.05160  0.51050  Biso   1.000  H
  H211     1.0000 0.80790  0.98610  0.50690  Biso   1.000  H
  C181     1.0000 0.51400  0.13910  0.85780  Biso   1.000  C
  H212     1.0000 0.48910  0.15530  0.80130  Biso   1.000  H
  C182     1.0000 0.49570  0.08950  0.88670  Biso   1.000  C
  H213     1.0000 0.45920  0.07280  0.85050  Biso   1.000  H
  C183     1.0000 0.53420  0.06510  0.97270  Biso   1.000  C
  C184     1.0000 0.58530  0.09350  0.02180  Biso   1.000  C
  H214     1.0000 0.61050  0.07990  0.07940  Biso   1.000  H
  C185     1.0000 0.60190  0.14190  0.99040  Biso   1.000  C
  H215     1.0000 0.63820  0.15930  0.02640  Biso   1.000  H
  C186     1.0000 0.52140  0.01600  0.01790  Biso   1.000  C
  H216     1.0000 0.54830  0.01000  0.07730  Biso   1.000  H
  N75      1.0000 0.62990  0.20170  0.82430  Biso   1.000  N
  C187     1.0000 0.64690  0.17370  0.79370  Biso   1.000  C
  N76      1.0000 0.85950  0.20620  0.01860  Biso   1.000  N
  C188     1.0000 0.83620  0.17820  0.95450  Biso   1.000  C
