data_image0
_cell_length_a       18.3666
_cell_length_b       18.3666
_cell_length_c       18.3666
_cell_angle_alpha    60.0554
_cell_angle_beta     60.0554
_cell_angle_gamma    60.0554

_symmetry_space_group_name_H-M    P 1
_symmetry_int_tables_number       1

loop_
  _symmetry_equiv_pos_as_xyz
  'x, y, z'

loop_
  _atom_site_label
  _atom_site_occupancy
  _atom_site_fract_x
  _atom_site_fract_y
  _atom_site_fract_z
  _atom_site_thermal_displace_type
  _atom_site_B_iso_or_equiv
  _atom_site_type_symbol
  Zn1      1.0000 0.61047  0.78424  0.61047  Biso   1.000  Zn
  Zn2      1.0000 0.19740  0.02347  0.19740  Biso   1.000  Zn
  Zn3      1.0000 0.61047  0.61047  0.78424  Biso   1.000  Zn
  Zn4      1.0000 0.19740  0.19741  0.02347  Biso   1.000  Zn
  Zn5      1.0000 0.78424  0.61047  0.61047  Biso   1.000  Zn
  Zn6      1.0000 0.02347  0.19741  0.19740  Biso   1.000  Zn
  Zn7      1.0000 0.61011  0.61011  0.61011  Biso   1.000  Zn
  Zn8      1.0000 0.19754  0.19754  0.19754  Biso   1.000  Zn
  H1       1.0000 0.35690  0.83960  0.05730  Biso   1.000  H
  H2       1.0000 0.44620  0.75090  0.96820  Biso   1.000  H
  H3       1.0000 0.05730  0.35690  0.83960  Biso   1.000  H
  H4       1.0000 0.96820  0.44620  0.75090  Biso   1.000  H
  H5       1.0000 0.83960  0.05730  0.35690  Biso   1.000  H
  H6       1.0000 0.75090  0.96820  0.44620  Biso   1.000  H
  H7       1.0000 0.83960  0.35690  0.05730  Biso   1.000  H
  H8       1.0000 0.75090  0.44620  0.96820  Biso   1.000  H
  H9       1.0000 0.35690  0.05730  0.83960  Biso   1.000  H
  H10      1.0000 0.44620  0.96820  0.75090  Biso   1.000  H
  H11      1.0000 0.05730  0.83960  0.35690  Biso   1.000  H
  H12      1.0000 0.96820  0.75090  0.44620  Biso   1.000  H
  H13      1.0000 0.35940  0.05620  0.35940  Biso   1.000  H
  H14      1.0000 0.44800  0.96810  0.44800  Biso   1.000  H
  H15      1.0000 0.35920  0.84000  0.35920  Biso   1.000  H
  H16      1.0000 0.44820  0.75080  0.44820  Biso   1.000  H
  H17      1.0000 0.35940  0.35940  0.05620  Biso   1.000  H
  H18      1.0000 0.44800  0.44800  0.96810  Biso   1.000  H
  H19      1.0000 0.35920  0.35920  0.84000  Biso   1.000  H
  H20      1.0000 0.44820  0.44820  0.75080  Biso   1.000  H
  H21      1.0000 0.05620  0.35940  0.35940  Biso   1.000  H
  H22      1.0000 0.96810  0.44800  0.44800  Biso   1.000  H
  H23      1.0000 0.84000  0.35920  0.35920  Biso   1.000  H
  H24      1.0000 0.75080  0.44820  0.44820  Biso   1.000  H
  C1       1.0000 0.37541  0.86591  0.99571  Biso   1.000  C
  C2       1.0000 0.42915  0.81265  0.94195  Biso   1.000  C
  C3       1.0000 0.99571  0.37541  0.86591  Biso   1.000  C
  C4       1.0000 0.94195  0.42915  0.81265  Biso   1.000  C
  C5       1.0000 0.86591  0.99571  0.37541  Biso   1.000  C
  C6       1.0000 0.81265  0.94195  0.42915  Biso   1.000  C
  C7       1.0000 0.86591  0.37541  0.99571  Biso   1.000  C
  C8       1.0000 0.81265  0.42915  0.94195  Biso   1.000  C
  C9       1.0000 0.37541  0.99571  0.86591  Biso   1.000  C
  C10      1.0000 0.42915  0.94195  0.81265  Biso   1.000  C
  C11      1.0000 0.99571  0.86591  0.37541  Biso   1.000  C
  C12      1.0000 0.94195  0.81265  0.42915  Biso   1.000  C
  C13      1.0000 0.29181  0.01633  0.29181  Biso   1.000  C
  C14      1.0000 0.35013  0.95741  0.35013  Biso   1.000  C
  C15      1.0000 0.37703  0.99463  0.37703  Biso   1.000  C
  C16      1.0000 0.43056  0.94136  0.43056  Biso   1.000  C
  C17      1.0000 0.37700  0.86620  0.37700  Biso   1.000  C
  C18      1.0000 0.43048  0.81258  0.43048  Biso   1.000  C
  C19      1.0000 0.45782  0.85069  0.45782  Biso   1.000  C
  C20      1.0000 0.51556  0.79212  0.51556  Biso   1.000  C
  C21      1.0000 0.29181  0.29181  0.01633  Biso   1.000  C
  C22      1.0000 0.35013  0.35013  0.95741  Biso   1.000  C
  C23      1.0000 0.37703  0.37703  0.99463  Biso   1.000  C
  C24      1.0000 0.43056  0.43056  0.94136  Biso   1.000  C
  C25      1.0000 0.37700  0.37700  0.86620  Biso   1.000  C
  C26      1.0000 0.43048  0.43048  0.81258  Biso   1.000  C
  C27      1.0000 0.45782  0.45782  0.85069  Biso   1.000  C
  C28      1.0000 0.51556  0.51556  0.79212  Biso   1.000  C
  C29      1.0000 0.01633  0.29181  0.29181  Biso   1.000  C
  C30      1.0000 0.95741  0.35013  0.35013  Biso   1.000  C
  C31      1.0000 0.99463  0.37703  0.37703  Biso   1.000  C
  C32      1.0000 0.94136  0.43056  0.43056  Biso   1.000  C
  C33      1.0000 0.86620  0.37700  0.37700  Biso   1.000  C
  C34      1.0000 0.81258  0.43048  0.43048  Biso   1.000  C
  C35      1.0000 0.85069  0.45782  0.45782  Biso   1.000  C
  C36      1.0000 0.79212  0.51556  0.51556  Biso   1.000  C
  C37      1.0000 0.29170  0.01585  0.01585  Biso   1.000  C
  C38      1.0000 0.34919  0.95799  0.95799  Biso   1.000  C
  C39      1.0000 0.45758  0.85008  0.85008  Biso   1.000  C
  C40      1.0000 0.51583  0.79182  0.79182  Biso   1.000  C
  C41      1.0000 0.01585  0.29170  0.01585  Biso   1.000  C
  C42      1.0000 0.95799  0.34919  0.95799  Biso   1.000  C
  C43      1.0000 0.85008  0.45758  0.85008  Biso   1.000  C
  C44      1.0000 0.79182  0.51583  0.79182  Biso   1.000  C
  C45      1.0000 0.01585  0.01585  0.29170  Biso   1.000  C
  C46      1.0000 0.95799  0.95799  0.34919  Biso   1.000  C
  C47      1.0000 0.85008  0.85008  0.45758  Biso   1.000  C
  C48      1.0000 0.79182  0.79182  0.51583  Biso   1.000  C
  O1       1.0000 0.53831  0.83071  0.70901  Biso   1.000  O
  O2       1.0000 0.26975  0.97725  0.09815  Biso   1.000  O
  O3       1.0000 0.70901  0.53831  0.83071  Biso   1.000  O
  O4       1.0000 0.09815  0.26975  0.97725  Biso   1.000  O
  O5       1.0000 0.83071  0.70901  0.53831  Biso   1.000  O
  O6       1.0000 0.97725  0.09815  0.26975  Biso   1.000  O
  O7       1.0000 0.83071  0.53831  0.70901  Biso   1.000  O
  O8       1.0000 0.97725  0.26975  0.09815  Biso   1.000  O
  O9       1.0000 0.53831  0.70901  0.83071  Biso   1.000  O
  O10      1.0000 0.26975  0.09815  0.97725  Biso   1.000  O
  O11      1.0000 0.70901  0.83071  0.53831  Biso   1.000  O
  O12      1.0000 0.09815  0.97725  0.26975  Biso   1.000  O
  O13      1.0000 0.53776  0.83097  0.53776  Biso   1.000  O
  O14      1.0000 0.53751  0.70973  0.53751  Biso   1.000  O
  O15      1.0000 0.27019  0.09815  0.27019  Biso   1.000  O
  O16      1.0000 0.26997  0.97718  0.26997  Biso   1.000  O
  O17      1.0000 0.53776  0.53776  0.83097  Biso   1.000  O
  O18      1.0000 0.53751  0.53751  0.70973  Biso   1.000  O
  O19      1.0000 0.27019  0.27019  0.09815  Biso   1.000  O
  O20      1.0000 0.26997  0.26997  0.97718  Biso   1.000  O
  O21      1.0000 0.83097  0.53776  0.53776  Biso   1.000  O
  O22      1.0000 0.70973  0.53751  0.53751  Biso   1.000  O
  O23      1.0000 0.09815  0.27019  0.27019  Biso   1.000  O
  O24      1.0000 0.97718  0.26997  0.26997  Biso   1.000  O
  O25      1.0000 0.65368  0.65368  0.65368  Biso   1.000  O
  O26      1.0000 0.15433  0.15433  0.15433  Biso   1.000  O
  Zn9      1.0000 0.21576  0.38953  0.38953  Biso   1.000  Zn
  Zn10     1.0000 0.97653  0.80259  0.80259  Biso   1.000  Zn
  Zn11     1.0000 0.38953  0.38953  0.21576  Biso   1.000  Zn
  Zn12     1.0000 0.80259  0.80260  0.97653  Biso   1.000  Zn
  Zn13     1.0000 0.38953  0.21576  0.38953  Biso   1.000  Zn
  Zn14     1.0000 0.80259  0.97653  0.80259  Biso   1.000  Zn
  Zn15     1.0000 0.38989  0.38989  0.38989  Biso   1.000  Zn
  Zn16     1.0000 0.80246  0.80246  0.80246  Biso   1.000  Zn
  H25      1.0000 0.16040  0.64310  0.94270  Biso   1.000  H
  H26      1.0000 0.24910  0.55380  0.03180  Biso   1.000  H
  H27      1.0000 0.64310  0.94270  0.16040  Biso   1.000  H
  H28      1.0000 0.55380  0.03180  0.24910  Biso   1.000  H
  H29      1.0000 0.94270  0.16040  0.64310  Biso   1.000  H
  H30      1.0000 0.03180  0.24910  0.55380  Biso   1.000  H
  H31      1.0000 0.64310  0.16040  0.94270  Biso   1.000  H
  H32      1.0000 0.55380  0.24910  0.03180  Biso   1.000  H
  H33      1.0000 0.94270  0.64310  0.16040  Biso   1.000  H
  H34      1.0000 0.03180  0.55380  0.24910  Biso   1.000  H
  H35      1.0000 0.16040  0.94270  0.64310  Biso   1.000  H
  H36      1.0000 0.24910  0.03180  0.55380  Biso   1.000  H
  H37      1.0000 0.94380  0.64060  0.64060  Biso   1.000  H
  H38      1.0000 0.03190  0.55200  0.55200  Biso   1.000  H
  H39      1.0000 0.16000  0.64080  0.64080  Biso   1.000  H
  H40      1.0000 0.24920  0.55180  0.55180  Biso   1.000  H
  H41      1.0000 0.64060  0.64060  0.94380  Biso   1.000  H
  H42      1.0000 0.55200  0.55200  0.03190  Biso   1.000  H
  H43      1.0000 0.64080  0.64080  0.16000  Biso   1.000  H
  H44      1.0000 0.55180  0.55180  0.24920  Biso   1.000  H
  H45      1.0000 0.64060  0.94380  0.64060  Biso   1.000  H
  H46      1.0000 0.55200  0.03190  0.55200  Biso   1.000  H
  H47      1.0000 0.64080  0.16000  0.64080  Biso   1.000  H
  H48      1.0000 0.55180  0.24920  0.55180  Biso   1.000  H
  C49      1.0000 0.13409  0.62459  0.00429  Biso   1.000  C
  C50      1.0000 0.18735  0.57085  0.05805  Biso   1.000  C
  C51      1.0000 0.62459  0.00429  0.13409  Biso   1.000  C
  C52      1.0000 0.57085  0.05805  0.18735  Biso   1.000  C
  C53      1.0000 0.00429  0.13409  0.62459  Biso   1.000  C
  C54      1.0000 0.05805  0.18735  0.57085  Biso   1.000  C
  C55      1.0000 0.62459  0.13409  0.00429  Biso   1.000  C
  C56      1.0000 0.57085  0.18735  0.05805  Biso   1.000  C
  C57      1.0000 0.00429  0.62459  0.13409  Biso   1.000  C
  C58      1.0000 0.05805  0.57085  0.18735  Biso   1.000  C
  C59      1.0000 0.13409  0.00429  0.62459  Biso   1.000  C
  C60      1.0000 0.18735  0.05805  0.57085  Biso   1.000  C
  C61      1.0000 0.98367  0.70819  0.70819  Biso   1.000  C
  C62      1.0000 0.04259  0.64987  0.64987  Biso   1.000  C
  C63      1.0000 0.00537  0.62297  0.62297  Biso   1.000  C
  C64      1.0000 0.05864  0.56944  0.56944  Biso   1.000  C
  C65      1.0000 0.13380  0.62300  0.62300  Biso   1.000  C
  C66      1.0000 0.18742  0.56952  0.56952  Biso   1.000  C
  C67      1.0000 0.14931  0.54218  0.54218  Biso   1.000  C
  C68      1.0000 0.20788  0.48444  0.48444  Biso   1.000  C
  C69      1.0000 0.70819  0.70819  0.98367  Biso   1.000  C
  C70      1.0000 0.64987  0.64987  0.04259  Biso   1.000  C
  C71      1.0000 0.62297  0.62297  0.00537  Biso   1.000  C
  C72      1.0000 0.56944  0.56944  0.05864  Biso   1.000  C
  C73      1.0000 0.62300  0.62300  0.13380  Biso   1.000  C
  C74      1.0000 0.56952  0.56952  0.18742  Biso   1.000  C
  C75      1.0000 0.54218  0.54218  0.14931  Biso   1.000  C
  C76      1.0000 0.48444  0.48444  0.20788  Biso   1.000  C
  C77      1.0000 0.70819  0.98367  0.70819  Biso   1.000  C
  C78      1.0000 0.64987  0.04259  0.64987  Biso   1.000  C
  C79      1.0000 0.62297  0.00537  0.62297  Biso   1.000  C
  C80      1.0000 0.56944  0.05864  0.56944  Biso   1.000  C
  C81      1.0000 0.62300  0.13380  0.62300  Biso   1.000  C
  C82      1.0000 0.56952  0.18742  0.56952  Biso   1.000  C
  C83      1.0000 0.54218  0.14931  0.54218  Biso   1.000  C
  C84      1.0000 0.48444  0.20788  0.48444  Biso   1.000  C
  C85      1.0000 0.98415  0.70830  0.98415  Biso   1.000  C
  C86      1.0000 0.04201  0.65081  0.04201  Biso   1.000  C
  C87      1.0000 0.14992  0.54242  0.14992  Biso   1.000  C
  C88      1.0000 0.20818  0.48417  0.20818  Biso   1.000  C
  C89      1.0000 0.70830  0.98415  0.98415  Biso   1.000  C
  C90      1.0000 0.65081  0.04201  0.04201  Biso   1.000  C
  C91      1.0000 0.54242  0.14992  0.14992  Biso   1.000  C
  C92      1.0000 0.48417  0.20818  0.20818  Biso   1.000  C
  C93      1.0000 0.98415  0.98415  0.70830  Biso   1.000  C
  C94      1.0000 0.04201  0.04201  0.65081  Biso   1.000  C
  C95      1.0000 0.14992  0.14992  0.54242  Biso   1.000  C
  C96      1.0000 0.20818  0.20818  0.48417  Biso   1.000  C
  O27      1.0000 0.16929  0.46169  0.29099  Biso   1.000  O
  O28      1.0000 0.02275  0.73025  0.90185  Biso   1.000  O
  O29      1.0000 0.46169  0.29099  0.16929  Biso   1.000  O
  O30      1.0000 0.73025  0.90185  0.02275  Biso   1.000  O
  O31      1.0000 0.29099  0.16929  0.46169  Biso   1.000  O
  O32      1.0000 0.90185  0.02275  0.73025  Biso   1.000  O
  O33      1.0000 0.46169  0.16929  0.29099  Biso   1.000  O
  O34      1.0000 0.73025  0.02275  0.90185  Biso   1.000  O
  O35      1.0000 0.29099  0.46169  0.16929  Biso   1.000  O
  O36      1.0000 0.90185  0.73025  0.02275  Biso   1.000  O
  O37      1.0000 0.16929  0.29099  0.46169  Biso   1.000  O
  O38      1.0000 0.02275  0.90185  0.73025  Biso   1.000  O
  O39      1.0000 0.16903  0.46224  0.46224  Biso   1.000  O
  O40      1.0000 0.29027  0.46249  0.46249  Biso   1.000  O
  O41      1.0000 0.90185  0.72981  0.72981  Biso   1.000  O
  O42      1.0000 0.02282  0.73003  0.73003  Biso   1.000  O
  O43      1.0000 0.46224  0.46224  0.16903  Biso   1.000  O
  O44      1.0000 0.46249  0.46249  0.29027  Biso   1.000  O
  O45      1.0000 0.72981  0.72981  0.90185  Biso   1.000  O
  O46      1.0000 0.73003  0.73003  0.02282  Biso   1.000  O
  O47      1.0000 0.46224  0.16903  0.46224  Biso   1.000  O
  O48      1.0000 0.46249  0.29027  0.46249  Biso   1.000  O
  O49      1.0000 0.72981  0.90185  0.72981  Biso   1.000  O
  O50      1.0000 0.73003  0.02282  0.73003  Biso   1.000  O
  O51      1.0000 0.34632  0.34632  0.34632  Biso   1.000  O
  O52      1.0000 0.84567  0.84567  0.84567  Biso   1.000  O
