data_image0
_cell_length_a       13.9985
_cell_length_b       13.9985
_cell_length_c       16.688
_cell_angle_alpha    80.9515
_cell_angle_beta     80.9515
_cell_angle_gamma    61.6348

_symmetry_space_group_name_H-M    P 1
_symmetry_int_tables_number       1

loop_
  _symmetry_equiv_pos_as_xyz
  'x, y, z'

loop_
  _atom_site_label
  _atom_site_occupancy
  _atom_site_fract_x
  _atom_site_fract_y
  _atom_site_fract_z
  _atom_site_thermal_displace_type
  _atom_site_B_iso_or_equiv
  _atom_site_type_symbol
  Fe1      1.0000 0.83911  0.78031  0.41840  Biso   1.000  Fe
  Fe2      1.0000 0.21969  0.16089  0.08160  Biso   1.000  Fe
  Fe3      1.0000 0.16089  0.21969  0.58160  Biso   1.000  Fe
  Fe4      1.0000 0.78031  0.83911  0.91840  Biso   1.000  Fe
  Ni1      1.0000 0.95366  0.59122  0.69343  Biso   1.000  Ni
  Ni2      1.0000 0.40878  0.04634  0.80657  Biso   1.000  Ni
  Ni3      1.0000 0.04634  0.40878  0.30657  Biso   1.000  Ni
  Ni4      1.0000 0.59122  0.95366  0.19343  Biso   1.000  Ni
  Ni5      1.0000 0.10709  0.89291  0.25000  Biso   1.000  Ni
  Ni6      1.0000 0.89291  0.10709  0.75000  Biso   1.000  Ni
  H1       1.0000 0.13520  0.59100  0.65240  Biso   1.000  H
  H2       1.0000 0.07750  0.66810  0.71470  Biso   1.000  H
  H3       1.0000 0.21770  0.44750  0.73950  Biso   1.000  H
  H4       1.0000 0.21720  0.54120  0.78060  Biso   1.000  H
  H5       1.0000 0.09450  0.54510  0.86460  Biso   1.000  H
  H6       1.0000 0.19910  0.43130  0.86260  Biso   1.000  H
  H7       1.0000 0.05300  0.41080  0.89800  Biso   1.000  H
  H8       1.0000 0.11080  0.36080  0.81470  Biso   1.000  H
  H9       1.0000 0.93540  0.54400  0.83920  Biso   1.000  H
  H10      1.0000 0.88380  0.44880  0.88330  Biso   1.000  H
  H11      1.0000 0.94100  0.37240  0.81320  Biso   1.000  H
  H12      1.0000 0.74810  0.53330  0.83500  Biso   1.000  H
  H13      1.0000 0.78890  0.41750  0.80750  Biso   1.000  H
  H14      1.0000 0.77440  0.47700  0.67730  Biso   1.000  H
  H15      1.0000 0.67970  0.58030  0.71780  Biso   1.000  H
  H16      1.0000 0.75730  0.66930  0.67700  Biso   1.000  H
  H17      1.0000 0.81610  0.59010  0.61760  Biso   1.000  H
  H18      1.0000 0.16480  0.86920  0.38950  Biso   1.000  H
  H19      1.0000 0.22270  0.92090  0.33490  Biso   1.000  H
  H20      1.0000 0.09320  0.99420  0.44540  Biso   1.000  H
  H21      1.0000 0.14160  0.05500  0.37820  Biso   1.000  H
  H22      1.0000 0.00150  0.16130  0.37180  Biso   1.000  H
  H23      1.0000 0.95350  0.08830  0.42390  Biso   1.000  H
  H24      1.0000 0.92290  0.17990  0.28360  Biso   1.000  H
  H25      1.0000 0.86510  0.11810  0.33970  Biso   1.000  H
  H26      1.0000 0.40900  0.86480  0.84760  Biso   1.000  H
  H27      1.0000 0.33190  0.92250  0.78530  Biso   1.000  H
  H28      1.0000 0.55250  0.78230  0.76050  Biso   1.000  H
  H29      1.0000 0.45880  0.78280  0.71940  Biso   1.000  H
  H30      1.0000 0.45490  0.90550  0.63540  Biso   1.000  H
  H31      1.0000 0.56870  0.80090  0.63740  Biso   1.000  H
  H32      1.0000 0.58920  0.94700  0.60200  Biso   1.000  H
  H33      1.0000 0.63920  0.88920  0.68530  Biso   1.000  H
  H34      1.0000 0.45600  0.06460  0.66080  Biso   1.000  H
  H35      1.0000 0.55120  0.11620  0.61670  Biso   1.000  H
  H36      1.0000 0.62760  0.05900  0.68680  Biso   1.000  H
  H37      1.0000 0.46670  0.25190  0.66500  Biso   1.000  H
  H38      1.0000 0.58250  0.21110  0.69250  Biso   1.000  H
  H39      1.0000 0.52300  0.22560  0.82270  Biso   1.000  H
  H40      1.0000 0.41970  0.32030  0.78220  Biso   1.000  H
  H41      1.0000 0.33070  0.24270  0.82300  Biso   1.000  H
  H42      1.0000 0.40990  0.18390  0.88240  Biso   1.000  H
  H43      1.0000 0.13080  0.83520  0.11050  Biso   1.000  H
  H44      1.0000 0.07910  0.77730  0.16510  Biso   1.000  H
  H45      1.0000 0.00580  0.90680  0.05460  Biso   1.000  H
  H46      1.0000 0.94500  0.85840  0.12180  Biso   1.000  H
  H47      1.0000 0.83870  0.99850  0.12820  Biso   1.000  H
  H48      1.0000 0.91170  0.04650  0.07610  Biso   1.000  H
  H49      1.0000 0.82010  0.07710  0.21640  Biso   1.000  H
  H50      1.0000 0.88190  0.13490  0.16030  Biso   1.000  H
  H51      1.0000 0.86480  0.40900  0.34760  Biso   1.000  H
  H52      1.0000 0.92250  0.33190  0.28530  Biso   1.000  H
  H53      1.0000 0.78230  0.55250  0.26050  Biso   1.000  H
  H54      1.0000 0.78280  0.45880  0.21940  Biso   1.000  H
  H55      1.0000 0.90550  0.45490  0.13540  Biso   1.000  H
  H56      1.0000 0.80090  0.56870  0.13740  Biso   1.000  H
  H57      1.0000 0.94700  0.58920  0.10200  Biso   1.000  H
  H58      1.0000 0.88920  0.63920  0.18530  Biso   1.000  H
  H59      1.0000 0.06460  0.45600  0.16080  Biso   1.000  H
  H60      1.0000 0.11620  0.55120  0.11670  Biso   1.000  H
  H61      1.0000 0.05900  0.62760  0.18680  Biso   1.000  H
  H62      1.0000 0.25190  0.46670  0.16500  Biso   1.000  H
  H63      1.0000 0.21110  0.58250  0.19250  Biso   1.000  H
  H64      1.0000 0.22560  0.52300  0.32270  Biso   1.000  H
  H65      1.0000 0.32030  0.41970  0.28220  Biso   1.000  H
  H66      1.0000 0.24270  0.33070  0.32300  Biso   1.000  H
  H67      1.0000 0.18390  0.40990  0.38240  Biso   1.000  H
  H68      1.0000 0.83520  0.13080  0.61050  Biso   1.000  H
  H69      1.0000 0.77730  0.07910  0.66510  Biso   1.000  H
  H70      1.0000 0.90680  0.00580  0.55460  Biso   1.000  H
  H71      1.0000 0.85840  0.94500  0.62180  Biso   1.000  H
  H72      1.0000 0.99850  0.83870  0.62820  Biso   1.000  H
  H73      1.0000 0.04650  0.91170  0.57610  Biso   1.000  H
  H74      1.0000 0.07710  0.82010  0.71640  Biso   1.000  H
  H75      1.0000 0.13490  0.88190  0.66030  Biso   1.000  H
  H76      1.0000 0.59100  0.13520  0.15240  Biso   1.000  H
  H77      1.0000 0.66810  0.07750  0.21470  Biso   1.000  H
  H78      1.0000 0.44750  0.21770  0.23950  Biso   1.000  H
  H79      1.0000 0.54120  0.21720  0.28060  Biso   1.000  H
  H80      1.0000 0.54510  0.09450  0.36460  Biso   1.000  H
  H81      1.0000 0.43130  0.19910  0.36260  Biso   1.000  H
  H82      1.0000 0.41080  0.05300  0.39800  Biso   1.000  H
  H83      1.0000 0.36080  0.11080  0.31470  Biso   1.000  H
  H84      1.0000 0.54400  0.93540  0.33920  Biso   1.000  H
  H85      1.0000 0.44880  0.88380  0.38330  Biso   1.000  H
  H86      1.0000 0.37240  0.94100  0.31320  Biso   1.000  H
  H87      1.0000 0.53330  0.74810  0.33500  Biso   1.000  H
  H88      1.0000 0.41750  0.78890  0.30750  Biso   1.000  H
  H89      1.0000 0.47700  0.77440  0.17730  Biso   1.000  H
  H90      1.0000 0.58030  0.67970  0.21780  Biso   1.000  H
  H91      1.0000 0.66930  0.75730  0.17700  Biso   1.000  H
  H92      1.0000 0.59010  0.81610  0.11760  Biso   1.000  H
  H93      1.0000 0.86920  0.16480  0.88950  Biso   1.000  H
  H94      1.0000 0.92090  0.22270  0.83490  Biso   1.000  H
  H95      1.0000 0.99420  0.09320  0.94540  Biso   1.000  H
  H96      1.0000 0.05500  0.14160  0.87820  Biso   1.000  H
  H97      1.0000 0.16130  0.00150  0.87180  Biso   1.000  H
  H98      1.0000 0.08830  0.95350  0.92390  Biso   1.000  H
  H99      1.0000 0.17990  0.92290  0.78360  Biso   1.000  H
  H100     1.0000 0.11810  0.86510  0.83970  Biso   1.000  H
  C1       1.0000 0.90180  0.72800  0.52180  Biso   1.000  C
  C2       1.0000 0.96030  0.80130  0.36470  Biso   1.000  C
  C3       1.0000 0.91480  0.63260  0.38750  Biso   1.000  C
  C4       1.0000 0.76640  0.93100  0.44480  Biso   1.000  C
  C5       1.0000 0.71590  0.75510  0.46500  Biso   1.000  C
  C6       1.0000 0.77160  0.83160  0.31760  Biso   1.000  C
  C7       1.0000 0.17000  0.51300  0.76750  Biso   1.000  C
  C8       1.0000 0.13510  0.48130  0.83350  Biso   1.000  C
  C9       1.0000 0.06880  0.42940  0.84010  Biso   1.000  C
  C10      1.0000 0.89860  0.44920  0.82390  Biso   1.000  C
  C11      1.0000 0.80040  0.48240  0.79680  Biso   1.000  C
  C12      1.0000 0.75890  0.53470  0.71120  Biso   1.000  C
  C13      1.0000 0.09660  0.01720  0.38690  Biso   1.000  C
  C14      1.0000 0.99850  0.09230  0.37360  Biso   1.000  C
  C15      1.0000 0.93590  0.10870  0.31220  Biso   1.000  C
  C16      1.0000 0.27200  0.09820  0.97820  Biso   1.000  C
  C17      1.0000 0.19870  0.03970  0.13530  Biso   1.000  C
  C18      1.0000 0.36740  0.08520  0.11250  Biso   1.000  C
  C19      1.0000 0.06900  0.23360  0.05520  Biso   1.000  C
  C20      1.0000 0.24490  0.28410  0.03500  Biso   1.000  C
  C21      1.0000 0.16840  0.22840  0.18240  Biso   1.000  C
  C22      1.0000 0.48700  0.83000  0.73250  Biso   1.000  C
  C23      1.0000 0.51870  0.86490  0.66650  Biso   1.000  C
  C24      1.0000 0.57060  0.93120  0.65990  Biso   1.000  C
  C25      1.0000 0.55080  0.10140  0.67610  Biso   1.000  C
  C26      1.0000 0.51760  0.19960  0.70320  Biso   1.000  C
  C27      1.0000 0.46530  0.24110  0.78880  Biso   1.000  C
  C28      1.0000 0.98280  0.90340  0.11310  Biso   1.000  C
  C29      1.0000 0.90770  0.00150  0.12640  Biso   1.000  C
  C30      1.0000 0.89130  0.06410  0.18780  Biso   1.000  C
  C31      1.0000 0.09820  0.27200  0.47820  Biso   1.000  C
  C32      1.0000 0.03970  0.19870  0.63530  Biso   1.000  C
  C33      1.0000 0.08520  0.36740  0.61250  Biso   1.000  C
  C34      1.0000 0.23360  0.06900  0.55520  Biso   1.000  C
  C35      1.0000 0.28410  0.24490  0.53500  Biso   1.000  C
  C36      1.0000 0.22840  0.16840  0.68240  Biso   1.000  C
  C37      1.0000 0.83000  0.48700  0.23250  Biso   1.000  C
  C38      1.0000 0.86490  0.51870  0.16650  Biso   1.000  C
  C39      1.0000 0.93120  0.57060  0.15990  Biso   1.000  C
  C40      1.0000 0.10140  0.55080  0.17610  Biso   1.000  C
  C41      1.0000 0.19960  0.51760  0.20320  Biso   1.000  C
  C42      1.0000 0.24110  0.46530  0.28880  Biso   1.000  C
  C43      1.0000 0.90340  0.98280  0.61310  Biso   1.000  C
  C44      1.0000 0.00150  0.90770  0.62640  Biso   1.000  C
  C45      1.0000 0.06410  0.89130  0.68780  Biso   1.000  C
  C46      1.0000 0.72800  0.90180  0.02180  Biso   1.000  C
  C47      1.0000 0.80130  0.96030  0.86470  Biso   1.000  C
  C48      1.0000 0.63260  0.91480  0.88750  Biso   1.000  C
  C49      1.0000 0.93100  0.76640  0.94480  Biso   1.000  C
  C50      1.0000 0.75510  0.71590  0.96500  Biso   1.000  C
  C51      1.0000 0.83160  0.77160  0.81760  Biso   1.000  C
  C52      1.0000 0.51300  0.17000  0.26750  Biso   1.000  C
  C53      1.0000 0.48130  0.13510  0.33350  Biso   1.000  C
  C54      1.0000 0.42940  0.06880  0.34010  Biso   1.000  C
  C55      1.0000 0.44920  0.89860  0.32390  Biso   1.000  C
  C56      1.0000 0.48240  0.80040  0.29680  Biso   1.000  C
  C57      1.0000 0.53470  0.75890  0.21120  Biso   1.000  C
  C58      1.0000 0.01720  0.09660  0.88690  Biso   1.000  C
  C59      1.0000 0.09230  0.99850  0.87360  Biso   1.000  C
  C60      1.0000 0.10870  0.93590  0.81220  Biso   1.000  C
  N1       1.0000 0.93620  0.69100  0.58330  Biso   1.000  N
  N2       1.0000 0.02810  0.81850  0.32800  Biso   1.000  N
  N3       1.0000 0.96070  0.54750  0.36680  Biso   1.000  N
  N4       1.0000 0.72510  0.02050  0.45690  Biso   1.000  N
  N5       1.0000 0.64810  0.73310  0.49030  Biso   1.000  N
  N6       1.0000 0.72590  0.86630  0.26030  Biso   1.000  N
  N7       1.0000 0.09580  0.60020  0.70200  Biso   1.000  N
  N8       1.0000 0.96800  0.48960  0.80460  Biso   1.000  N
  N9       1.0000 0.80840  0.59900  0.67140  Biso   1.000  N
  N10      1.0000 0.15550  0.92530  0.35040  Biso   1.000  N
  N11      1.0000 0.30900  0.06380  0.91670  Biso   1.000  N
  N12      1.0000 0.18150  0.97190  0.17200  Biso   1.000  N
  N13      1.0000 0.45250  0.03930  0.13320  Biso   1.000  N
  N14      1.0000 0.97950  0.27490  0.04310  Biso   1.000  N
  N15      1.0000 0.26690  0.35190  0.00970  Biso   1.000  N
  N16      1.0000 0.13370  0.27410  0.23970  Biso   1.000  N
  N17      1.0000 0.39980  0.90420  0.79800  Biso   1.000  N
  N18      1.0000 0.51040  0.03200  0.69540  Biso   1.000  N
  N19      1.0000 0.40100  0.19160  0.82860  Biso   1.000  N
  N20      1.0000 0.07470  0.84450  0.14960  Biso   1.000  N
  N21      1.0000 0.06380  0.30900  0.41670  Biso   1.000  N
  N22      1.0000 0.97190  0.18150  0.67200  Biso   1.000  N
  N23      1.0000 0.03930  0.45250  0.63320  Biso   1.000  N
  N24      1.0000 0.27490  0.97950  0.54310  Biso   1.000  N
  N25      1.0000 0.35190  0.26690  0.50970  Biso   1.000  N
  N26      1.0000 0.27410  0.13370  0.73970  Biso   1.000  N
  N27      1.0000 0.90420  0.39980  0.29800  Biso   1.000  N
  N28      1.0000 0.03200  0.51040  0.19540  Biso   1.000  N
  N29      1.0000 0.19160  0.40100  0.32860  Biso   1.000  N
  N30      1.0000 0.84450  0.07470  0.64960  Biso   1.000  N
  N31      1.0000 0.69100  0.93620  0.08330  Biso   1.000  N
  N32      1.0000 0.81850  0.02810  0.82800  Biso   1.000  N
  N33      1.0000 0.54750  0.96070  0.86680  Biso   1.000  N
  N34      1.0000 0.02050  0.72510  0.95690  Biso   1.000  N
  N35      1.0000 0.73310  0.64810  0.99030  Biso   1.000  N
  N36      1.0000 0.86630  0.72590  0.76030  Biso   1.000  N
  N37      1.0000 0.60020  0.09580  0.20200  Biso   1.000  N
  N38      1.0000 0.48960  0.96800  0.30460  Biso   1.000  N
  N39      1.0000 0.59900  0.80840  0.17140  Biso   1.000  N
  N40      1.0000 0.92530  0.15550  0.85040  Biso   1.000  N
  N41      1.0000 0.96000  0.04000  0.25000  Biso   1.000  N
  N42      1.0000 0.04000  0.96000  0.75000  Biso   1.000  N
  O1       1.0000 0.25460  0.74540  0.25000  Biso   1.000  O
  O2       1.0000 0.74540  0.25460  0.75000  Biso   1.000  O
