data_image0
_cell_length_a       17.058
_cell_length_b       19.073
_cell_length_c       19.073
_cell_angle_alpha    90
_cell_angle_beta     90
_cell_angle_gamma    90

_symmetry_space_group_name_H-M    P 1
_symmetry_int_tables_number       1

loop_
  _symmetry_equiv_pos_as_xyz
  'x, y, z'

loop_
  _atom_site_label
  _atom_site_occupancy
  _atom_site_fract_x
  _atom_site_fract_y
  _atom_site_fract_z
  _atom_site_thermal_displace_type
  _atom_site_B_iso_or_equiv
  _atom_site_type_symbol
  Zn1      1.0000 0.82358  0.88612  0.33491  Biso   1.000  Zn
  Zn2      1.0000 0.82358  0.11388  0.66509  Biso   1.000  Zn
  Zn3      1.0000 0.32358  0.16509  0.38612  Biso   1.000  Zn
  Zn4      1.0000 0.32358  0.83491  0.61388  Biso   1.000  Zn
  Zn5      1.0000 0.67642  0.61388  0.83491  Biso   1.000  Zn
  Zn6      1.0000 0.67642  0.38612  0.16509  Biso   1.000  Zn
  Zn7      1.0000 0.17642  0.33491  0.88612  Biso   1.000  Zn
  Zn8      1.0000 0.17642  0.66509  0.11388  Biso   1.000  Zn
  Zn9      1.0000 0.17642  0.11388  0.66509  Biso   1.000  Zn
  Zn10     1.0000 0.17642  0.88612  0.33491  Biso   1.000  Zn
  Zn11     1.0000 0.67642  0.83491  0.61388  Biso   1.000  Zn
  Zn12     1.0000 0.67642  0.16509  0.38612  Biso   1.000  Zn
  Zn13     1.0000 0.32358  0.38612  0.16509  Biso   1.000  Zn
  Zn14     1.0000 0.32358  0.61388  0.83491  Biso   1.000  Zn
  Zn15     1.0000 0.82358  0.66509  0.11388  Biso   1.000  Zn
  Zn16     1.0000 0.82358  0.33491  0.88612  Biso   1.000  Zn
  H1       1.0000 0.92860  0.77030  0.40630  Biso   1.000  H
  H2       1.0000 0.69140  0.87570  0.21510  Biso   1.000  H
  H3       1.0000 0.85690  0.02270  0.23780  Biso   1.000  H
  H4       1.0000 0.71150  0.75520  0.36590  Biso   1.000  H
  H5       1.0000 0.71810  0.00290  0.39720  Biso   1.000  H
  H6       1.0000 0.92860  0.22970  0.59370  Biso   1.000  H
  H7       1.0000 0.69140  0.12430  0.78490  Biso   1.000  H
  H8       1.0000 0.85690  0.97730  0.76220  Biso   1.000  H
  H9       1.0000 0.71150  0.24480  0.63410  Biso   1.000  H
  H10      1.0000 0.71810  0.99710  0.60280  Biso   1.000  H
  H11      1.0000 0.42860  0.09370  0.27030  Biso   1.000  H
  H12      1.0000 0.19140  0.28490  0.37570  Biso   1.000  H
  H13      1.0000 0.35690  0.26220  0.52270  Biso   1.000  H
  H14      1.0000 0.21150  0.13410  0.25520  Biso   1.000  H
  H15      1.0000 0.21810  0.10280  0.50290  Biso   1.000  H
  H16      1.0000 0.42860  0.90630  0.72970  Biso   1.000  H
  H17      1.0000 0.19140  0.71510  0.62430  Biso   1.000  H
  H18      1.0000 0.35690  0.73780  0.47730  Biso   1.000  H
  H19      1.0000 0.21150  0.86590  0.74480  Biso   1.000  H
  H20      1.0000 0.21810  0.89720  0.49710  Biso   1.000  H
  H21      1.0000 0.57140  0.72970  0.90630  Biso   1.000  H
  H22      1.0000 0.80860  0.62430  0.71510  Biso   1.000  H
  H23      1.0000 0.64310  0.47730  0.73780  Biso   1.000  H
  H24      1.0000 0.78850  0.74480  0.86590  Biso   1.000  H
  H25      1.0000 0.78190  0.49710  0.89720  Biso   1.000  H
  H26      1.0000 0.57140  0.27030  0.09370  Biso   1.000  H
  H27      1.0000 0.80860  0.37570  0.28490  Biso   1.000  H
  H28      1.0000 0.64310  0.52270  0.26220  Biso   1.000  H
  H29      1.0000 0.78850  0.25520  0.13410  Biso   1.000  H
  H30      1.0000 0.78190  0.50290  0.10280  Biso   1.000  H
  H31      1.0000 0.07140  0.40630  0.77030  Biso   1.000  H
  H32      1.0000 0.30860  0.21510  0.87570  Biso   1.000  H
  H33      1.0000 0.14310  0.23780  0.02270  Biso   1.000  H
  H34      1.0000 0.28850  0.36590  0.75520  Biso   1.000  H
  H35      1.0000 0.28190  0.39720  0.00290  Biso   1.000  H
  H36      1.0000 0.07140  0.59370  0.22970  Biso   1.000  H
  H37      1.0000 0.30860  0.78490  0.12430  Biso   1.000  H
  H38      1.0000 0.14310  0.76220  0.97730  Biso   1.000  H
  H39      1.0000 0.28850  0.63410  0.24480  Biso   1.000  H
  H40      1.0000 0.28190  0.60280  0.99710  Biso   1.000  H
  H41      1.0000 0.07140  0.22970  0.59370  Biso   1.000  H
  H42      1.0000 0.30860  0.12430  0.78490  Biso   1.000  H
  H43      1.0000 0.14310  0.97730  0.76220  Biso   1.000  H
  H44      1.0000 0.28850  0.24480  0.63410  Biso   1.000  H
  H45      1.0000 0.28190  0.99710  0.60280  Biso   1.000  H
  H46      1.0000 0.07140  0.77030  0.40630  Biso   1.000  H
  H47      1.0000 0.30860  0.87570  0.21510  Biso   1.000  H
  H48      1.0000 0.14310  0.02270  0.23780  Biso   1.000  H
  H49      1.0000 0.28850  0.75520  0.36590  Biso   1.000  H
  H50      1.0000 0.28190  0.00290  0.39720  Biso   1.000  H
  H51      1.0000 0.57140  0.90630  0.72970  Biso   1.000  H
  H52      1.0000 0.80860  0.71510  0.62430  Biso   1.000  H
  H53      1.0000 0.64310  0.73780  0.47730  Biso   1.000  H
  H54      1.0000 0.78850  0.86590  0.74480  Biso   1.000  H
  H55      1.0000 0.78190  0.89720  0.49710  Biso   1.000  H
  H56      1.0000 0.57140  0.09370  0.27030  Biso   1.000  H
  H57      1.0000 0.80860  0.28490  0.37570  Biso   1.000  H
  H58      1.0000 0.64310  0.26220  0.52270  Biso   1.000  H
  H59      1.0000 0.78850  0.13410  0.25520  Biso   1.000  H
  H60      1.0000 0.78190  0.10280  0.50290  Biso   1.000  H
  H61      1.0000 0.42860  0.27030  0.09370  Biso   1.000  H
  H62      1.0000 0.19140  0.37570  0.28490  Biso   1.000  H
  H63      1.0000 0.35690  0.52270  0.26220  Biso   1.000  H
  H64      1.0000 0.21150  0.25520  0.13410  Biso   1.000  H
  H65      1.0000 0.21810  0.50290  0.10280  Biso   1.000  H
  H66      1.0000 0.42860  0.72970  0.90630  Biso   1.000  H
  H67      1.0000 0.19140  0.62430  0.71510  Biso   1.000  H
  H68      1.0000 0.35690  0.47730  0.73780  Biso   1.000  H
  H69      1.0000 0.21150  0.74480  0.86590  Biso   1.000  H
  H70      1.0000 0.21810  0.49710  0.89720  Biso   1.000  H
  H71      1.0000 0.92860  0.59370  0.22970  Biso   1.000  H
  H72      1.0000 0.69140  0.78490  0.12430  Biso   1.000  H
  H73      1.0000 0.85690  0.76220  0.97730  Biso   1.000  H
  H74      1.0000 0.71150  0.63410  0.24480  Biso   1.000  H
  H75      1.0000 0.71810  0.60280  0.99710  Biso   1.000  H
  H76      1.0000 0.92860  0.40630  0.77030  Biso   1.000  H
  H77      1.0000 0.69140  0.21510  0.87570  Biso   1.000  H
  H78      1.0000 0.85690  0.23780  0.02270  Biso   1.000  H
  H79      1.0000 0.71150  0.36590  0.75520  Biso   1.000  H
  H80      1.0000 0.71810  0.39720  0.00290  Biso   1.000  H
  H81      1.0000 0.00000  0.93190  0.30310  Biso   1.000  H
  H82      1.0000 0.00000  0.06810  0.69690  Biso   1.000  H
  H83      1.0000 0.50000  0.19690  0.43190  Biso   1.000  H
  H84      1.0000 0.50000  0.80310  0.56810  Biso   1.000  H
  H85      1.0000 0.50000  0.56810  0.80310  Biso   1.000  H
  H86      1.0000 0.50000  0.43190  0.19690  Biso   1.000  H
  H87      1.0000 0.00000  0.30310  0.93190  Biso   1.000  H
  H88      1.0000 0.00000  0.69690  0.06810  Biso   1.000  H
  H89      1.0000 0.87320  0.75570  0.24430  Biso   1.000  H
  H90      1.0000 0.87320  0.24430  0.75570  Biso   1.000  H
  H91      1.0000 0.37320  0.25570  0.25570  Biso   1.000  H
  H92      1.0000 0.37320  0.74430  0.74430  Biso   1.000  H
  H93      1.0000 0.62680  0.74430  0.74430  Biso   1.000  H
  H94      1.0000 0.62680  0.25570  0.25570  Biso   1.000  H
  H95      1.0000 0.12680  0.24430  0.75570  Biso   1.000  H
  H96      1.0000 0.12680  0.75570  0.24430  Biso   1.000  H
  C1       1.0000 0.96020  0.80580  0.38860  Biso   1.000  C
  C2       1.0000 0.73070  0.84270  0.20780  Biso   1.000  C
  C3       1.0000 0.82230  0.03270  0.27420  Biso   1.000  C
  C4       1.0000 0.71400  0.78460  0.40470  Biso   1.000  C
  C5       1.0000 0.74890  0.02310  0.36240  Biso   1.000  C
  C6       1.0000 0.96020  0.19420  0.61140  Biso   1.000  C
  C7       1.0000 0.73070  0.15730  0.79220  Biso   1.000  C
  C8       1.0000 0.82230  0.96730  0.72580  Biso   1.000  C
  C9       1.0000 0.71400  0.21540  0.59530  Biso   1.000  C
  C10      1.0000 0.74890  0.97690  0.63760  Biso   1.000  C
  C11      1.0000 0.46020  0.11140  0.30580  Biso   1.000  C
  C12      1.0000 0.23070  0.29220  0.34270  Biso   1.000  C
  C13      1.0000 0.32230  0.22580  0.53270  Biso   1.000  C
  C14      1.0000 0.21400  0.09530  0.28460  Biso   1.000  C
  C15      1.0000 0.24890  0.13760  0.52310  Biso   1.000  C
  C16      1.0000 0.46020  0.88860  0.69420  Biso   1.000  C
  C17      1.0000 0.23070  0.70780  0.65730  Biso   1.000  C
  C18      1.0000 0.32230  0.77420  0.46730  Biso   1.000  C
  C19      1.0000 0.21400  0.90470  0.71540  Biso   1.000  C
  C20      1.0000 0.24890  0.86240  0.47690  Biso   1.000  C
  C21      1.0000 0.53980  0.69420  0.88860  Biso   1.000  C
  C22      1.0000 0.76930  0.65730  0.70780  Biso   1.000  C
  C23      1.0000 0.67770  0.46730  0.77420  Biso   1.000  C
  C24      1.0000 0.78600  0.71540  0.90470  Biso   1.000  C
  C25      1.0000 0.75110  0.47690  0.86240  Biso   1.000  C
  C26      1.0000 0.53980  0.30580  0.11140  Biso   1.000  C
  C27      1.0000 0.76930  0.34270  0.29220  Biso   1.000  C
  C28      1.0000 0.67770  0.53270  0.22580  Biso   1.000  C
  C29      1.0000 0.78600  0.28460  0.09530  Biso   1.000  C
  C30      1.0000 0.75110  0.52310  0.13760  Biso   1.000  C
  C31      1.0000 0.03980  0.38860  0.80580  Biso   1.000  C
  C32      1.0000 0.26930  0.20780  0.84270  Biso   1.000  C
  C33      1.0000 0.17770  0.27420  0.03270  Biso   1.000  C
  C34      1.0000 0.28600  0.40470  0.78460  Biso   1.000  C
  C35      1.0000 0.25110  0.36240  0.02310  Biso   1.000  C
  C36      1.0000 0.03980  0.61140  0.19420  Biso   1.000  C
  C37      1.0000 0.26930  0.79220  0.15730  Biso   1.000  C
  C38      1.0000 0.17770  0.72580  0.96730  Biso   1.000  C
  C39      1.0000 0.28600  0.59530  0.21540  Biso   1.000  C
  C40      1.0000 0.25110  0.63760  0.97690  Biso   1.000  C
  C41      1.0000 0.03980  0.19420  0.61140  Biso   1.000  C
  C42      1.0000 0.26930  0.15730  0.79220  Biso   1.000  C
  C43      1.0000 0.17770  0.96730  0.72580  Biso   1.000  C
  C44      1.0000 0.28600  0.21540  0.59530  Biso   1.000  C
  C45      1.0000 0.25110  0.97690  0.63760  Biso   1.000  C
  C46      1.0000 0.03980  0.80580  0.38860  Biso   1.000  C
  C47      1.0000 0.26930  0.84270  0.20780  Biso   1.000  C
  C48      1.0000 0.17770  0.03270  0.27420  Biso   1.000  C
  C49      1.0000 0.28600  0.78460  0.40470  Biso   1.000  C
  C50      1.0000 0.25110  0.02310  0.36240  Biso   1.000  C
  C51      1.0000 0.53980  0.88860  0.69420  Biso   1.000  C
  C52      1.0000 0.76930  0.70780  0.65730  Biso   1.000  C
  C53      1.0000 0.67770  0.77420  0.46730  Biso   1.000  C
  C54      1.0000 0.78600  0.90470  0.71540  Biso   1.000  C
  C55      1.0000 0.75110  0.86240  0.47690  Biso   1.000  C
  C56      1.0000 0.53980  0.11140  0.30580  Biso   1.000  C
  C57      1.0000 0.76930  0.29220  0.34270  Biso   1.000  C
  C58      1.0000 0.67770  0.22580  0.53270  Biso   1.000  C
  C59      1.0000 0.78600  0.09530  0.28460  Biso   1.000  C
  C60      1.0000 0.75110  0.13760  0.52310  Biso   1.000  C
  C61      1.0000 0.46020  0.30580  0.11140  Biso   1.000  C
  C62      1.0000 0.23070  0.34270  0.29220  Biso   1.000  C
  C63      1.0000 0.32230  0.53270  0.22580  Biso   1.000  C
  C64      1.0000 0.21400  0.28460  0.09530  Biso   1.000  C
  C65      1.0000 0.24890  0.52310  0.13760  Biso   1.000  C
  C66      1.0000 0.46020  0.69420  0.88860  Biso   1.000  C
  C67      1.0000 0.23070  0.65730  0.70780  Biso   1.000  C
  C68      1.0000 0.32230  0.46730  0.77420  Biso   1.000  C
  C69      1.0000 0.21400  0.71540  0.90470  Biso   1.000  C
  C70      1.0000 0.24890  0.47690  0.86240  Biso   1.000  C
  C71      1.0000 0.96020  0.61140  0.19420  Biso   1.000  C
  C72      1.0000 0.73070  0.79220  0.15730  Biso   1.000  C
  C73      1.0000 0.82230  0.72580  0.96730  Biso   1.000  C
  C74      1.0000 0.71400  0.59530  0.21540  Biso   1.000  C
  C75      1.0000 0.74890  0.63760  0.97690  Biso   1.000  C
  C76      1.0000 0.96020  0.38860  0.80580  Biso   1.000  C
  C77      1.0000 0.73070  0.20780  0.84270  Biso   1.000  C
  C78      1.0000 0.82230  0.27420  0.03270  Biso   1.000  C
  C79      1.0000 0.71400  0.40470  0.78460  Biso   1.000  C
  C80      1.0000 0.74890  0.36240  0.02310  Biso   1.000  C
  C81      1.0000 0.00000  0.89460  0.33450  Biso   1.000  C
  C82      1.0000 0.00000  0.10540  0.66550  Biso   1.000  C
  C83      1.0000 0.50000  0.16550  0.39460  Biso   1.000  C
  C84      1.0000 0.50000  0.83450  0.60540  Biso   1.000  C
  C85      1.0000 0.50000  0.60540  0.83450  Biso   1.000  C
  C86      1.0000 0.50000  0.39460  0.16550  Biso   1.000  C
  C87      1.0000 0.00000  0.33450  0.89460  Biso   1.000  C
  C88      1.0000 0.00000  0.66550  0.10540  Biso   1.000  C
  C89      1.0000 0.83150  0.77790  0.22210  Biso   1.000  C
  C90      1.0000 0.83150  0.22210  0.77790  Biso   1.000  C
  C91      1.0000 0.33150  0.27790  0.27790  Biso   1.000  C
  C92      1.0000 0.33150  0.72210  0.72210  Biso   1.000  C
  C93      1.0000 0.66850  0.72210  0.72210  Biso   1.000  C
  C94      1.0000 0.66850  0.27790  0.27790  Biso   1.000  C
  C95      1.0000 0.16850  0.22210  0.77790  Biso   1.000  C
  C96      1.0000 0.16850  0.77790  0.22210  Biso   1.000  C
  N1       1.0000 0.93430  0.86580  0.35870  Biso   1.000  N
  N2       1.0000 0.79870  0.83660  0.24610  Biso   1.000  N
  N3       1.0000 0.80040  0.98700  0.32500  Biso   1.000  N
  N4       1.0000 0.75480  0.84600  0.40920  Biso   1.000  N
  N5       1.0000 0.93430  0.13420  0.64130  Biso   1.000  N
  N6       1.0000 0.79870  0.16340  0.75390  Biso   1.000  N
  N7       1.0000 0.80040  0.01300  0.67500  Biso   1.000  N
  N8       1.0000 0.75480  0.15400  0.59080  Biso   1.000  N
  N9       1.0000 0.43430  0.14130  0.36580  Biso   1.000  N
  N10      1.0000 0.29870  0.25390  0.33660  Biso   1.000  N
  N11      1.0000 0.30040  0.17500  0.48700  Biso   1.000  N
  N12      1.0000 0.25480  0.09080  0.34600  Biso   1.000  N
  N13      1.0000 0.43430  0.85870  0.63420  Biso   1.000  N
  N14      1.0000 0.29870  0.74610  0.66340  Biso   1.000  N
  N15      1.0000 0.30040  0.82500  0.51300  Biso   1.000  N
  N16      1.0000 0.25480  0.90920  0.65400  Biso   1.000  N
  N17      1.0000 0.56570  0.63420  0.85870  Biso   1.000  N
  N18      1.0000 0.70130  0.66340  0.74610  Biso   1.000  N
  N19      1.0000 0.69960  0.51300  0.82500  Biso   1.000  N
  N20      1.0000 0.74520  0.65400  0.90920  Biso   1.000  N
  N21      1.0000 0.56570  0.36580  0.14130  Biso   1.000  N
  N22      1.0000 0.70130  0.33660  0.25390  Biso   1.000  N
  N23      1.0000 0.69960  0.48700  0.17500  Biso   1.000  N
  N24      1.0000 0.74520  0.34600  0.09080  Biso   1.000  N
  N25      1.0000 0.06570  0.35870  0.86580  Biso   1.000  N
  N26      1.0000 0.20130  0.24610  0.83660  Biso   1.000  N
  N27      1.0000 0.19960  0.32500  0.98700  Biso   1.000  N
  N28      1.0000 0.24520  0.40920  0.84600  Biso   1.000  N
  N29      1.0000 0.06570  0.64130  0.13420  Biso   1.000  N
  N30      1.0000 0.20130  0.75390  0.16340  Biso   1.000  N
  N31      1.0000 0.19960  0.67500  0.01300  Biso   1.000  N
  N32      1.0000 0.24520  0.59080  0.15400  Biso   1.000  N
  N33      1.0000 0.06570  0.13420  0.64130  Biso   1.000  N
  N34      1.0000 0.20130  0.16340  0.75390  Biso   1.000  N
  N35      1.0000 0.19960  0.01300  0.67500  Biso   1.000  N
  N36      1.0000 0.24520  0.15400  0.59080  Biso   1.000  N
  N37      1.0000 0.06570  0.86580  0.35870  Biso   1.000  N
  N38      1.0000 0.20130  0.83660  0.24610  Biso   1.000  N
  N39      1.0000 0.19960  0.98700  0.32500  Biso   1.000  N
  N40      1.0000 0.24520  0.84600  0.40920  Biso   1.000  N
  N41      1.0000 0.56570  0.85870  0.63420  Biso   1.000  N
  N42      1.0000 0.70130  0.74610  0.66340  Biso   1.000  N
  N43      1.0000 0.69960  0.82500  0.51300  Biso   1.000  N
  N44      1.0000 0.74520  0.90920  0.65400  Biso   1.000  N
  N45      1.0000 0.56570  0.14130  0.36580  Biso   1.000  N
  N46      1.0000 0.70130  0.25390  0.33660  Biso   1.000  N
  N47      1.0000 0.69960  0.17500  0.48700  Biso   1.000  N
  N48      1.0000 0.74520  0.09080  0.34600  Biso   1.000  N
  N49      1.0000 0.43430  0.36580  0.14130  Biso   1.000  N
  N50      1.0000 0.29870  0.33660  0.25390  Biso   1.000  N
  N51      1.0000 0.30040  0.48700  0.17500  Biso   1.000  N
  N52      1.0000 0.25480  0.34600  0.09080  Biso   1.000  N
  N53      1.0000 0.43430  0.63420  0.85870  Biso   1.000  N
  N54      1.0000 0.29870  0.66340  0.74610  Biso   1.000  N
  N55      1.0000 0.30040  0.51300  0.82500  Biso   1.000  N
  N56      1.0000 0.25480  0.65400  0.90920  Biso   1.000  N
  N57      1.0000 0.93430  0.64130  0.13420  Biso   1.000  N
  N58      1.0000 0.79870  0.75390  0.16340  Biso   1.000  N
  N59      1.0000 0.80040  0.67500  0.01300  Biso   1.000  N
  N60      1.0000 0.75480  0.59080  0.15400  Biso   1.000  N
  N61      1.0000 0.93430  0.35870  0.86580  Biso   1.000  N
  N62      1.0000 0.79870  0.24610  0.83660  Biso   1.000  N
  N63      1.0000 0.80040  0.32500  0.98700  Biso   1.000  N
  N64      1.0000 0.75480  0.40920  0.84600  Biso   1.000  N
