data_image0
_cell_length_a       14.5755
_cell_length_b       14.5755
_cell_length_c       14.5755
_cell_angle_alpha    109.471
_cell_angle_beta     109.471
_cell_angle_gamma    109.471

_symmetry_space_group_name_H-M    P 1
_symmetry_int_tables_number       1

loop_
  _symmetry_equiv_pos_as_xyz
  'x, y, z'

loop_
  _atom_site_label
  _atom_site_occupancy
  _atom_site_fract_x
  _atom_site_fract_y
  _atom_site_fract_z
  _atom_site_thermal_displace_type
  _atom_site_B_iso_or_equiv
  _atom_site_type_symbol
  Zn1      1.0000 0.75000  0.50000  0.25000  Biso   1.000  Zn
  Zn2      1.0000 0.25000  0.50000  0.75000  Biso   1.000  Zn
  Zn3      1.0000 0.25000  0.75000  0.50000  Biso   1.000  Zn
  Zn4      1.0000 0.75000  0.25000  0.50000  Biso   1.000  Zn
  Zn5      1.0000 0.50000  0.75000  0.25000  Biso   1.000  Zn
  Zn6      1.0000 0.50000  0.25000  0.75000  Biso   1.000  Zn
  H1       1.0000 0.67080  0.53870  0.43670  Biso   1.000  H
  H2       1.0000 0.10200  0.23410  0.56330  Biso   1.000  H
  H3       1.0000 0.89800  0.46130  0.13210  Biso   1.000  H
  H4       1.0000 0.32920  0.76590  0.86790  Biso   1.000  H
  H5       1.0000 0.13210  0.89800  0.46130  Biso   1.000  H
  H6       1.0000 0.86790  0.32920  0.76590  Biso   1.000  H
  H7       1.0000 0.43670  0.67080  0.53870  Biso   1.000  H
  H8       1.0000 0.56330  0.10200  0.23410  Biso   1.000  H
  H9       1.0000 0.23410  0.56330  0.10200  Biso   1.000  H
  H10      1.0000 0.53870  0.43670  0.67080  Biso   1.000  H
  H11      1.0000 0.76590  0.86790  0.32920  Biso   1.000  H
  H12      1.0000 0.46130  0.13210  0.89800  Biso   1.000  H
  H13      1.0000 0.23410  0.10200  0.56330  Biso   1.000  H
  H14      1.0000 0.53870  0.67080  0.43670  Biso   1.000  H
  H15      1.0000 0.76590  0.32920  0.86790  Biso   1.000  H
  H16      1.0000 0.46130  0.89800  0.13210  Biso   1.000  H
  H17      1.0000 0.67080  0.43670  0.53870  Biso   1.000  H
  H18      1.0000 0.10200  0.56330  0.23410  Biso   1.000  H
  H19      1.0000 0.89800  0.13210  0.46130  Biso   1.000  H
  H20      1.0000 0.32920  0.86790  0.76590  Biso   1.000  H
  H21      1.0000 0.13210  0.46130  0.89800  Biso   1.000  H
  H22      1.0000 0.86790  0.76590  0.32920  Biso   1.000  H
  H23      1.0000 0.43670  0.53870  0.67080  Biso   1.000  H
  H24      1.0000 0.56330  0.23410  0.10200  Biso   1.000  H
  H25      1.0000 0.80320  0.35910  0.35910  Biso   1.000  H
  H26      1.0000 0.00000  0.44410  0.64090  Biso   1.000  H
  H27      1.0000 0.00000  0.64090  0.44410  Biso   1.000  H
  H28      1.0000 0.19680  0.55590  0.55590  Biso   1.000  H
  H29      1.0000 0.44410  0.00000  0.64090  Biso   1.000  H
  H30      1.0000 0.55590  0.19680  0.55590  Biso   1.000  H
  H31      1.0000 0.35910  0.80320  0.35910  Biso   1.000  H
  H32      1.0000 0.64090  0.00000  0.44410  Biso   1.000  H
  H33      1.0000 0.44410  0.64090  0.00000  Biso   1.000  H
  H34      1.0000 0.35910  0.35910  0.80320  Biso   1.000  H
  H35      1.0000 0.55590  0.55590  0.19680  Biso   1.000  H
  H36      1.0000 0.64090  0.44410  0.00000  Biso   1.000  H
  C1       1.0000 0.69210  0.48280  0.42710  Biso   1.000  C
  C2       1.0000 0.05570  0.26500  0.57290  Biso   1.000  C
  C3       1.0000 0.94430  0.51720  0.20930  Biso   1.000  C
  C4       1.0000 0.30790  0.73500  0.79070  Biso   1.000  C
  C5       1.0000 0.20930  0.94430  0.51720  Biso   1.000  C
  C6       1.0000 0.79070  0.30790  0.73500  Biso   1.000  C
  C7       1.0000 0.42710  0.69210  0.48280  Biso   1.000  C
  C8       1.0000 0.57290  0.05570  0.26500  Biso   1.000  C
  C9       1.0000 0.26500  0.57290  0.05570  Biso   1.000  C
  C10      1.0000 0.48280  0.42710  0.69210  Biso   1.000  C
  C11      1.0000 0.73500  0.79070  0.30790  Biso   1.000  C
  C12      1.0000 0.51720  0.20930  0.94430  Biso   1.000  C
  C13      1.0000 0.26500  0.05570  0.57290  Biso   1.000  C
  C14      1.0000 0.48280  0.69210  0.42710  Biso   1.000  C
  C15      1.0000 0.73500  0.30790  0.79070  Biso   1.000  C
  C16      1.0000 0.51720  0.94430  0.20930  Biso   1.000  C
  C17      1.0000 0.69210  0.42710  0.48280  Biso   1.000  C
  C18      1.0000 0.05570  0.57290  0.26500  Biso   1.000  C
  C19      1.0000 0.94430  0.20930  0.51720  Biso   1.000  C
  C20      1.0000 0.30790  0.79070  0.73500  Biso   1.000  C
  C21      1.0000 0.20930  0.51720  0.94430  Biso   1.000  C
  C22      1.0000 0.79070  0.73500  0.30790  Biso   1.000  C
  C23      1.0000 0.42710  0.48280  0.69210  Biso   1.000  C
  C24      1.0000 0.57290  0.26500  0.05570  Biso   1.000  C
  C25      1.0000 0.75844  0.38342  0.38342  Biso   1.000  C
  C26      1.0000 0.00000  0.37502  0.61658  Biso   1.000  C
  C27      1.0000 0.00000  0.61658  0.37502  Biso   1.000  C
  C28      1.0000 0.24156  0.62498  0.62498  Biso   1.000  C
  C29      1.0000 0.37502  0.00000  0.61658  Biso   1.000  C
  C30      1.0000 0.62498  0.24156  0.62498  Biso   1.000  C
  C31      1.0000 0.38342  0.75844  0.38342  Biso   1.000  C
  C32      1.0000 0.61658  0.00000  0.37502  Biso   1.000  C
  C33      1.0000 0.37502  0.61658  0.00000  Biso   1.000  C
  C34      1.0000 0.38342  0.38342  0.75844  Biso   1.000  C
  C35      1.0000 0.62498  0.62498  0.24156  Biso   1.000  C
  C36      1.0000 0.61658  0.37502  0.00000  Biso   1.000  C
  N1       1.0000 0.72769  0.44686  0.35367  Biso   1.000  N
  N2       1.0000 0.09319  0.37402  0.64633  Biso   1.000  N
  N3       1.0000 0.90681  0.55314  0.28083  Biso   1.000  N
  N4       1.0000 0.27231  0.62598  0.71917  Biso   1.000  N
  N5       1.0000 0.28083  0.90681  0.55314  Biso   1.000  N
  N6       1.0000 0.71917  0.27231  0.62598  Biso   1.000  N
  N7       1.0000 0.35367  0.72769  0.44686  Biso   1.000  N
  N8       1.0000 0.64633  0.09319  0.37402  Biso   1.000  N
  N9       1.0000 0.37402  0.64633  0.09319  Biso   1.000  N
  N10      1.0000 0.44686  0.35367  0.72769  Biso   1.000  N
  N11      1.0000 0.62598  0.71917  0.27231  Biso   1.000  N
  N12      1.0000 0.55314  0.28083  0.90681  Biso   1.000  N
  N13      1.0000 0.37402  0.09319  0.64633  Biso   1.000  N
  N14      1.0000 0.44686  0.72769  0.35367  Biso   1.000  N
  N15      1.0000 0.62598  0.27231  0.71917  Biso   1.000  N
  N16      1.0000 0.55314  0.90681  0.28083  Biso   1.000  N
  N17      1.0000 0.72769  0.35367  0.44686  Biso   1.000  N
  N18      1.0000 0.09319  0.64633  0.37402  Biso   1.000  N
  N19      1.0000 0.90681  0.28083  0.55314  Biso   1.000  N
  N20      1.0000 0.27231  0.71917  0.62598  Biso   1.000  N
  N21      1.0000 0.28083  0.55314  0.90681  Biso   1.000  N
  N22      1.0000 0.71917  0.62598  0.27231  Biso   1.000  N
  N23      1.0000 0.35367  0.44686  0.72769  Biso   1.000  N
  N24      1.0000 0.64633  0.37402  0.09319  Biso   1.000  N
