data_image0
_cell_length_a       9.6097
_cell_length_b       24.359
_cell_length_c       24.804
_cell_angle_alpha    91.774
_cell_angle_beta     90
_cell_angle_gamma    90

_symmetry_space_group_name_H-M    P 1
_symmetry_int_tables_number       1

loop_
  _symmetry_equiv_pos_as_xyz
  'x, y, z'

loop_
  _atom_site_label
  _atom_site_occupancy
  _atom_site_fract_x
  _atom_site_fract_y
  _atom_site_fract_z
  _atom_site_thermal_displace_type
  _atom_site_B_iso_or_equiv
  _atom_site_type_symbol
  Zn1      1.0000 0.96715  0.23263  0.31794  Biso   1.000  Zn
  Zn2      1.0000 0.74120  0.01286  0.27589  Biso   1.000  Zn
  Zn3      1.0000 0.23636  0.03213  0.13747  Biso   1.000  Zn
  Zn4      1.0000 0.32800  0.34098  0.48226  Biso   1.000  Zn
  Zn5      1.0000 0.44020  0.21659  0.68391  Biso   1.000  Zn
  Zn6      1.0000 0.46715  0.26737  0.18206  Biso   1.000  Zn
  Zn7      1.0000 0.24120  0.48714  0.22411  Biso   1.000  Zn
  Zn8      1.0000 0.73636  0.46787  0.36253  Biso   1.000  Zn
  Zn9      1.0000 0.82800  0.15902  0.01774  Biso   1.000  Zn
  Zn10     1.0000 0.94020  0.28341  0.81609  Biso   1.000  Zn
  Zn11     1.0000 0.03285  0.76737  0.68206  Biso   1.000  Zn
  Zn12     1.0000 0.25880  0.98714  0.72411  Biso   1.000  Zn
  Zn13     1.0000 0.76364  0.96787  0.86253  Biso   1.000  Zn
  Zn14     1.0000 0.67200  0.65902  0.51774  Biso   1.000  Zn
  Zn15     1.0000 0.55980  0.78341  0.31609  Biso   1.000  Zn
  Zn16     1.0000 0.53285  0.73263  0.81794  Biso   1.000  Zn
  Zn17     1.0000 0.75880  0.51286  0.77589  Biso   1.000  Zn
  Zn18     1.0000 0.26364  0.53213  0.63747  Biso   1.000  Zn
  Zn19     1.0000 0.17200  0.84098  0.98226  Biso   1.000  Zn
  Zn20     1.0000 0.05980  0.71659  0.18391  Biso   1.000  Zn
  H1       1.0000 0.17810  0.28030  0.23550  Biso   1.000  H
  H2       1.0000 0.22040  0.14520  0.31010  Biso   1.000  H
  H3       1.0000 0.42820  0.15820  0.25810  Biso   1.000  H
  H4       1.0000 0.92770  0.11400  0.27770  Biso   1.000  H
  H5       1.0000 0.74260  0.17990  0.39720  Biso   1.000  H
  H6       1.0000 0.65680  0.08680  0.38440  Biso   1.000  H
  H7       1.0000 0.43590  0.99410  0.22780  Biso   1.000  H
  H8       1.0000 0.71040  0.09900  0.18030  Biso   1.000  H
  H9       1.0000 0.50400  0.10740  0.12520  Biso   1.000  H
  H10      1.0000 0.95450  0.05140  0.18920  Biso   1.000  H
  H11      1.0000 0.19020  0.92550  0.21450  Biso   1.000  H
  H12      1.0000 0.98610  0.91900  0.27130  Biso   1.000  H
  H13      1.0000 0.53650  0.42850  0.44820  Biso   1.000  H
  H14      1.0000 0.49330  0.28840  0.37170  Biso   1.000  H
  H15      1.0000 0.66740  0.33920  0.32540  Biso   1.000  H
  H16      1.0000 0.35430  0.41790  0.58760  Biso   1.000  H
  H17      1.0000 0.13360  0.52800  0.51670  Biso   1.000  H
  H18      1.0000 0.15760  0.45020  0.45460  Biso   1.000  H
  H19      1.0000 0.21890  0.28030  0.37730  Biso   1.000  H
  H20      1.0000 0.99300  0.33360  0.49810  Biso   1.000  H
  H21      1.0000 0.83900  0.29070  0.43070  Biso   1.000  H
  H22      1.0000 0.30210  0.30290  0.60490  Biso   1.000  H
  H23      1.0000 0.57510  0.25830  0.49690  Biso   1.000  H
  H24      1.0000 0.62480  0.20870  0.57820  Biso   1.000  H
  H25      1.0000 0.14300  0.21200  0.73810  Biso   1.000  H
  H26      1.0000 0.20570  0.35780  0.79940  Biso   1.000  H
  H27      1.0000 0.40830  0.33180  0.74390  Biso   1.000  H
  H28      1.0000 0.61450  0.89500  0.25810  Biso   1.000  H
  H29      1.0000 0.66840  0.86770  0.40580  Biso   1.000  H
  H30      1.0000 0.72980  0.96260  0.39440  Biso   1.000  H
  H31      1.0000 0.67810  0.21970  0.26450  Biso   1.000  H
  H32      1.0000 0.72040  0.35480  0.18990  Biso   1.000  H
  H33      1.0000 0.92820  0.34180  0.24190  Biso   1.000  H
  H34      1.0000 0.42770  0.38600  0.22230  Biso   1.000  H
  H35      1.0000 0.24260  0.32010  0.10280  Biso   1.000  H
  H36      1.0000 0.15680  0.41320  0.11560  Biso   1.000  H
  H37      1.0000 0.93590  0.50590  0.27220  Biso   1.000  H
  H38      1.0000 0.21040  0.40100  0.31970  Biso   1.000  H
  H39      1.0000 0.00400  0.39260  0.37480  Biso   1.000  H
  H40      1.0000 0.45450  0.44860  0.31080  Biso   1.000  H
  H41      1.0000 0.69020  0.57450  0.28550  Biso   1.000  H
  H42      1.0000 0.48610  0.58100  0.22870  Biso   1.000  H
  H43      1.0000 0.03650  0.07150  0.05180  Biso   1.000  H
  H44      1.0000 0.99330  0.21160  0.12830  Biso   1.000  H
  H45      1.0000 0.16740  0.16080  0.17460  Biso   1.000  H
  H46      1.0000 0.85430  0.08210  0.91240  Biso   1.000  H
  H47      1.0000 0.63360  0.97200  0.98330  Biso   1.000  H
  H48      1.0000 0.65760  0.04980  0.04540  Biso   1.000  H
  H49      1.0000 0.71890  0.21970  0.12270  Biso   1.000  H
  H50      1.0000 0.49300  0.16640  0.00190  Biso   1.000  H
  H51      1.0000 0.33900  0.20930  0.06930  Biso   1.000  H
  H52      1.0000 0.80210  0.19710  0.89510  Biso   1.000  H
  H53      1.0000 0.07510  0.24170  0.00310  Biso   1.000  H
  H54      1.0000 0.12480  0.29130  0.92180  Biso   1.000  H
  H55      1.0000 0.64300  0.28800  0.76190  Biso   1.000  H
  H56      1.0000 0.70570  0.14220  0.70060  Biso   1.000  H
  H57      1.0000 0.90830  0.16820  0.75610  Biso   1.000  H
  H58      1.0000 0.11450  0.60500  0.24190  Biso   1.000  H
  H59      1.0000 0.16840  0.63230  0.09420  Biso   1.000  H
  H60      1.0000 0.22980  0.53740  0.10560  Biso   1.000  H
  H61      1.0000 0.82190  0.71970  0.76450  Biso   1.000  H
  H62      1.0000 0.77960  0.85480  0.68990  Biso   1.000  H
  H63      1.0000 0.57180  0.84180  0.74190  Biso   1.000  H
  H64      1.0000 0.07230  0.88600  0.72230  Biso   1.000  H
  H65      1.0000 0.25740  0.82010  0.60280  Biso   1.000  H
  H66      1.0000 0.34320  0.91320  0.61560  Biso   1.000  H
  H67      1.0000 0.56410  0.00590  0.77220  Biso   1.000  H
  H68      1.0000 0.28960  0.90100  0.81970  Biso   1.000  H
  H69      1.0000 0.49600  0.89260  0.87480  Biso   1.000  H
  H70      1.0000 0.04550  0.94860  0.81080  Biso   1.000  H
  H71      1.0000 0.80980  0.07450  0.78550  Biso   1.000  H
  H72      1.0000 0.01390  0.08100  0.72870  Biso   1.000  H
  H73      1.0000 0.46350  0.57150  0.55180  Biso   1.000  H
  H74      1.0000 0.50670  0.71160  0.62830  Biso   1.000  H
  H75      1.0000 0.33260  0.66080  0.67460  Biso   1.000  H
  H76      1.0000 0.64570  0.58210  0.41240  Biso   1.000  H
  H77      1.0000 0.86640  0.47200  0.48330  Biso   1.000  H
  H78      1.0000 0.84240  0.54980  0.54540  Biso   1.000  H
  H79      1.0000 0.78110  0.71970  0.62270  Biso   1.000  H
  H80      1.0000 0.00700  0.66640  0.50190  Biso   1.000  H
  H81      1.0000 0.16100  0.70930  0.56930  Biso   1.000  H
  H82      1.0000 0.69790  0.69710  0.39510  Biso   1.000  H
  H83      1.0000 0.42490  0.74170  0.50310  Biso   1.000  H
  H84      1.0000 0.37520  0.79130  0.42180  Biso   1.000  H
  H85      1.0000 0.85700  0.78800  0.26190  Biso   1.000  H
  H86      1.0000 0.79430  0.64220  0.20060  Biso   1.000  H
  H87      1.0000 0.59170  0.66820  0.25610  Biso   1.000  H
  H88      1.0000 0.38550  0.10500  0.74190  Biso   1.000  H
  H89      1.0000 0.33160  0.13230  0.59420  Biso   1.000  H
  H90      1.0000 0.27020  0.03740  0.60560  Biso   1.000  H
  H91      1.0000 0.32190  0.78030  0.73550  Biso   1.000  H
  H92      1.0000 0.27960  0.64520  0.81010  Biso   1.000  H
  H93      1.0000 0.07180  0.65820  0.75810  Biso   1.000  H
  H94      1.0000 0.57230  0.61400  0.77770  Biso   1.000  H
  H95      1.0000 0.75740  0.67990  0.89720  Biso   1.000  H
  H96      1.0000 0.84320  0.58680  0.88440  Biso   1.000  H
  H97      1.0000 0.06410  0.49410  0.72780  Biso   1.000  H
  H98      1.0000 0.78960  0.59900  0.68030  Biso   1.000  H
  H99      1.0000 0.99600  0.60740  0.62520  Biso   1.000  H
  H100     1.0000 0.54550  0.55140  0.68920  Biso   1.000  H
  H101     1.0000 0.30980  0.42550  0.71450  Biso   1.000  H
  H102     1.0000 0.51390  0.41900  0.77130  Biso   1.000  H
  H103     1.0000 0.96350  0.92850  0.94820  Biso   1.000  H
  H104     1.0000 0.00670  0.78840  0.87170  Biso   1.000  H
  H105     1.0000 0.83260  0.83920  0.82540  Biso   1.000  H
  H106     1.0000 0.14570  0.91790  0.08760  Biso   1.000  H
  H107     1.0000 0.36640  0.02800  0.01670  Biso   1.000  H
  H108     1.0000 0.34240  0.95020  0.95460  Biso   1.000  H
  H109     1.0000 0.28110  0.78030  0.87730  Biso   1.000  H
  H110     1.0000 0.50700  0.83360  0.99810  Biso   1.000  H
  H111     1.0000 0.66100  0.79070  0.93070  Biso   1.000  H
  H112     1.0000 0.19790  0.80290  0.10490  Biso   1.000  H
  H113     1.0000 0.92490  0.75830  0.99690  Biso   1.000  H
  H114     1.0000 0.87520  0.70870  0.07820  Biso   1.000  H
  H115     1.0000 0.35700  0.71200  0.23810  Biso   1.000  H
  H116     1.0000 0.29430  0.85780  0.29940  Biso   1.000  H
  H117     1.0000 0.09170  0.83180  0.24390  Biso   1.000  H
  H118     1.0000 0.88550  0.39500  0.75810  Biso   1.000  H
  H119     1.0000 0.83160  0.36770  0.90580  Biso   1.000  H
  H120     1.0000 0.77020  0.46260  0.89440  Biso   1.000  H
  C1       1.0000 0.21550  0.24780  0.24780  Biso   1.000  C
  C2       1.0000 0.23740  0.17490  0.28840  Biso   1.000  C
  C3       1.0000 0.35210  0.18180  0.25960  Biso   1.000  C
  C4       1.0000 0.86970  0.11870  0.30750  Biso   1.000  C
  C5       1.0000 0.77350  0.15470  0.37090  Biso   1.000  C
  C6       1.0000 0.72400  0.10320  0.36320  Biso   1.000  C
  C7       1.0000 0.48050  0.02160  0.20900  Biso   1.000  C
  C8       1.0000 0.62960  0.07840  0.18340  Biso   1.000  C
  C9       1.0000 0.51560  0.08310  0.15300  Biso   1.000  C
  C10      1.0000 0.98830  0.01910  0.20330  Biso   1.000  C
  C11      1.0000 0.11760  0.95080  0.21660  Biso   1.000  C
  C12      1.0000 0.00440  0.94710  0.24780  Biso   1.000  C
  C13      1.0000 0.54720  0.39930  0.42360  Biso   1.000  C
  C14      1.0000 0.52340  0.32350  0.38200  Biso   1.000  C
  C15      1.0000 0.61990  0.35110  0.35630  Biso   1.000  C
  C16      1.0000 0.30210  0.43590  0.56190  Biso   1.000  C
  C17      1.0000 0.18180  0.49590  0.52370  Biso   1.000  C
  C18      1.0000 0.19510  0.45320  0.48920  Biso   1.000  C
  C19      1.0000 0.14280  0.28750  0.39960  Biso   1.000  C
  C20      1.0000 0.02110  0.31700  0.46560  Biso   1.000  C
  C21      1.0000 0.93530  0.29330  0.42790  Biso   1.000  C
  C22      1.0000 0.37620  0.28510  0.58770  Biso   1.000  C
  C23      1.0000 0.52460  0.26120  0.52890  Biso   1.000  C
  C24      1.0000 0.55250  0.23350  0.57390  Biso   1.000  C
  C25      1.0000 0.18420  0.24570  0.74670  Biso   1.000  C
  C26      1.0000 0.21670  0.32470  0.78020  Biso   1.000  C
  C27      1.0000 0.32980  0.31040  0.74940  Biso   1.000  C
  C28      1.0000 0.63390  0.90030  0.29470  Biso   1.000  C
  C29      1.0000 0.66300  0.88540  0.37320  Biso   1.000  C
  C30      1.0000 0.69780  0.93800  0.36780  Biso   1.000  C
  C31      1.0000 0.71550  0.25220  0.25220  Biso   1.000  C
  C32      1.0000 0.73740  0.32510  0.21160  Biso   1.000  C
  C33      1.0000 0.85210  0.31820  0.24040  Biso   1.000  C
  C34      1.0000 0.36970  0.38130  0.19250  Biso   1.000  C
  C35      1.0000 0.27350  0.34530  0.12910  Biso   1.000  C
  C36      1.0000 0.22400  0.39680  0.13680  Biso   1.000  C
  C37      1.0000 0.98050  0.47840  0.29100  Biso   1.000  C
  C38      1.0000 0.12960  0.42160  0.31660  Biso   1.000  C
  C39      1.0000 0.01560  0.41690  0.34700  Biso   1.000  C
  C40      1.0000 0.48830  0.48090  0.29670  Biso   1.000  C
  C41      1.0000 0.61760  0.54920  0.28340  Biso   1.000  C
  C42      1.0000 0.50440  0.55290  0.25220  Biso   1.000  C
  C43      1.0000 0.04720  0.10070  0.07640  Biso   1.000  C
  C44      1.0000 0.02340  0.17650  0.11800  Biso   1.000  C
  C45      1.0000 0.11990  0.14890  0.14370  Biso   1.000  C
  C46      1.0000 0.80210  0.06410  0.93810  Biso   1.000  C
  C47      1.0000 0.68180  0.00410  0.97630  Biso   1.000  C
  C48      1.0000 0.69510  0.04680  0.01080  Biso   1.000  C
  C49      1.0000 0.64280  0.21250  0.10040  Biso   1.000  C
  C50      1.0000 0.52110  0.18300  0.03440  Biso   1.000  C
  C51      1.0000 0.43530  0.20670  0.07210  Biso   1.000  C
  C52      1.0000 0.87620  0.21490  0.91230  Biso   1.000  C
  C53      1.0000 0.02460  0.23880  0.97110  Biso   1.000  C
  C54      1.0000 0.05250  0.26650  0.92610  Biso   1.000  C
  C55      1.0000 0.68420  0.25430  0.75330  Biso   1.000  C
  C56      1.0000 0.71670  0.17530  0.71980  Biso   1.000  C
  C57      1.0000 0.82980  0.18960  0.75060  Biso   1.000  C
  C58      1.0000 0.13390  0.59970  0.20530  Biso   1.000  C
  C59      1.0000 0.16300  0.61460  0.12680  Biso   1.000  C
  C60      1.0000 0.19780  0.56200  0.13220  Biso   1.000  C
  C61      1.0000 0.78450  0.75220  0.75220  Biso   1.000  C
  C62      1.0000 0.76260  0.82510  0.71160  Biso   1.000  C
  C63      1.0000 0.64790  0.81820  0.74040  Biso   1.000  C
  C64      1.0000 0.13030  0.88130  0.69250  Biso   1.000  C
  C65      1.0000 0.22650  0.84530  0.62910  Biso   1.000  C
  C66      1.0000 0.27600  0.89680  0.63680  Biso   1.000  C
  C67      1.0000 0.51950  0.97840  0.79100  Biso   1.000  C
  C68      1.0000 0.37040  0.92160  0.81660  Biso   1.000  C
  C69      1.0000 0.48440  0.91690  0.84700  Biso   1.000  C
  C70      1.0000 0.01170  0.98090  0.79670  Biso   1.000  C
  C71      1.0000 0.88240  0.04920  0.78340  Biso   1.000  C
  C72      1.0000 0.99560  0.05290  0.75220  Biso   1.000  C
  C73      1.0000 0.45280  0.60070  0.57640  Biso   1.000  C
  C74      1.0000 0.47660  0.67650  0.61800  Biso   1.000  C
  C75      1.0000 0.38010  0.64890  0.64370  Biso   1.000  C
  C76      1.0000 0.69790  0.56410  0.43810  Biso   1.000  C
  C77      1.0000 0.81820  0.50410  0.47630  Biso   1.000  C
  C78      1.0000 0.80490  0.54680  0.51080  Biso   1.000  C
  C79      1.0000 0.85720  0.71250  0.60040  Biso   1.000  C
  C80      1.0000 0.97890  0.68300  0.53440  Biso   1.000  C
  C81      1.0000 0.06470  0.70670  0.57210  Biso   1.000  C
  C82      1.0000 0.62380  0.71490  0.41230  Biso   1.000  C
  C83      1.0000 0.47540  0.73880  0.47110  Biso   1.000  C
  C84      1.0000 0.44750  0.76650  0.42610  Biso   1.000  C
  C85      1.0000 0.81580  0.75430  0.25330  Biso   1.000  C
  C86      1.0000 0.78330  0.67530  0.21980  Biso   1.000  C
  C87      1.0000 0.67020  0.68960  0.25060  Biso   1.000  C
  C88      1.0000 0.36610  0.09970  0.70530  Biso   1.000  C
  C89      1.0000 0.33700  0.11460  0.62680  Biso   1.000  C
  C90      1.0000 0.30220  0.06200  0.63220  Biso   1.000  C
  C91      1.0000 0.28450  0.74780  0.74780  Biso   1.000  C
  C92      1.0000 0.26260  0.67490  0.78840  Biso   1.000  C
  C93      1.0000 0.14790  0.68180  0.75960  Biso   1.000  C
  C94      1.0000 0.63030  0.61870  0.80750  Biso   1.000  C
  C95      1.0000 0.72650  0.65470  0.87090  Biso   1.000  C
  C96      1.0000 0.77600  0.60320  0.86320  Biso   1.000  C
  C97      1.0000 0.01950  0.52160  0.70900  Biso   1.000  C
  C98      1.0000 0.87040  0.57840  0.68340  Biso   1.000  C
  C99      1.0000 0.98440  0.58310  0.65300  Biso   1.000  C
  C100     1.0000 0.51170  0.51910  0.70330  Biso   1.000  C
  C101     1.0000 0.38240  0.45080  0.71660  Biso   1.000  C
  C102     1.0000 0.49560  0.44710  0.74780  Biso   1.000  C
  C103     1.0000 0.95280  0.89930  0.92360  Biso   1.000  C
  C104     1.0000 0.97660  0.82350  0.88200  Biso   1.000  C
  C105     1.0000 0.88010  0.85110  0.85630  Biso   1.000  C
  C106     1.0000 0.19790  0.93590  0.06190  Biso   1.000  C
  C107     1.0000 0.31820  0.99590  0.02370  Biso   1.000  C
  C108     1.0000 0.30490  0.95320  0.98920  Biso   1.000  C
  C109     1.0000 0.35720  0.78750  0.89960  Biso   1.000  C
  C110     1.0000 0.47890  0.81700  0.96560  Biso   1.000  C
  C111     1.0000 0.56470  0.79330  0.92790  Biso   1.000  C
  C112     1.0000 0.12380  0.78510  0.08770  Biso   1.000  C
  C113     1.0000 0.97540  0.76120  0.02890  Biso   1.000  C
  C114     1.0000 0.94750  0.73350  0.07390  Biso   1.000  C
  C115     1.0000 0.31580  0.74570  0.24670  Biso   1.000  C
  C116     1.0000 0.28330  0.82470  0.28020  Biso   1.000  C
  C117     1.0000 0.17020  0.81040  0.24940  Biso   1.000  C
  C118     1.0000 0.86610  0.40030  0.79470  Biso   1.000  C
  C119     1.0000 0.83700  0.38540  0.87320  Biso   1.000  C
  C120     1.0000 0.80220  0.43800  0.86780  Biso   1.000  C
  N1       1.0000 0.14970  0.21680  0.28170  Biso   1.000  N
  N2       1.0000 0.33960  0.22930  0.23250  Biso   1.000  N
  N3       1.0000 0.87130  0.16360  0.33600  Biso   1.000  N
  N4       1.0000 0.78450  0.07980  0.32150  Biso   1.000  N
  N5       1.0000 0.60750  0.03760  0.22020  Biso   1.000  N
  N6       1.0000 0.42090  0.04700  0.16950  Biso   1.000  N
  N7       1.0000 0.92000  0.99120  0.23950  Biso   1.000  N
  N8       1.0000 0.10830  0.99740  0.18890  Biso   1.000  N
  N9       1.0000 0.63660  0.39980  0.38340  Biso   1.000  N
  N10      1.0000 0.47320  0.35290  0.42580  Biso   1.000  N
  N11      1.0000 0.24860  0.48560  0.57040  Biso   1.000  N
  N12      1.0000 0.27460  0.41430  0.51390  Biso   1.000  N
  N13      1.0000 0.15430  0.31230  0.44790  Biso   1.000  N
  N14      1.0000 0.01300  0.27400  0.38570  Biso   1.000  N
  N15      1.0000 0.41250  0.29390  0.53720  Biso   1.000  N
  N16      1.0000 0.45660  0.24810  0.61160  Biso   1.000  N
  N17      1.0000 0.30670  0.25950  0.72830  Biso   1.000  N
  N18      1.0000 0.12360  0.28330  0.77850  Biso   1.000  N
  N19      1.0000 0.62080  0.86140  0.32850  Biso   1.000  N
  N20      1.0000 0.67630  0.94770  0.31510  Biso   1.000  N
  N21      1.0000 0.64970  0.28320  0.21830  Biso   1.000  N
  N22      1.0000 0.83960  0.27070  0.26750  Biso   1.000  N
  N23      1.0000 0.37130  0.33640  0.16400  Biso   1.000  N
  N24      1.0000 0.28450  0.42020  0.17850  Biso   1.000  N
  N25      1.0000 0.10750  0.46240  0.27980  Biso   1.000  N
  N26      1.0000 0.92090  0.45300  0.33050  Biso   1.000  N
  N27      1.0000 0.42000  0.50880  0.26050  Biso   1.000  N
  N28      1.0000 0.60830  0.50260  0.31110  Biso   1.000  N
  N29      1.0000 0.13660  0.10020  0.11660  Biso   1.000  N
  N30      1.0000 0.97320  0.14710  0.07420  Biso   1.000  N
  N31      1.0000 0.74860  0.01440  0.92960  Biso   1.000  N
  N32      1.0000 0.77460  0.08570  0.98610  Biso   1.000  N
  N33      1.0000 0.65430  0.18770  0.05210  Biso   1.000  N
  N34      1.0000 0.51300  0.22600  0.11430  Biso   1.000  N
  N35      1.0000 0.91250  0.20610  0.96280  Biso   1.000  N
  N36      1.0000 0.95660  0.25190  0.88840  Biso   1.000  N
  N37      1.0000 0.80670  0.24050  0.77170  Biso   1.000  N
  N38      1.0000 0.62360  0.21670  0.72150  Biso   1.000  N
  N39      1.0000 0.12080  0.63860  0.17150  Biso   1.000  N
  N40      1.0000 0.17630  0.55230  0.18490  Biso   1.000  N
  N41      1.0000 0.85030  0.78320  0.71830  Biso   1.000  N
  N42      1.0000 0.66040  0.77070  0.76750  Biso   1.000  N
  N43      1.0000 0.12870  0.83640  0.66400  Biso   1.000  N
  N44      1.0000 0.21550  0.92020  0.67850  Biso   1.000  N
  N45      1.0000 0.39250  0.96240  0.77980  Biso   1.000  N
  N46      1.0000 0.57910  0.95300  0.83050  Biso   1.000  N
  N47      1.0000 0.08000  0.00880  0.76050  Biso   1.000  N
  N48      1.0000 0.89170  0.00260  0.81110  Biso   1.000  N
  N49      1.0000 0.36340  0.60020  0.61660  Biso   1.000  N
  N50      1.0000 0.52680  0.64710  0.57420  Biso   1.000  N
  N51      1.0000 0.75140  0.51440  0.42960  Biso   1.000  N
  N52      1.0000 0.72540  0.58570  0.48610  Biso   1.000  N
  N53      1.0000 0.84570  0.68770  0.55210  Biso   1.000  N
  N54      1.0000 0.98700  0.72600  0.61430  Biso   1.000  N
  N55      1.0000 0.58750  0.70610  0.46280  Biso   1.000  N
  N56      1.0000 0.54340  0.75190  0.38840  Biso   1.000  N
  N57      1.0000 0.69330  0.74050  0.27170  Biso   1.000  N
  N58      1.0000 0.87640  0.71670  0.22150  Biso   1.000  N
  N59      1.0000 0.37920  0.13860  0.67150  Biso   1.000  N
  N60      1.0000 0.32370  0.05230  0.68490  Biso   1.000  N
  N61      1.0000 0.35030  0.71680  0.78170  Biso   1.000  N
  N62      1.0000 0.16040  0.72930  0.73250  Biso   1.000  N
  N63      1.0000 0.62870  0.66360  0.83600  Biso   1.000  N
  N64      1.0000 0.71550  0.57980  0.82150  Biso   1.000  N
  N65      1.0000 0.89250  0.53760  0.72020  Biso   1.000  N
  N66      1.0000 0.07910  0.54700  0.66950  Biso   1.000  N
  N67      1.0000 0.58000  0.49120  0.73950  Biso   1.000  N
  N68      1.0000 0.39170  0.49740  0.68890  Biso   1.000  N
  N69      1.0000 0.86340  0.89980  0.88340  Biso   1.000  N
  N70      1.0000 0.02680  0.85290  0.92580  Biso   1.000  N
  N71      1.0000 0.25140  0.98560  0.07040  Biso   1.000  N
  N72      1.0000 0.22540  0.91430  0.01390  Biso   1.000  N
  N73      1.0000 0.34570  0.81230  0.94790  Biso   1.000  N
  N74      1.0000 0.48700  0.77400  0.88570  Biso   1.000  N
  N75      1.0000 0.08750  0.79390  0.03720  Biso   1.000  N
  N76      1.0000 0.04340  0.74810  0.11160  Biso   1.000  N
  N77      1.0000 0.19330  0.75950  0.22830  Biso   1.000  N
  N78      1.0000 0.37640  0.78330  0.27850  Biso   1.000  N
  N79      1.0000 0.87920  0.36140  0.82850  Biso   1.000  N
  N80      1.0000 0.82370  0.44770  0.81510  Biso   1.000  N
