data_image0
_cell_length_a       17.7771
_cell_length_b       17.7771
_cell_length_c       19.1129
_cell_angle_alpha    90
_cell_angle_beta     90
_cell_angle_gamma    120

_symmetry_space_group_name_H-M    P 1
_symmetry_int_tables_number       1

loop_
  _symmetry_equiv_pos_as_xyz
  'x, y, z'

loop_
  _atom_site_label
  _atom_site_occupancy
  _atom_site_fract_x
  _atom_site_fract_y
  _atom_site_fract_z
  _atom_site_thermal_displace_type
  _atom_site_B_iso_or_equiv
  _atom_site_type_symbol
  Zn1      1.0000 0.87250  0.50440  0.32850  Biso   1.000  Zn
  Zn2      1.0000 0.63190  0.12750  0.32850  Biso   1.000  Zn
  Zn3      1.0000 0.49560  0.36810  0.32850  Biso   1.000  Zn
  Zn4      1.0000 0.36810  0.49560  0.67150  Biso   1.000  Zn
  Zn5      1.0000 0.50440  0.87250  0.67150  Biso   1.000  Zn
  Zn6      1.0000 0.12750  0.63190  0.67150  Biso   1.000  Zn
  Zn7      1.0000 0.66667  0.33334  0.26500  Biso   1.000  Zn
  Zn8      1.0000 0.33333  0.66666  0.73500  Biso   1.000  Zn
  Co1      1.0000 0.66667  0.33334  0.07630  Biso   1.000  Co
  Co2      1.0000 0.33333  0.66666  0.92370  Biso   1.000  Co
  H1       1.0000 0.12922  0.64737  0.42678  Biso   1.000  H
  H2       1.0000 0.09476  0.71126  0.44308  Biso   1.000  H
  H3       1.0000 0.13518  0.71345  0.36969  Biso   1.000  H
  H4       1.0000 0.55771  0.53713  0.43944  Biso   1.000  H
  H5       1.0000 0.79931  0.71602  0.50293  Biso   1.000  H
  H6       1.0000 0.86203  0.65206  0.44037  Biso   1.000  H
  H7       1.0000 0.85922  0.47045  0.99937  Biso   1.000  H
  H8       1.0000 0.01990  0.62929  0.19823  Biso   1.000  H
  H9       1.0000 0.08552  0.65217  0.08920  Biso   1.000  H
  H10      1.0000 0.51815  0.87078  0.42678  Biso   1.000  H
  H11      1.0000 0.61650  0.90524  0.44308  Biso   1.000  H
  H12      1.0000 0.57827  0.86482  0.36969  Biso   1.000  H
  H13      1.0000 0.97942  0.44229  0.43944  Biso   1.000  H
  H14      1.0000 0.91671  0.20069  0.50293  Biso   1.000  H
  H15      1.0000 0.79003  0.13797  0.44037  Biso   1.000  H
  H16      1.0000 0.61123  0.14078  0.99937  Biso   1.000  H
  H17      1.0000 0.60939  0.98010  0.19823  Biso   1.000  H
  H18      1.0000 0.56665  0.91448  0.08920  Biso   1.000  H
  H19      1.0000 0.35263  0.48185  0.42678  Biso   1.000  H
  H20      1.0000 0.28874  0.38350  0.44308  Biso   1.000  H
  H21      1.0000 0.28655  0.42173  0.36969  Biso   1.000  H
  H22      1.0000 0.46287  0.02058  0.43944  Biso   1.000  H
  H23      1.0000 0.28398  0.08329  0.50293  Biso   1.000  H
  H24      1.0000 0.34794  0.20997  0.44037  Biso   1.000  H
  H25      1.0000 0.52955  0.38877  0.99937  Biso   1.000  H
  H26      1.0000 0.37071  0.39061  0.19823  Biso   1.000  H
  H27      1.0000 0.34783  0.43335  0.08920  Biso   1.000  H
  H28      1.0000 0.48185  0.35263  0.57322  Biso   1.000  H
  H29      1.0000 0.38350  0.28874  0.55692  Biso   1.000  H
  H30      1.0000 0.42173  0.28655  0.63031  Biso   1.000  H
  H31      1.0000 0.02058  0.46287  0.56056  Biso   1.000  H
  H32      1.0000 0.08329  0.28398  0.49707  Biso   1.000  H
  H33      1.0000 0.20997  0.34794  0.55963  Biso   1.000  H
  H34      1.0000 0.38877  0.52955  0.00063  Biso   1.000  H
  H35      1.0000 0.39061  0.37071  0.80177  Biso   1.000  H
  H36      1.0000 0.43335  0.34783  0.91080  Biso   1.000  H
  H37      1.0000 0.64737  0.12922  0.57322  Biso   1.000  H
  H38      1.0000 0.71126  0.09476  0.55692  Biso   1.000  H
  H39      1.0000 0.71345  0.13518  0.63031  Biso   1.000  H
  H40      1.0000 0.53713  0.55771  0.56056  Biso   1.000  H
  H41      1.0000 0.71602  0.79931  0.49707  Biso   1.000  H
  H42      1.0000 0.65206  0.86203  0.55963  Biso   1.000  H
  H43      1.0000 0.47045  0.85922  0.00063  Biso   1.000  H
  H44      1.0000 0.62929  0.01990  0.80177  Biso   1.000  H
  H45      1.0000 0.65217  0.08552  0.91080  Biso   1.000  H
  H46      1.0000 0.87078  0.51815  0.57322  Biso   1.000  H
  H47      1.0000 0.90524  0.61650  0.55692  Biso   1.000  H
  H48      1.0000 0.86482  0.57827  0.63031  Biso   1.000  H
  H49      1.0000 0.44229  0.97942  0.56056  Biso   1.000  H
  H50      1.0000 0.20069  0.91671  0.49707  Biso   1.000  H
  H51      1.0000 0.13797  0.79003  0.55963  Biso   1.000  H
  H52      1.0000 0.14078  0.61123  0.00063  Biso   1.000  H
  H53      1.0000 0.98010  0.60939  0.80177  Biso   1.000  H
  H54      1.0000 0.91448  0.56665  0.91080  Biso   1.000  H
  C1       1.0000 0.01240  0.61043  0.38050  Biso   1.000  C
  C2       1.0000 0.10090  0.67660  0.40750  Biso   1.000  C
  C3       1.0000 0.65500  0.51400  0.40900  Biso   1.000  C
  C4       1.0000 0.74749  0.55549  0.40000  Biso   1.000  C
  C5       1.0000 0.61700  0.55700  0.44300  Biso   1.000  C
  C6       1.0000 0.76342  0.66542  0.47800  Biso   1.000  C
  C7       1.0000 0.80200  0.62900  0.44000  Biso   1.000  C
  C8       1.0000 0.67183  0.63283  0.48100  Biso   1.000  C
  C9       1.0000 0.90400  0.52800  0.16660  Biso   1.000  C
  C10      1.0000 0.85472  0.48272  0.10740  Biso   1.000  C
  C11      1.0000 0.89000  0.50220  0.03840  Biso   1.000  C
  C12      1.0000 0.97400  0.57200  0.03430  Biso   1.000  C
  C13      1.0000 0.98900  0.59600  0.16000  Biso   1.000  C
  C14      1.0000 0.02600  0.61300  0.09436  Biso   1.000  C
  C15      1.0000 0.59803  0.98760  0.38050  Biso   1.000  C
  C16      1.0000 0.57570  0.89910  0.40750  Biso   1.000  C
  C17      1.0000 0.85900  0.34500  0.40900  Biso   1.000  C
  C18      1.0000 0.80800  0.25251  0.40000  Biso   1.000  C
  C19      1.0000 0.94000  0.38300  0.44300  Biso   1.000  C
  C20      1.0000 0.90200  0.23658  0.47800  Biso   1.000  C
  C21      1.0000 0.82700  0.19800  0.44000  Biso   1.000  C
  C22      1.0000 0.96100  0.32817  0.48100  Biso   1.000  C
  C23      1.0000 0.62400  0.09600  0.16660  Biso   1.000  C
  C24      1.0000 0.62800  0.14528  0.10740  Biso   1.000  C
  C25      1.0000 0.61220  0.11000  0.03840  Biso   1.000  C
  C26      1.0000 0.59800  0.02600  0.03430  Biso   1.000  C
  C27      1.0000 0.60700  0.01100  0.16000  Biso   1.000  C
  C28      1.0000 0.58700  0.97400  0.09436  Biso   1.000  C
  C29      1.0000 0.38957  0.40197  0.38050  Biso   1.000  C
  C30      1.0000 0.32340  0.42430  0.40750  Biso   1.000  C
  C31      1.0000 0.48600  0.14100  0.40900  Biso   1.000  C
  C32      1.0000 0.44451  0.19200  0.40000  Biso   1.000  C
  C33      1.0000 0.44300  0.06000  0.44300  Biso   1.000  C
  C34      1.0000 0.33458  0.09800  0.47800  Biso   1.000  C
  C35      1.0000 0.37100  0.17300  0.44000  Biso   1.000  C
  C36      1.0000 0.36717  0.03900  0.48100  Biso   1.000  C
  C37      1.0000 0.47200  0.37600  0.16660  Biso   1.000  C
  C38      1.0000 0.51728  0.37200  0.10740  Biso   1.000  C
  C39      1.0000 0.49780  0.38780  0.03840  Biso   1.000  C
  C40      1.0000 0.42800  0.40200  0.03430  Biso   1.000  C
  C41      1.0000 0.40400  0.39300  0.16000  Biso   1.000  C
  C42      1.0000 0.38700  0.41300  0.09436  Biso   1.000  C
  C43      1.0000 0.40197  0.38957  0.61950  Biso   1.000  C
  C44      1.0000 0.42430  0.32340  0.59250  Biso   1.000  C
  C45      1.0000 0.14100  0.48600  0.59100  Biso   1.000  C
  C46      1.0000 0.19200  0.44451  0.60000  Biso   1.000  C
  C47      1.0000 0.06000  0.44300  0.55700  Biso   1.000  C
  C48      1.0000 0.09800  0.33458  0.52200  Biso   1.000  C
  C49      1.0000 0.17300  0.37100  0.56000  Biso   1.000  C
  C50      1.0000 0.03900  0.36717  0.51900  Biso   1.000  C
  C51      1.0000 0.37600  0.47200  0.83340  Biso   1.000  C
  C52      1.0000 0.37200  0.51728  0.89260  Biso   1.000  C
  C53      1.0000 0.38780  0.49780  0.96160  Biso   1.000  C
  C54      1.0000 0.40200  0.42800  0.96570  Biso   1.000  C
  C55      1.0000 0.39300  0.40400  0.84000  Biso   1.000  C
  C56      1.0000 0.41300  0.38700  0.90564  Biso   1.000  C
  C57      1.0000 0.61043  0.01240  0.61950  Biso   1.000  C
  C58      1.0000 0.67660  0.10090  0.59250  Biso   1.000  C
  C59      1.0000 0.51400  0.65500  0.59100  Biso   1.000  C
  C60      1.0000 0.55549  0.74749  0.60000  Biso   1.000  C
  C61      1.0000 0.55700  0.61700  0.55700  Biso   1.000  C
  C62      1.0000 0.66542  0.76342  0.52200  Biso   1.000  C
  C63      1.0000 0.62900  0.80200  0.56000  Biso   1.000  C
  C64      1.0000 0.63283  0.67183  0.51900  Biso   1.000  C
  C65      1.0000 0.52800  0.90400  0.83340  Biso   1.000  C
  C66      1.0000 0.48272  0.85472  0.89260  Biso   1.000  C
  C67      1.0000 0.50220  0.89000  0.96160  Biso   1.000  C
  C68      1.0000 0.57200  0.97400  0.96570  Biso   1.000  C
  C69      1.0000 0.59600  0.98900  0.84000  Biso   1.000  C
  C70      1.0000 0.61300  0.02600  0.90564  Biso   1.000  C
  C71      1.0000 0.98760  0.59803  0.61950  Biso   1.000  C
  C72      1.0000 0.89910  0.57570  0.59250  Biso   1.000  C
  C73      1.0000 0.34500  0.85900  0.59100  Biso   1.000  C
  C74      1.0000 0.25251  0.80800  0.60000  Biso   1.000  C
  C75      1.0000 0.38300  0.94000  0.55700  Biso   1.000  C
  C76      1.0000 0.23658  0.90200  0.52200  Biso   1.000  C
  C77      1.0000 0.19800  0.82700  0.56000  Biso   1.000  C
  C78      1.0000 0.32817  0.96100  0.51900  Biso   1.000  C
  C79      1.0000 0.09600  0.62400  0.83340  Biso   1.000  C
  C80      1.0000 0.14528  0.62800  0.89260  Biso   1.000  C
  C81      1.0000 0.11000  0.61220  0.96160  Biso   1.000  C
  C82      1.0000 0.02600  0.59800  0.96570  Biso   1.000  C
  C83      1.0000 0.01100  0.60700  0.84000  Biso   1.000  C
  C84      1.0000 0.97400  0.58700  0.90564  Biso   1.000  C
  N1       1.0000 0.76110  0.50010  0.36000  Biso   1.000  N
  N2       1.0000 0.68466  0.43866  0.33600  Biso   1.000  N
  N3       1.0000 0.61800  0.44500  0.36600  Biso   1.000  N
  N4       1.0000 0.85300  0.48600  0.22350  Biso   1.000  N
  N5       1.0000 0.77800  0.42200  0.19920  Biso   1.000  N
  N6       1.0000 0.77601  0.41701  0.12930  Biso   1.000  N
  N7       1.0000 0.73900  0.23890  0.36000  Biso   1.000  N
  N8       1.0000 0.75400  0.31534  0.33600  Biso   1.000  N
  N9       1.0000 0.82700  0.38200  0.36600  Biso   1.000  N
  N10      1.0000 0.63300  0.14700  0.22350  Biso   1.000  N
  N11      1.0000 0.64400  0.22200  0.19920  Biso   1.000  N
  N12      1.0000 0.64100  0.22399  0.12930  Biso   1.000  N
  N13      1.0000 0.49990  0.26100  0.36000  Biso   1.000  N
  N14      1.0000 0.56134  0.24600  0.33600  Biso   1.000  N
  N15      1.0000 0.55500  0.17300  0.36600  Biso   1.000  N
  N16      1.0000 0.51400  0.36700  0.22350  Biso   1.000  N
  N17      1.0000 0.57800  0.35600  0.19920  Biso   1.000  N
  N18      1.0000 0.58299  0.35900  0.12930  Biso   1.000  N
  N19      1.0000 0.26100  0.49990  0.64000  Biso   1.000  N
  N20      1.0000 0.24600  0.56134  0.66400  Biso   1.000  N
  N21      1.0000 0.17300  0.55500  0.63400  Biso   1.000  N
  N22      1.0000 0.36700  0.51400  0.77650  Biso   1.000  N
  N23      1.0000 0.35600  0.57800  0.80080  Biso   1.000  N
  N24      1.0000 0.35900  0.58299  0.87070  Biso   1.000  N
  N25      1.0000 0.50010  0.76110  0.64000  Biso   1.000  N
  N26      1.0000 0.43866  0.68466  0.66400  Biso   1.000  N
  N27      1.0000 0.44500  0.61800  0.63400  Biso   1.000  N
  N28      1.0000 0.48600  0.85300  0.77650  Biso   1.000  N
  N29      1.0000 0.42200  0.77800  0.80080  Biso   1.000  N
  N30      1.0000 0.41701  0.77601  0.87070  Biso   1.000  N
  N31      1.0000 0.23890  0.73900  0.64000  Biso   1.000  N
  N32      1.0000 0.31534  0.75400  0.66400  Biso   1.000  N
  N33      1.0000 0.38200  0.82700  0.63400  Biso   1.000  N
  N34      1.0000 0.14700  0.63300  0.77650  Biso   1.000  N
  N35      1.0000 0.22200  0.64400  0.80080  Biso   1.000  N
  N36      1.0000 0.22399  0.64100  0.87070  Biso   1.000  N
  O1       1.0000 0.94100  0.56300  0.42700  Biso   1.000  O
  O2       1.0000 0.99900  0.60170  0.32520  Biso   1.000  O
  O3       1.0000 0.62200  0.05900  0.42700  Biso   1.000  O
  O4       1.0000 0.60270  0.00100  0.32520  Biso   1.000  O
  O5       1.0000 0.43700  0.37800  0.42700  Biso   1.000  O
  O6       1.0000 0.39830  0.39730  0.32520  Biso   1.000  O
  O7       1.0000 0.37800  0.43700  0.57300  Biso   1.000  O
  O8       1.0000 0.39730  0.39830  0.67480  Biso   1.000  O
  O9       1.0000 0.56300  0.94100  0.57300  Biso   1.000  O
  O10      1.0000 0.60170  0.99900  0.67480  Biso   1.000  O
  O11      1.0000 0.05900  0.62200  0.57300  Biso   1.000  O
  O12      1.0000 0.00100  0.60270  0.67480  Biso   1.000  O
