data_image0
_cell_length_a       9.6535
_cell_length_b       12.9132
_cell_length_c       17.2072
_cell_angle_alpha    105.774
_cell_angle_beta     90
_cell_angle_gamma    111.949

_symmetry_space_group_name_H-M    P 1
_symmetry_int_tables_number       1

loop_
  _symmetry_equiv_pos_as_xyz
  'x, y, z'

loop_
  _atom_site_label
  _atom_site_occupancy
  _atom_site_fract_x
  _atom_site_fract_y
  _atom_site_fract_z
  _atom_site_thermal_displace_type
  _atom_site_B_iso_or_equiv
  _atom_site_type_symbol
  Ni1      1.0000 0.08261  0.05512  0.61039  Biso   1.000  Ni
  Ni2      1.0000 0.97251  0.05512  0.11039  Biso   1.000  Ni
  H1       1.0000 0.16610  0.98580  0.76310  Biso   1.000  H
  H2       1.0000 0.20270  0.80560  0.76460  Biso   1.000  H
  H3       1.0000 0.15710  0.68160  0.62130  Biso   1.000  H
  H4       1.0000 0.04860  0.74560  0.33620  Biso   1.000  H
  H5       1.0000 0.02180  0.90840  0.29700  Biso   1.000  H
  H6       1.0000 0.02520  0.05720  0.42650  Biso   1.000  H
  H7       1.0000 0.31350  0.70640  0.47870  Biso   1.000  H
  H8       1.0000 0.30990  0.52480  0.40860  Biso   1.000  H
  H9       1.0000 0.85970  0.39820  0.36730  Biso   1.000  H
  H10      1.0000 0.86410  0.58200  0.43190  Biso   1.000  H
  H11      1.0000 0.92080  0.26880  0.24550  Biso   1.000  H
  H12      1.0000 0.20140  0.13400  0.29080  Biso   1.000  H
  H13      1.0000 0.26070  0.31780  0.39910  Biso   1.000  H
  H14      1.0000 0.40590  0.04180  0.61640  Biso   1.000  H
  H15      1.0000 0.65350  0.20820  0.63670  Biso   1.000  H
  H16      1.0000 0.60210  0.37860  0.62640  Biso   1.000  H
  H17      1.0000 0.09650  0.43600  0.56060  Biso   1.000  H
  H18      1.0000 0.82930  0.29940  0.52260  Biso   1.000  H
  H19      1.0000 0.81220  0.11060  0.54290  Biso   1.000  H
  H20      1.0000 0.49300  0.43380  0.50800  Biso   1.000  H
  H21      1.0000 0.63320  0.62940  0.52210  Biso   1.000  H
  H22      1.0000 0.44820  0.72060  0.72560  Biso   1.000  H
  H23      1.0000 0.30020  0.52560  0.70820  Biso   1.000  H
  H24      1.0000 0.84490  0.80540  0.59860  Biso   1.000  H
  H25      1.0000 0.74280  0.07900  0.67640  Biso   1.000  H
  H26      1.0000 0.51930  0.90880  0.68030  Biso   1.000  H
  H27      1.0000 0.81970  0.98580  0.26310  Biso   1.000  H
  H28      1.0000 0.60290  0.80560  0.26460  Biso   1.000  H
  H29      1.0000 0.52450  0.68160  0.12130  Biso   1.000  H
  H30      1.0000 0.69700  0.74560  0.83620  Biso   1.000  H
  H31      1.0000 0.88660  0.90840  0.79700  Biso   1.000  H
  H32      1.0000 0.03200  0.05720  0.92650  Biso   1.000  H
  H33      1.0000 0.39290  0.70640  0.97870  Biso   1.000  H
  H34      1.0000 0.21490  0.52480  0.90860  Biso   1.000  H
  H35      1.0000 0.53850  0.39820  0.86730  Biso   1.000  H
  H36      1.0000 0.71790  0.58200  0.93190  Biso   1.000  H
  H37      1.0000 0.34800  0.26880  0.74550  Biso   1.000  H
  H38      1.0000 0.93260  0.13400  0.79080  Biso   1.000  H
  H39      1.0000 0.05710  0.31780  0.89910  Biso   1.000  H
  H40      1.0000 0.63590  0.04180  0.11640  Biso   1.000  H
  H41      1.0000 0.55470  0.20820  0.13670  Biso   1.000  H
  H42      1.0000 0.77650  0.37860  0.12640  Biso   1.000  H
  H43      1.0000 0.33950  0.43600  0.06060  Biso   1.000  H
  H44      1.0000 0.47010  0.29940  0.02260  Biso   1.000  H
  H45      1.0000 0.29840  0.11060  0.04290  Biso   1.000  H
  H46      1.0000 0.94080  0.43380  0.00800  Biso   1.000  H
  H47      1.0000 0.99620  0.62940  0.02210  Biso   1.000  H
  H48      1.0000 0.27240  0.72060  0.22560  Biso   1.000  H
  H49      1.0000 0.22540  0.52560  0.20820  Biso   1.000  H
  H50      1.0000 0.96050  0.80540  0.09860  Biso   1.000  H
  H51      1.0000 0.33620  0.07900  0.17640  Biso   1.000  H
  H52      1.0000 0.38950  0.90880  0.18030  Biso   1.000  H
  C1       1.0000 0.15846  0.92532  0.71699  Biso   1.000  C
  C2       1.0000 0.17823  0.82326  0.71885  Biso   1.000  C
  C3       1.0000 0.15408  0.75536  0.63974  Biso   1.000  C
  C4       1.0000 0.12376  0.81904  0.59123  Biso   1.000  C
  C5       1.0000 0.09048  0.78180  0.50630  Biso   1.000  C
  C6       1.0000 0.05966  0.84392  0.45815  Biso   1.000  C
  C7       1.0000 0.04685  0.81390  0.37136  Biso   1.000  C
  C8       1.0000 0.03144  0.90308  0.34943  Biso   1.000  C
  C9       1.0000 0.03352  0.98684  0.42379  Biso   1.000  C
  C10      1.0000 0.08938  0.66394  0.46199  Biso   1.000  C
  C11      1.0000 0.22252  0.64524  0.45537  Biso   1.000  C
  C12      1.0000 0.22037  0.53614  0.41424  Biso   1.000  C
  C13      1.0000 0.08532  0.44430  0.38163  Biso   1.000  C
  C14      1.0000 0.95076  0.46054  0.38871  Biso   1.000  C
  C15      1.0000 0.95373  0.57046  0.42807  Biso   1.000  C
  C16      1.0000 0.99834  0.25786  0.26966  Biso   1.000  C
  C17      1.0000 0.15245  0.18470  0.29470  Biso   1.000  C
  C18      1.0000 0.18557  0.28614  0.35556  Biso   1.000  C
  C19      1.0000 0.41876  0.11626  0.61480  Biso   1.000  C
  C20      1.0000 0.55987  0.21000  0.62677  Biso   1.000  C
  C21      1.0000 0.53146  0.30386  0.62091  Biso   1.000  C
  C22      1.0000 0.37209  0.26464  0.60480  Biso   1.000  C
  C23      1.0000 0.29119  0.33296  0.59785  Biso   1.000  C
  C24      1.0000 0.13490  0.29484  0.58350  Biso   1.000  C
  C25      1.0000 0.05562  0.35868  0.56110  Biso   1.000  C
  C26      1.0000 0.90814  0.28372  0.54054  Biso   1.000  C
  C27      1.0000 0.90052  0.17698  0.55226  Biso   1.000  C
  C28      1.0000 0.38236  0.45930  0.60679  Biso   1.000  C
  C29      1.0000 0.48286  0.49112  0.55124  Biso   1.000  C
  C30      1.0000 0.56818  0.60830  0.56010  Biso   1.000  C
  C31      1.0000 0.55599  0.69328  0.62557  Biso   1.000  C
  C32      1.0000 0.45617  0.66310  0.68172  Biso   1.000  C
  C33      1.0000 0.36864  0.54622  0.67155  Biso   1.000  C
  C34      1.0000 0.79269  0.85306  0.61807  Biso   1.000  C
  C35      1.0000 0.73556  0.00224  0.66093  Biso   1.000  C
  C36      1.0000 0.61062  0.90842  0.66332  Biso   1.000  C
  C37      1.0000 0.76686  0.92532  0.21699  Biso   1.000  C
  C38      1.0000 0.64503  0.82326  0.21885  Biso   1.000  C
  C39      1.0000 0.60128  0.75536  0.13974  Biso   1.000  C
  C40      1.0000 0.69528  0.81904  0.09123  Biso   1.000  C
  C41      1.0000 0.69132  0.78180  0.00630  Biso   1.000  C
  C42      1.0000 0.78426  0.84392  0.95815  Biso   1.000  C
  C43      1.0000 0.76705  0.81390  0.87136  Biso   1.000  C
  C44      1.0000 0.87164  0.90308  0.84943  Biso   1.000  C
  C45      1.0000 0.95332  0.98684  0.92379  Biso   1.000  C
  C46      1.0000 0.57456  0.66394  0.96199  Biso   1.000  C
  C47      1.0000 0.42272  0.64524  0.95537  Biso   1.000  C
  C48      1.0000 0.31577  0.53614  0.91424  Biso   1.000  C
  C49      1.0000 0.35898  0.44430  0.88163  Biso   1.000  C
  C50      1.0000 0.50978  0.46054  0.88871  Biso   1.000  C
  C51      1.0000 0.61673  0.57046  0.92807  Biso   1.000  C
  C52      1.0000 0.25952  0.25786  0.76966  Biso   1.000  C
  C53      1.0000 0.03225  0.18470  0.79470  Biso   1.000  C
  C54      1.0000 0.10057  0.28614  0.85556  Biso   1.000  C
  C55      1.0000 0.69750  0.11626  0.11480  Biso   1.000  C
  C56      1.0000 0.65013  0.21000  0.12677  Biso   1.000  C
  C57      1.0000 0.77240  0.30386  0.12091  Biso   1.000  C
  C58      1.0000 0.89255  0.26464  0.10480  Biso   1.000  C
  C59      1.0000 0.04177  0.33296  0.09785  Biso   1.000  C
  C60      1.0000 0.15994  0.29484  0.08350  Biso   1.000  C
  C61      1.0000 0.30306  0.35868  0.06110  Biso   1.000  C
  C62      1.0000 0.37558  0.28372  0.04054  Biso   1.000  C
  C63      1.0000 0.27646  0.17698  0.05226  Biso   1.000  C
  C64      1.0000 0.07694  0.45930  0.10679  Biso   1.000  C
  C65      1.0000 0.00826  0.49112  0.05124  Biso   1.000  C
  C66      1.0000 0.04012  0.60830  0.06010  Biso   1.000  C
  C67      1.0000 0.13729  0.69328  0.12557  Biso   1.000  C
  C68      1.0000 0.20693  0.66310  0.18172  Biso   1.000  C
  C69      1.0000 0.17758  0.54622  0.17155  Biso   1.000  C
  C70      1.0000 0.06037  0.85306  0.11807  Biso   1.000  C
  C71      1.0000 0.26668  0.00224  0.16093  Biso   1.000  C
  C72      1.0000 0.29780  0.90842  0.16332  Biso   1.000  C
  N1       1.0000 0.12767  0.92518  0.64167  Biso   1.000  N
  N2       1.0000 0.04874  0.95306  0.48883  Biso   1.000  N
  N3       1.0000 0.08500  0.33222  0.33936  Biso   1.000  N
  N4       1.0000 0.03646  0.16776  0.23983  Biso   1.000  N
  N5       1.0000 0.30646  0.14748  0.60101  Biso   1.000  N
  N6       1.0000 0.03340  0.18232  0.57809  Biso   1.000  N
  N7       1.0000 0.64820  0.81344  0.63531  Biso   1.000  N
  N8       1.0000 0.84983  0.96756  0.63234  Biso   1.000  N
  N9       1.0000 0.79751  0.92518  0.14167  Biso   1.000  N
  N10      1.0000 0.90432  0.95306  0.98883  Biso   1.000  N
  N11      1.0000 0.24722  0.33222  0.83936  Biso   1.000  N
  N12      1.0000 0.13130  0.16776  0.73983  Biso   1.000  N
  N13      1.0000 0.84102  0.14748  0.10101  Biso   1.000  N
  N14      1.0000 0.14892  0.18232  0.07809  Biso   1.000  N
  N15      1.0000 0.16524  0.81344  0.13531  Biso   1.000  N
  N16      1.0000 0.11773  0.96756  0.13234  Biso   1.000  N
