data_HIHGEM_clean_b
_audit_creation_date              2014-07-02
_audit_creation_method            'Materials Studio'
_symmetry_space_group_name_H-M    'CCCM'
_symmetry_Int_Tables_number       66
_symmetry_cell_setting            orthorhombic
loop_
_symmetry_equiv_pos_as_xyz
  x,y,z
  -x,-y,z
  -x,y,-z+1/2
  x,-y,-z+1/2
  -x,-y,-z
  x,y,-z
  x,-y,z+1/2
  -x,y,z+1/2
  x+1/2,y+1/2,z
  -x+1/2,-y+1/2,z
  -x+1/2,y+1/2,-z+1/2
  x+1/2,-y+1/2,-z+1/2
  -x+1/2,-y+1/2,-z
  x+1/2,y+1/2,-z
  x+1/2,-y+1/2,z+1/2
  -x+1/2,y+1/2,z+1/2
_cell_length_a                    18.7740
_cell_length_b                    29.7040
_cell_length_c                    24.8900
_cell_angle_alpha                 90.0000
_cell_angle_beta                  90.0000
_cell_angle_gamma                 90.0000
loop_
_atom_site_label
_atom_site_type_symbol
_atom_site_fract_x
_atom_site_fract_y
_atom_site_fract_z
_atom_site_U_iso_or_equiv
_atom_site_adp_type
_atom_site_occupancy
C1     C     0.16100   0.10800   0.07780   0.00000  Uiso   1.00
O2     O     0.21310   0.08885   0.05702   0.00000  Uiso   1.00
C3     C     0.12540   0.08466   0.12372   0.00000  Uiso   1.00
C4     C     0.05450   0.03609   0.20501   0.00000  Uiso   1.00
C5     C     0.06040   0.09867   0.14190   0.00000  Uiso   1.00
H6     H     0.03940   0.12430   0.12730   0.00000  Uiso   1.00
O7     O     0.13480   0.14508   0.06341   0.00000  Uiso   1.00
C8     C     0.12090   0.02351   0.18640   0.00000  Uiso   1.00
H9     H     0.14250  -0.00200   0.20080   0.00000  Uiso   1.00
C10    C     0.15670   0.04788   0.14660   0.00000  Uiso   1.00
H11    H     0.20190   0.03900   0.13560   0.00000  Uiso   1.00
C12    C     0.02550   0.07473   0.18220   0.00000  Uiso   1.00
H13    H    -0.01860   0.08490   0.19430   0.00000  Uiso   1.00
C14    C     0.17790   0.28859  -0.07500   0.00000  Uiso   1.00
C15    C     0.13620   0.30928  -0.12098   0.00000  Uiso   1.00
C16    C     0.05820   0.34975  -0.20437   0.00000  Uiso   1.00
C17    C     0.07870   0.28799  -0.14360   0.00000  Uiso   1.00
H18    H     0.06560   0.25960  -0.13140   0.00000  Uiso   1.00
C19    C     0.03950   0.30825  -0.18460   0.00000  Uiso   1.00
H20    H     0.00000   0.29350  -0.19870   0.00000  Uiso   1.00
C21    C     0.11510   0.37062  -0.18090   0.00000  Uiso   1.00
H22    H     0.12780   0.39920  -0.19300   0.00000  Uiso   1.00
C23    C     0.15480   0.35125  -0.14000   0.00000  Uiso   1.00
H24    H     0.19360   0.36650  -0.12550   0.00000  Uiso   1.00
O25    O     0.15740   0.25073  -0.05975   0.00000  Uiso   1.00
O26    O     0.22780   0.31093  -0.05499   0.00000  Uiso   1.00
C27    C     0.05430   0.41940  -0.29620   0.00000  Uiso   1.00
C28    C     0.16940   0.49520  -0.41660   0.00000  Uiso   1.00
C29    C     0.12890   0.46960  -0.37420   0.00000  Uiso   1.00
C30    C     0.05460   0.40130  -0.35070   0.00000  Uiso   1.00
C31    C     0.08990   0.42660  -0.38900   0.00000  Uiso   1.00
C32    C     0.12900   0.47630  -0.32190   0.00000  Uiso   1.00
C33    C     0.09260   0.45260  -0.28350   0.00000  Uiso   1.00
O34    O     0.16640   0.47980  -0.46230   0.00000  Uiso   1.00
O35    O     0.13620   0.53020  -0.44140   0.00000  Uiso   1.00
H36    H     0.47328   0.86805   0.14031   0.00000  Uiso   1.00
H37    H     0.41072   0.91453   0.06753   0.00000  Uiso   1.00
H38    H     0.33774   1.00467   0.19605   0.00000  Uiso   1.00
H39    H     0.40276   0.96321   0.26038   0.00000  Uiso   1.00
Er40   Er    0.17687   0.19461   0.00000   0.00000  Uiso   1.00
Er41   Er    0.26829   0.04170   0.00000   0.00000  Uiso   1.00
Si42   Si    0.00000   0.00000   0.25000   0.00000  Uiso   1.00
Si43   Si    0.00000   0.38344  -0.25000   0.00000  Uiso   1.00
loop_
_geom_bond_atom_site_label_1
_geom_bond_atom_site_label_2
_geom_bond_distance
_geom_bond_site_symmetry_2
_ccdc_geom_bond_type
C1     O2      1.244   .     A
C1     C3      1.495   .     S
C1     O7      1.258   .     A
O2     Er41    2.247   .     S
C3     C5      1.366   .     A
C3     C10     1.365   .     A
C4     C8      1.381   .     A
C4     C12     1.391   .     A
C4     Si42    1.857   .     S
C5     H6      0.931   .     S
C5     C12     1.393   .     A
O7     Er40    2.298   .     S
C8     H9      0.931   .     S
C8     C10     1.399   .     A
C10    H11     0.930   .     S
C12    H13     0.931   .     S
C14    C15     1.517   .     S
C14    O25     1.248   .     A
C14    O26     1.251   .     A
C15    C17     1.372   .     A
C15    C23     1.378   .     A
C16    C19     1.373   .     A
C16    C21     1.366   .     A
C16    Si43    1.867   .     S
C17    H18     0.929   .     S
C17    C19     1.395   .     A
C19    H20     0.930   .     S
C21    H22     0.932   .     S
C21    C23     1.387   .     A
C23    H24     0.931   .     S
O25    Er40    2.264   .     S
O26    Er40    2.259   10    A
C27    C30     1.459   .     A
C27    C33     1.261   .     A
C27    Si43    1.871   .     S
C28    C29     1.507   .     S
C28    O34     1.227   .     A
C28    O35     1.360   .     A
C29    C31     1.518   .     A
C29    C32     1.317   .     A
C30    C31     1.383   .     A
C30    H36     1.140   16_544 S
C31    H37     1.140   16_544 A
C32    C33     1.370   .     A
C32    H38     1.140   16_544 S
C33    H39     1.140   16_544 A
O34    O35     1.683   .     S
O34    Er41    2.401   11_554 A
O35    Er41    2.337   11_554 A
H36    C30     1.140   16    S
H37    C31     1.140   16    A
H38    C32     1.140   16    S
H39    C33     1.140   16    A
Er40   O7      2.298   6     S
Er40   O25     2.264   6     S
Er40   O26     2.259   10    A
Er40   O26     2.259   13    A
Er41   O2      2.247   6     S
Er41   O34     2.401   11_544 A
Er41   O34     2.401   16_545 A
Er41   O35     2.337   11_544 A
Er41   O35     2.337   16_545 A
Si42   C4      1.857   2     S
Si42   C4      1.857   3     S
Si42   C4      1.857   4     S
Si43   C16     1.867   3_554 S
Si43   C27     1.871   3_554 S
