data_image0
_cell_length_a       16.0346
_cell_length_b       16.0346
_cell_length_c       26.471
_cell_angle_alpha    84.3117
_cell_angle_beta     84.3117
_cell_angle_gamma    84.3683

_symmetry_space_group_name_H-M    P 1
_symmetry_int_tables_number       1

loop_
  _symmetry_equiv_pos_as_xyz
  'x, y, z'

loop_
  _atom_site_label
  _atom_site_occupancy
  _atom_site_fract_x
  _atom_site_fract_y
  _atom_site_fract_z
  _atom_site_thermal_displace_type
  _atom_site_B_iso_or_equiv
  _atom_site_type_symbol
  Co1      1.0000 0.72722  0.32122  0.49349  Biso   1.000  Co
  Co2      1.0000 0.89754  0.30618  0.47033  Biso   1.000  Co
  Co3      1.0000 0.32122  0.72722  0.99349  Biso   1.000  Co
  Co4      1.0000 0.30618  0.89754  0.97033  Biso   1.000  Co
  H1       1.0000 0.67800  0.55920  0.39410  Biso   1.000  H
  H2       1.0000 0.67590  0.68690  0.34460  Biso   1.000  H
  H3       1.0000 0.92580  0.66460  0.32940  Biso   1.000  H
  H4       1.0000 0.92790  0.53810  0.37740  Biso   1.000  H
  H5       1.0000 0.69760  0.82320  0.29960  Biso   1.000  H
  H6       1.0000 0.71430  0.75050  0.26300  Biso   1.000  H
  H7       1.0000 0.64680  0.92040  0.22140  Biso   1.000  H
  H8       1.0000 0.70850  0.92710  0.17120  Biso   1.000  H
  H9       1.0000 0.60070  0.69850  0.16320  Biso   1.000  H
  H10      1.0000 0.49400  0.69200  0.11150  Biso   1.000  H
  H11      1.0000 0.46940  0.94080  0.08870  Biso   1.000  H
  H12      1.0000 0.57440  0.94820  0.14250  Biso   1.000  H
  H13      1.0000 0.85060  0.91400  0.27380  Biso   1.000  H
  H14      1.0000 0.82350  0.97330  0.22610  Biso   1.000  H
  H15      1.0000 0.64830  0.05290  0.34410  Biso   1.000  H
  H16      1.0000 0.67440  0.15860  0.39100  Biso   1.000  H
  H17      1.0000 0.91820  0.13260  0.34330  Biso   1.000  H
  H18      1.0000 0.89030  0.03070  0.29070  Biso   1.000  H
  H19      1.0000 0.88660  0.79600  0.21700  Biso   1.000  H
  H20      1.0000 0.81950  0.76830  0.18410  Biso   1.000  H
  H21      1.0000 0.96150  0.73210  0.15350  Biso   1.000  H
  H22      1.0000 0.08720  0.71020  0.10080  Biso   1.000  H
  H23      1.0000 0.06870  0.95050  0.04960  Biso   1.000  H
  H24      1.0000 0.93980  0.97060  0.09570  Biso   1.000  H
  H25      1.0000 0.02580  0.39320  0.51510  Biso   1.000  H
  H26      1.0000 0.16770  0.39030  0.51750  Biso   1.000  H
  H27      1.0000 0.19730  0.20590  0.42680  Biso   1.000  H
  H28      1.0000 0.05270  0.21150  0.42750  Biso   1.000  H
  H29      1.0000 0.32190  0.24990  0.45570  Biso   1.000  H
  H30      1.0000 0.30200  0.37960  0.51210  Biso   1.000  H
  H31      1.0000 0.43510  0.45670  0.50480  Biso   1.000  H
  H32      1.0000 0.57510  0.44070  0.51810  Biso   1.000  H
  H33      1.0000 0.59120  0.20840  0.49050  Biso   1.000  H
  H34      1.0000 0.44790  0.21570  0.48210  Biso   1.000  H
  H35      1.0000 0.55920  0.67800  0.89410  Biso   1.000  H
  H36      1.0000 0.68690  0.67590  0.84460  Biso   1.000  H
  H37      1.0000 0.66460  0.92580  0.82940  Biso   1.000  H
  H38      1.0000 0.53810  0.92790  0.87740  Biso   1.000  H
  H39      1.0000 0.82320  0.69760  0.79960  Biso   1.000  H
  H40      1.0000 0.75050  0.71430  0.76300  Biso   1.000  H
  H41      1.0000 0.92040  0.64680  0.72140  Biso   1.000  H
  H42      1.0000 0.92710  0.70850  0.67120  Biso   1.000  H
  H43      1.0000 0.69850  0.60070  0.66320  Biso   1.000  H
  H44      1.0000 0.69200  0.49400  0.61150  Biso   1.000  H
  H45      1.0000 0.94080  0.46940  0.58870  Biso   1.000  H
  H46      1.0000 0.94820  0.57440  0.64250  Biso   1.000  H
  H47      1.0000 0.91400  0.85060  0.77380  Biso   1.000  H
  H48      1.0000 0.97330  0.82350  0.72610  Biso   1.000  H
  H49      1.0000 0.05290  0.64830  0.84410  Biso   1.000  H
  H50      1.0000 0.15860  0.67440  0.89100  Biso   1.000  H
  H51      1.0000 0.13260  0.91820  0.84330  Biso   1.000  H
  H52      1.0000 0.03070  0.89030  0.79070  Biso   1.000  H
  H53      1.0000 0.79600  0.88660  0.71700  Biso   1.000  H
  H54      1.0000 0.76830  0.81950  0.68410  Biso   1.000  H
  H55      1.0000 0.73210  0.96150  0.65350  Biso   1.000  H
  H56      1.0000 0.71020  0.08720  0.60080  Biso   1.000  H
  H57      1.0000 0.95050  0.06870  0.54960  Biso   1.000  H
  H58      1.0000 0.97060  0.93980  0.59570  Biso   1.000  H
  H59      1.0000 0.39320  0.02580  0.01510  Biso   1.000  H
  H60      1.0000 0.39030  0.16770  0.01750  Biso   1.000  H
  H61      1.0000 0.20590  0.19730  0.92680  Biso   1.000  H
  H62      1.0000 0.21150  0.05270  0.92750  Biso   1.000  H
  H63      1.0000 0.24990  0.32190  0.95570  Biso   1.000  H
  H64      1.0000 0.37960  0.30200  0.01210  Biso   1.000  H
  H65      1.0000 0.45670  0.43510  0.00480  Biso   1.000  H
  H66      1.0000 0.44070  0.57510  0.01810  Biso   1.000  H
  H67      1.0000 0.20840  0.59120  0.99050  Biso   1.000  H
  H68      1.0000 0.21570  0.44790  0.98210  Biso   1.000  H
  C1       1.0000 0.80612  0.45304  0.42286  Biso   1.000  C
  C2       1.0000 0.80341  0.53479  0.39045  Biso   1.000  C
  C3       1.0000 0.72836  0.58012  0.38064  Biso   1.000  C
  C4       1.0000 0.72686  0.65668  0.35093  Biso   1.000  C
  C5       1.0000 0.80109  0.68729  0.33100  Biso   1.000  C
  C6       1.0000 0.87522  0.64302  0.34189  Biso   1.000  C
  C7       1.0000 0.87651  0.56755  0.37088  Biso   1.000  C
  C8       1.0000 0.73950  0.79548  0.27629  Biso   1.000  C
  C9       1.0000 0.76778  0.85840  0.23269  Biso   1.000  C
  C10      1.0000 0.69093  0.89023  0.20081  Biso   1.000  C
  C11      1.0000 0.59794  0.82414  0.15637  Biso   1.000  C
  C12      1.0000 0.57435  0.74763  0.14810  Biso   1.000  C
  C13      1.0000 0.51061  0.74411  0.11694  Biso   1.000  C
  C14      1.0000 0.47162  0.81550  0.09410  Biso   1.000  C
  C15      1.0000 0.49564  0.89146  0.10366  Biso   1.000  C
  C16      1.0000 0.55918  0.89618  0.13563  Biso   1.000  C
  C17      1.0000 0.40881  0.81027  0.05660  Biso   1.000  C
  C18      1.0000 0.80361  0.93433  0.25409  Biso   1.000  C
  C19      1.0000 0.76657  0.03557  0.31207  Biso   1.000  C
  C20      1.0000 0.70213  0.07053  0.34272  Biso   1.000  C
  C21      1.0000 0.71857  0.13237  0.37131  Biso   1.000  C
  C22      1.0000 0.79905  0.15755  0.37203  Biso   1.000  C
  C23      1.0000 0.86348  0.11838  0.34266  Biso   1.000  C
  C24      1.0000 0.84705  0.05651  0.31135  Biso   1.000  C
  C25      1.0000 0.81463  0.22031  0.40752  Biso   1.000  C
  C26      1.0000 0.83925  0.81619  0.19756  Biso   1.000  C
  C27      1.0000 0.93926  0.85426  0.12921  Biso   1.000  C
  C28      1.0000 0.98221  0.77601  0.13179  Biso   1.000  C
  C29      1.0000 0.05883  0.76361  0.10070  Biso   1.000  C
  C30      1.0000 0.09133  0.82853  0.07083  Biso   1.000  C
  C31      1.0000 0.04691  0.90551  0.06977  Biso   1.000  C
  C32      1.0000 0.97009  0.91807  0.09813  Biso   1.000  C
  C33      1.0000 0.17494  0.81654  0.04073  Biso   1.000  C
  C34      1.0000 0.06050  0.35396  0.49730  Biso   1.000  C
  C35      1.0000 0.14605  0.35245  0.49888  Biso   1.000  C
  C36      1.0000 0.20019  0.29549  0.47328  Biso   1.000  C
  C37      1.0000 0.16367  0.24419  0.44590  Biso   1.000  C
  C38      1.0000 0.07594  0.24832  0.44609  Biso   1.000  C
  C39      1.0000 0.29116  0.29188  0.47325  Biso   1.000  C
  C40      1.0000 0.33290  0.33850  0.49395  Biso   1.000  C
  C41      1.0000 0.42510  0.33630  0.49320  Biso   1.000  C
  C42      1.0000 0.46560  0.40480  0.50200  Biso   1.000  C
  C43      1.0000 0.55020  0.39680  0.50670  Biso   1.000  C
  C44      1.0000 0.55940  0.26020  0.49120  Biso   1.000  C
  C45      1.0000 0.47260  0.26360  0.48790  Biso   1.000  C
  C46      1.0000 0.45304  0.80612  0.92286  Biso   1.000  C
  C47      1.0000 0.53479  0.80341  0.89045  Biso   1.000  C
  C48      1.0000 0.58012  0.72836  0.88064  Biso   1.000  C
  C49      1.0000 0.65668  0.72686  0.85093  Biso   1.000  C
  C50      1.0000 0.68729  0.80109  0.83100  Biso   1.000  C
  C51      1.0000 0.64302  0.87522  0.84189  Biso   1.000  C
  C52      1.0000 0.56755  0.87651  0.87088  Biso   1.000  C
  C53      1.0000 0.79548  0.73950  0.77629  Biso   1.000  C
  C54      1.0000 0.85840  0.76778  0.73269  Biso   1.000  C
  C55      1.0000 0.89023  0.69093  0.70081  Biso   1.000  C
  C56      1.0000 0.82414  0.59794  0.65637  Biso   1.000  C
  C57      1.0000 0.74763  0.57435  0.64810  Biso   1.000  C
  C58      1.0000 0.74411  0.51061  0.61694  Biso   1.000  C
  C59      1.0000 0.81550  0.47162  0.59410  Biso   1.000  C
  C60      1.0000 0.89146  0.49564  0.60366  Biso   1.000  C
  C61      1.0000 0.89618  0.55918  0.63563  Biso   1.000  C
  C62      1.0000 0.81027  0.40881  0.55660  Biso   1.000  C
  C63      1.0000 0.93433  0.80361  0.75409  Biso   1.000  C
  C64      1.0000 0.03557  0.76657  0.81207  Biso   1.000  C
  C65      1.0000 0.07053  0.70213  0.84272  Biso   1.000  C
  C66      1.0000 0.13237  0.71857  0.87131  Biso   1.000  C
  C67      1.0000 0.15755  0.79905  0.87203  Biso   1.000  C
  C68      1.0000 0.11838  0.86348  0.84266  Biso   1.000  C
  C69      1.0000 0.05651  0.84705  0.81135  Biso   1.000  C
  C70      1.0000 0.22031  0.81463  0.90752  Biso   1.000  C
  C71      1.0000 0.81619  0.83925  0.69756  Biso   1.000  C
  C72      1.0000 0.85426  0.93926  0.62921  Biso   1.000  C
  C73      1.0000 0.77601  0.98221  0.63179  Biso   1.000  C
  C74      1.0000 0.76361  0.05883  0.60070  Biso   1.000  C
  C75      1.0000 0.82853  0.09133  0.57083  Biso   1.000  C
  C76      1.0000 0.90551  0.04691  0.56977  Biso   1.000  C
  C77      1.0000 0.91807  0.97009  0.59813  Biso   1.000  C
  C78      1.0000 0.81654  0.17494  0.54073  Biso   1.000  C
  C79      1.0000 0.35396  0.06050  0.99730  Biso   1.000  C
  C80      1.0000 0.35245  0.14605  0.99888  Biso   1.000  C
  C81      1.0000 0.29549  0.20019  0.97328  Biso   1.000  C
  C82      1.0000 0.24419  0.16367  0.94590  Biso   1.000  C
  C83      1.0000 0.24832  0.07594  0.94609  Biso   1.000  C
  C84      1.0000 0.29188  0.29116  0.97325  Biso   1.000  C
  C85      1.0000 0.33850  0.33290  0.99395  Biso   1.000  C
  C86      1.0000 0.33630  0.42510  0.99320  Biso   1.000  C
  C87      1.0000 0.40480  0.46560  0.00200  Biso   1.000  C
  C88      1.0000 0.39680  0.55020  0.00670  Biso   1.000  C
  C89      1.0000 0.26020  0.55940  0.99120  Biso   1.000  C
  C90      1.0000 0.26360  0.47260  0.98790  Biso   1.000  C
  N1       1.0000 0.59700  0.32700  0.49500  Biso   1.000  N
  N2       1.0000 0.02513  0.30209  0.47147  Biso   1.000  N
  N3       1.0000 0.32700  0.59700  0.99500  Biso   1.000  N
  N4       1.0000 0.30209  0.02513  0.97147  Biso   1.000  N
  O1       1.0000 0.73718  0.42876  0.44381  Biso   1.000  O
  O2       1.0000 0.87711  0.41419  0.42720  Biso   1.000  O
  O3       1.0000 0.80852  0.76238  0.30198  Biso   1.000  O
  O4       1.0000 0.66352  0.81758  0.18638  Biso   1.000  O
  O5       1.0000 0.39114  0.73698  0.05014  Biso   1.000  O
  O6       1.0000 0.37887  0.87621  0.03368  Biso   1.000  O
  O7       1.0000 0.74104  0.97400  0.28424  Biso   1.000  O
  O8       1.0000 0.88920  0.23516  0.41167  Biso   1.000  O
  O9       1.0000 0.75063  0.25241  0.43308  Biso   1.000  O
  O10      1.0000 0.86453  0.87403  0.15770  Biso   1.000  O
  O11      1.0000 0.21142  0.74422  0.03862  Biso   1.000  O
  O12      1.0000 0.20284  0.88268  0.01799  Biso   1.000  O
  O13      1.0000 0.42876  0.73718  0.94381  Biso   1.000  O
  O14      1.0000 0.41419  0.87711  0.92720  Biso   1.000  O
  O15      1.0000 0.76238  0.80852  0.80198  Biso   1.000  O
  O16      1.0000 0.81758  0.66352  0.68638  Biso   1.000  O
  O17      1.0000 0.73698  0.39114  0.55014  Biso   1.000  O
  O18      1.0000 0.87621  0.37887  0.53368  Biso   1.000  O
  O19      1.0000 0.97400  0.74104  0.78424  Biso   1.000  O
  O20      1.0000 0.23516  0.88920  0.91167  Biso   1.000  O
  O21      1.0000 0.25241  0.75063  0.93308  Biso   1.000  O
  O22      1.0000 0.87403  0.86453  0.65770  Biso   1.000  O
  O23      1.0000 0.74422  0.21142  0.53862  Biso   1.000  O
  O24      1.0000 0.88268  0.20284  0.51799  Biso   1.000  O
  Co5      1.0000 0.67878  0.27278  0.00651  Biso   1.000  Co
  Co6      1.0000 0.69382  0.10246  0.02967  Biso   1.000  Co
  Co7      1.0000 0.27278  0.67878  0.50651  Biso   1.000  Co
  Co8      1.0000 0.10246  0.69382  0.52967  Biso   1.000  Co
  H69      1.0000 0.44080  0.32200  0.10590  Biso   1.000  H
  H70      1.0000 0.31310  0.32410  0.15540  Biso   1.000  H
  H71      1.0000 0.33540  0.07420  0.17060  Biso   1.000  H
  H72      1.0000 0.46190  0.07210  0.12260  Biso   1.000  H
  H73      1.0000 0.17680  0.30240  0.20040  Biso   1.000  H
  H74      1.0000 0.24950  0.28570  0.23700  Biso   1.000  H
  H75      1.0000 0.07960  0.35320  0.27860  Biso   1.000  H
  H76      1.0000 0.07290  0.29150  0.32880  Biso   1.000  H
  H77      1.0000 0.30150  0.39930  0.33680  Biso   1.000  H
  H78      1.0000 0.30800  0.50600  0.38850  Biso   1.000  H
  H79      1.0000 0.05920  0.53060  0.41130  Biso   1.000  H
  H80      1.0000 0.05180  0.42560  0.35750  Biso   1.000  H
  H81      1.0000 0.08600  0.14940  0.22620  Biso   1.000  H
  H82      1.0000 0.02670  0.17650  0.27390  Biso   1.000  H
  H83      1.0000 0.94710  0.35170  0.15590  Biso   1.000  H
  H84      1.0000 0.84140  0.32560  0.10900  Biso   1.000  H
  H85      1.0000 0.86740  0.08180  0.15670  Biso   1.000  H
  H86      1.0000 0.96930  0.10970  0.20930  Biso   1.000  H
  H87      1.0000 0.20400  0.11340  0.28300  Biso   1.000  H
  H88      1.0000 0.23170  0.18050  0.31590  Biso   1.000  H
  H89      1.0000 0.26790  0.03850  0.34650  Biso   1.000  H
  H90      1.0000 0.28980  0.91280  0.39920  Biso   1.000  H
  H91      1.0000 0.04950  0.93130  0.45040  Biso   1.000  H
  H92      1.0000 0.02940  0.06020  0.40430  Biso   1.000  H
  H93      1.0000 0.60680  0.97420  0.98490  Biso   1.000  H
  H94      1.0000 0.60970  0.83230  0.98250  Biso   1.000  H
  H95      1.0000 0.79410  0.80270  0.07320  Biso   1.000  H
  H96      1.0000 0.78850  0.94730  0.07250  Biso   1.000  H
  H97      1.0000 0.75010  0.67810  0.04430  Biso   1.000  H
  H98      1.0000 0.62040  0.69800  0.98790  Biso   1.000  H
  H99      1.0000 0.54330  0.56490  0.99520  Biso   1.000  H
  H100     1.0000 0.55930  0.42490  0.98190  Biso   1.000  H
  H101     1.0000 0.79160  0.40880  0.00950  Biso   1.000  H
  H102     1.0000 0.78430  0.55210  0.01790  Biso   1.000  H
  H103     1.0000 0.32200  0.44080  0.60590  Biso   1.000  H
  H104     1.0000 0.32410  0.31310  0.65540  Biso   1.000  H
  H105     1.0000 0.07420  0.33540  0.67060  Biso   1.000  H
  H106     1.0000 0.07210  0.46190  0.62260  Biso   1.000  H
  H107     1.0000 0.30240  0.17680  0.70040  Biso   1.000  H
  H108     1.0000 0.28570  0.24950  0.73700  Biso   1.000  H
  H109     1.0000 0.35320  0.07960  0.77860  Biso   1.000  H
  H110     1.0000 0.29150  0.07290  0.82880  Biso   1.000  H
  H111     1.0000 0.39930  0.30150  0.83680  Biso   1.000  H
  H112     1.0000 0.50600  0.30800  0.88850  Biso   1.000  H
  H113     1.0000 0.53060  0.05920  0.91130  Biso   1.000  H
  H114     1.0000 0.42560  0.05180  0.85750  Biso   1.000  H
  H115     1.0000 0.14940  0.08600  0.72620  Biso   1.000  H
  H116     1.0000 0.17650  0.02670  0.77390  Biso   1.000  H
  H117     1.0000 0.35170  0.94710  0.65590  Biso   1.000  H
  H118     1.0000 0.32560  0.84140  0.60900  Biso   1.000  H
  H119     1.0000 0.08180  0.86740  0.65670  Biso   1.000  H
  H120     1.0000 0.10970  0.96930  0.70930  Biso   1.000  H
  H121     1.0000 0.11340  0.20400  0.78300  Biso   1.000  H
  H122     1.0000 0.18050  0.23170  0.81590  Biso   1.000  H
  H123     1.0000 0.03850  0.26790  0.84650  Biso   1.000  H
  H124     1.0000 0.91280  0.28980  0.89920  Biso   1.000  H
  H125     1.0000 0.93130  0.04950  0.95040  Biso   1.000  H
  H126     1.0000 0.06020  0.02940  0.90430  Biso   1.000  H
  H127     1.0000 0.97420  0.60680  0.48490  Biso   1.000  H
  H128     1.0000 0.83230  0.60970  0.48250  Biso   1.000  H
  H129     1.0000 0.80270  0.79410  0.57320  Biso   1.000  H
  H130     1.0000 0.94730  0.78850  0.57250  Biso   1.000  H
  H131     1.0000 0.67810  0.75010  0.54430  Biso   1.000  H
  H132     1.0000 0.69800  0.62040  0.48790  Biso   1.000  H
  H133     1.0000 0.56490  0.54330  0.49520  Biso   1.000  H
  H134     1.0000 0.42490  0.55930  0.48190  Biso   1.000  H
  H135     1.0000 0.40880  0.79160  0.50950  Biso   1.000  H
  H136     1.0000 0.55210  0.78430  0.51790  Biso   1.000  H
  C91      1.0000 0.54696  0.19388  0.07714  Biso   1.000  C
  C92      1.0000 0.46521  0.19659  0.10955  Biso   1.000  C
  C93      1.0000 0.41988  0.27164  0.11936  Biso   1.000  C
  C94      1.0000 0.34332  0.27314  0.14907  Biso   1.000  C
  C95      1.0000 0.31271  0.19891  0.16900  Biso   1.000  C
  C96      1.0000 0.35698  0.12478  0.15811  Biso   1.000  C
  C97      1.0000 0.43245  0.12349  0.12912  Biso   1.000  C
  C98      1.0000 0.20452  0.26050  0.22371  Biso   1.000  C
  C99      1.0000 0.14160  0.23222  0.26731  Biso   1.000  C
  C100     1.0000 0.10977  0.30907  0.29919  Biso   1.000  C
  C101     1.0000 0.17586  0.40206  0.34363  Biso   1.000  C
  C102     1.0000 0.25237  0.42565  0.35190  Biso   1.000  C
  C103     1.0000 0.25589  0.48939  0.38306  Biso   1.000  C
  C104     1.0000 0.18450  0.52838  0.40590  Biso   1.000  C
  C105     1.0000 0.10854  0.50436  0.39634  Biso   1.000  C
  C106     1.0000 0.10382  0.44082  0.36437  Biso   1.000  C
  C107     1.0000 0.18973  0.59119  0.44340  Biso   1.000  C
  C108     1.0000 0.06567  0.19639  0.24591  Biso   1.000  C
  C109     1.0000 0.96443  0.23343  0.18793  Biso   1.000  C
  C110     1.0000 0.92947  0.29787  0.15728  Biso   1.000  C
  C111     1.0000 0.86763  0.28143  0.12869  Biso   1.000  C
  C112     1.0000 0.84245  0.20095  0.12797  Biso   1.000  C
  C113     1.0000 0.88162  0.13652  0.15734  Biso   1.000  C
  C114     1.0000 0.94349  0.15295  0.18865  Biso   1.000  C
  C115     1.0000 0.77969  0.18537  0.09248  Biso   1.000  C
  C116     1.0000 0.18381  0.16075  0.30244  Biso   1.000  C
  C117     1.0000 0.14574  0.06074  0.37079  Biso   1.000  C
  C118     1.0000 0.22399  0.01779  0.36821  Biso   1.000  C
  C119     1.0000 0.23639  0.94117  0.39930  Biso   1.000  C
  C120     1.0000 0.17147  0.90867  0.42917  Biso   1.000  C
  C121     1.0000 0.09449  0.95309  0.43023  Biso   1.000  C
  C122     1.0000 0.08193  0.02991  0.40187  Biso   1.000  C
  C123     1.0000 0.18346  0.82506  0.45927  Biso   1.000  C
  C124     1.0000 0.64604  0.93950  0.00270  Biso   1.000  C
  C125     1.0000 0.64755  0.85395  0.00112  Biso   1.000  C
  C126     1.0000 0.70451  0.79981  0.02672  Biso   1.000  C
  C127     1.0000 0.75581  0.83633  0.05410  Biso   1.000  C
  C128     1.0000 0.75168  0.92406  0.05391  Biso   1.000  C
  C129     1.0000 0.70812  0.70884  0.02675  Biso   1.000  C
  C130     1.0000 0.66150  0.66710  0.00605  Biso   1.000  C
  C131     1.0000 0.66370  0.57490  0.00680  Biso   1.000  C
  C132     1.0000 0.59520  0.53440  0.99800  Biso   1.000  C
  C133     1.0000 0.60320  0.44980  0.99330  Biso   1.000  C
  C134     1.0000 0.73980  0.44060  0.00880  Biso   1.000  C
  C135     1.0000 0.73640  0.52740  0.01210  Biso   1.000  C
  C136     1.0000 0.19388  0.54696  0.57714  Biso   1.000  C
  C137     1.0000 0.19659  0.46521  0.60955  Biso   1.000  C
  C138     1.0000 0.27164  0.41988  0.61936  Biso   1.000  C
  C139     1.0000 0.27314  0.34332  0.64907  Biso   1.000  C
  C140     1.0000 0.19891  0.31271  0.66900  Biso   1.000  C
  C141     1.0000 0.12478  0.35698  0.65811  Biso   1.000  C
  C142     1.0000 0.12349  0.43245  0.62912  Biso   1.000  C
  C143     1.0000 0.26050  0.20452  0.72371  Biso   1.000  C
  C144     1.0000 0.23222  0.14160  0.76731  Biso   1.000  C
  C145     1.0000 0.30907  0.10977  0.79919  Biso   1.000  C
  C146     1.0000 0.40206  0.17586  0.84363  Biso   1.000  C
  C147     1.0000 0.42565  0.25237  0.85190  Biso   1.000  C
  C148     1.0000 0.48939  0.25589  0.88306  Biso   1.000  C
  C149     1.0000 0.52838  0.18450  0.90590  Biso   1.000  C
  C150     1.0000 0.50436  0.10854  0.89634  Biso   1.000  C
  C151     1.0000 0.44082  0.10382  0.86437  Biso   1.000  C
  C152     1.0000 0.59119  0.18973  0.94340  Biso   1.000  C
  C153     1.0000 0.19639  0.06567  0.74591  Biso   1.000  C
  C154     1.0000 0.23343  0.96443  0.68793  Biso   1.000  C
  C155     1.0000 0.29787  0.92947  0.65728  Biso   1.000  C
  C156     1.0000 0.28143  0.86763  0.62869  Biso   1.000  C
  C157     1.0000 0.20095  0.84245  0.62797  Biso   1.000  C
  C158     1.0000 0.13652  0.88162  0.65734  Biso   1.000  C
  C159     1.0000 0.15295  0.94349  0.68865  Biso   1.000  C
  C160     1.0000 0.18537  0.77969  0.59248  Biso   1.000  C
  C161     1.0000 0.16075  0.18381  0.80244  Biso   1.000  C
  C162     1.0000 0.06074  0.14574  0.87079  Biso   1.000  C
  C163     1.0000 0.01779  0.22399  0.86821  Biso   1.000  C
  C164     1.0000 0.94117  0.23639  0.89930  Biso   1.000  C
  C165     1.0000 0.90867  0.17147  0.92917  Biso   1.000  C
  C166     1.0000 0.95309  0.09449  0.93023  Biso   1.000  C
  C167     1.0000 0.02991  0.08193  0.90187  Biso   1.000  C
  C168     1.0000 0.82506  0.18346  0.95927  Biso   1.000  C
  C169     1.0000 0.93950  0.64604  0.50270  Biso   1.000  C
  C170     1.0000 0.85395  0.64755  0.50112  Biso   1.000  C
  C171     1.0000 0.79981  0.70451  0.52672  Biso   1.000  C
  C172     1.0000 0.83633  0.75581  0.55410  Biso   1.000  C
  C173     1.0000 0.92406  0.75168  0.55391  Biso   1.000  C
  C174     1.0000 0.70884  0.70812  0.52675  Biso   1.000  C
  C175     1.0000 0.66710  0.66150  0.50605  Biso   1.000  C
  C176     1.0000 0.57490  0.66370  0.50680  Biso   1.000  C
  C177     1.0000 0.53440  0.59520  0.49800  Biso   1.000  C
  C178     1.0000 0.44980  0.60320  0.49330  Biso   1.000  C
  C179     1.0000 0.44060  0.73980  0.50880  Biso   1.000  C
  C180     1.0000 0.52740  0.73640  0.51210  Biso   1.000  C
  N5       1.0000 0.67300  0.40300  0.00500  Biso   1.000  N
  N6       1.0000 0.69791  0.97487  0.02853  Biso   1.000  N
  N7       1.0000 0.40300  0.67300  0.50500  Biso   1.000  N
  N8       1.0000 0.97487  0.69791  0.52853  Biso   1.000  N
  O25      1.0000 0.57124  0.26282  0.05619  Biso   1.000  O
  O26      1.0000 0.58581  0.12289  0.07280  Biso   1.000  O
  O27      1.0000 0.23762  0.19148  0.19802  Biso   1.000  O
  O28      1.0000 0.18242  0.33648  0.31362  Biso   1.000  O
  O29      1.0000 0.26302  0.60886  0.44986  Biso   1.000  O
  O30      1.0000 0.12379  0.62113  0.46632  Biso   1.000  O
  O31      1.0000 0.02600  0.25896  0.21576  Biso   1.000  O
  O32      1.0000 0.76484  0.11080  0.08833  Biso   1.000  O
  O33      1.0000 0.74759  0.24937  0.06692  Biso   1.000  O
  O34      1.0000 0.12597  0.13547  0.34230  Biso   1.000  O
  O35      1.0000 0.25578  0.78858  0.46138  Biso   1.000  O
  O36      1.0000 0.11732  0.79716  0.48201  Biso   1.000  O
  O37      1.0000 0.26282  0.57124  0.55619  Biso   1.000  O
  O38      1.0000 0.12289  0.58581  0.57280  Biso   1.000  O
  O39      1.0000 0.19148  0.23762  0.69802  Biso   1.000  O
  O40      1.0000 0.33648  0.18242  0.81362  Biso   1.000  O
  O41      1.0000 0.60886  0.26302  0.94986  Biso   1.000  O
  O42      1.0000 0.62113  0.12379  0.96632  Biso   1.000  O
  O43      1.0000 0.25896  0.02600  0.71576  Biso   1.000  O
  O44      1.0000 0.11080  0.76484  0.58833  Biso   1.000  O
  O45      1.0000 0.24937  0.74759  0.56692  Biso   1.000  O
  O46      1.0000 0.13547  0.12597  0.84230  Biso   1.000  O
  O47      1.0000 0.78858  0.25578  0.96138  Biso   1.000  O
  O48      1.0000 0.79716  0.11732  0.98201  Biso   1.000  O
