data_image0
_cell_length_a       16.2845
_cell_length_b       16.2845
_cell_length_c       27.639
_cell_angle_alpha    85.5636
_cell_angle_beta     85.5636
_cell_angle_gamma    71.7533

_symmetry_space_group_name_H-M    P 1
_symmetry_int_tables_number       1

loop_
  _symmetry_equiv_pos_as_xyz
  'x, y, z'

loop_
  _atom_site_label
  _atom_site_occupancy
  _atom_site_fract_x
  _atom_site_fract_y
  _atom_site_fract_z
  _atom_site_thermal_displace_type
  _atom_site_B_iso_or_equiv
  _atom_site_type_symbol
  Cd1      1.0000 0.33785  0.91127  0.18904  Biso   1.000  Cd
  Cd2      1.0000 0.08873  0.66215  0.31096  Biso   1.000  Cd
  Cd3      1.0000 0.66215  0.08873  0.81096  Biso   1.000  Cd
  Cd4      1.0000 0.91127  0.33785  0.68904  Biso   1.000  Cd
  H1       1.0000 0.28790  0.70270  0.07890  Biso   1.000  H
  H2       1.0000 0.28500  0.64700  0.00520  Biso   1.000  H
  H3       1.0000 0.40740  0.81260  0.94270  Biso   1.000  H
  H4       1.0000 0.40490  0.86710  0.01800  Biso   1.000  H
  H5       1.0000 0.24880  0.65000  0.92860  Biso   1.000  H
  H6       1.0000 0.34130  0.58170  0.92190  Biso   1.000  H
  H7       1.0000 0.37230  0.63430  0.79430  Biso   1.000  H
  H8       1.0000 0.40090  0.68030  0.83510  Biso   1.000  H
  H9       1.0000 0.51720  0.63120  0.77590  Biso   1.000  H
  H10      1.0000 0.64580  0.57080  0.73480  Biso   1.000  H
  H11      1.0000 0.68260  0.35120  0.81810  Biso   1.000  H
  H12      1.0000 0.55000  0.41020  0.85740  Biso   1.000  H
  H13      1.0000 0.25370  0.77610  0.84820  Biso   1.000  H
  H14      1.0000 0.22550  0.73270  0.80610  Biso   1.000  H
  H15      1.0000 0.12460  0.87300  0.80340  Biso   1.000  H
  H16      1.0000 0.98850  0.97110  0.78810  Biso   1.000  H
  H17      1.0000 0.87100  0.84680  0.88260  Biso   1.000  H
  H18      1.0000 0.00820  0.74720  0.90010  Biso   1.000  H
  H19      1.0000 0.30210  0.51290  0.85430  Biso   1.000  H
  H20      1.0000 0.20710  0.57210  0.86740  Biso   1.000  H
  H21      1.0000 0.17200  0.61020  0.71770  Biso   1.000  H
  H22      1.0000 0.08590  0.54190  0.68390  Biso   1.000  H
  H23      1.0000 0.10010  0.38350  0.80670  Biso   1.000  H
  H24      1.0000 0.19270  0.45330  0.83760  Biso   1.000  H
  H25      1.0000 0.80850  0.49890  0.72420  Biso   1.000  H
  H26      1.0000 0.74830  0.93370  0.83560  Biso   1.000  H
  H27      1.0000 0.29730  0.71210  0.42110  Biso   1.000  H
  H28      1.0000 0.35300  0.71500  0.49480  Biso   1.000  H
  H29      1.0000 0.18740  0.59260  0.55730  Biso   1.000  H
  H30      1.0000 0.13290  0.59510  0.48200  Biso   1.000  H
  H31      1.0000 0.35000  0.75120  0.57140  Biso   1.000  H
  H32      1.0000 0.41830  0.65870  0.57810  Biso   1.000  H
  H33      1.0000 0.36570  0.62770  0.70570  Biso   1.000  H
  H34      1.0000 0.31970  0.59910  0.66490  Biso   1.000  H
  H35      1.0000 0.36880  0.48280  0.72410  Biso   1.000  H
  H36      1.0000 0.42920  0.35420  0.76520  Biso   1.000  H
  H37      1.0000 0.64880  0.31740  0.68190  Biso   1.000  H
  H38      1.0000 0.58980  0.45000  0.64260  Biso   1.000  H
  H39      1.0000 0.22390  0.74630  0.65180  Biso   1.000  H
  H40      1.0000 0.26730  0.77450  0.69390  Biso   1.000  H
  H41      1.0000 0.12700  0.87540  0.69660  Biso   1.000  H
  H42      1.0000 0.02890  0.01150  0.71190  Biso   1.000  H
  H43      1.0000 0.15320  0.12900  0.61740  Biso   1.000  H
  H44      1.0000 0.25280  0.99180  0.59990  Biso   1.000  H
  H45      1.0000 0.48710  0.69790  0.64570  Biso   1.000  H
  H46      1.0000 0.42790  0.79290  0.63260  Biso   1.000  H
  H47      1.0000 0.38980  0.82800  0.78230  Biso   1.000  H
  H48      1.0000 0.45810  0.91410  0.81610  Biso   1.000  H
  H49      1.0000 0.61650  0.89990  0.69330  Biso   1.000  H
  H50      1.0000 0.54670  0.80730  0.66240  Biso   1.000  H
  H51      1.0000 0.50110  0.19150  0.77580  Biso   1.000  H
  H52      1.0000 0.06630  0.25170  0.66440  Biso   1.000  H
  H53      1.0000 0.71210  0.29730  0.92110  Biso   1.000  H
  H54      1.0000 0.71500  0.35300  0.99480  Biso   1.000  H
  H55      1.0000 0.59260  0.18740  0.05730  Biso   1.000  H
  H56      1.0000 0.59510  0.13290  0.98200  Biso   1.000  H
  H57      1.0000 0.75120  0.35000  0.07140  Biso   1.000  H
  H58      1.0000 0.65870  0.41830  0.07810  Biso   1.000  H
  H59      1.0000 0.62770  0.36570  0.20570  Biso   1.000  H
  H60      1.0000 0.59910  0.31970  0.16490  Biso   1.000  H
  H61      1.0000 0.48280  0.36880  0.22410  Biso   1.000  H
  H62      1.0000 0.35420  0.42920  0.26520  Biso   1.000  H
  H63      1.0000 0.31740  0.64880  0.18190  Biso   1.000  H
  H64      1.0000 0.45000  0.58980  0.14260  Biso   1.000  H
  H65      1.0000 0.74630  0.22390  0.15180  Biso   1.000  H
  H66      1.0000 0.77450  0.26730  0.19390  Biso   1.000  H
  H67      1.0000 0.87540  0.12700  0.19660  Biso   1.000  H
  H68      1.0000 0.01150  0.02890  0.21190  Biso   1.000  H
  H69      1.0000 0.12900  0.15320  0.11740  Biso   1.000  H
  H70      1.0000 0.99180  0.25280  0.09990  Biso   1.000  H
  H71      1.0000 0.69790  0.48710  0.14570  Biso   1.000  H
  H72      1.0000 0.79290  0.42790  0.13260  Biso   1.000  H
  H73      1.0000 0.82800  0.38980  0.28230  Biso   1.000  H
  H74      1.0000 0.91410  0.45810  0.31610  Biso   1.000  H
  H75      1.0000 0.89990  0.61650  0.19330  Biso   1.000  H
  H76      1.0000 0.80730  0.54670  0.16240  Biso   1.000  H
  H77      1.0000 0.19150  0.50110  0.27580  Biso   1.000  H
  H78      1.0000 0.25170  0.06630  0.16440  Biso   1.000  H
  H79      1.0000 0.70270  0.28790  0.57890  Biso   1.000  H
  H80      1.0000 0.64700  0.28500  0.50520  Biso   1.000  H
  H81      1.0000 0.81260  0.40740  0.44270  Biso   1.000  H
  H82      1.0000 0.86710  0.40490  0.51800  Biso   1.000  H
  H83      1.0000 0.65000  0.24880  0.42860  Biso   1.000  H
  H84      1.0000 0.58170  0.34130  0.42190  Biso   1.000  H
  H85      1.0000 0.63430  0.37230  0.29430  Biso   1.000  H
  H86      1.0000 0.68030  0.40090  0.33510  Biso   1.000  H
  H87      1.0000 0.63120  0.51720  0.27590  Biso   1.000  H
  H88      1.0000 0.57080  0.64580  0.23480  Biso   1.000  H
  H89      1.0000 0.35120  0.68260  0.31810  Biso   1.000  H
  H90      1.0000 0.41020  0.55000  0.35740  Biso   1.000  H
  H91      1.0000 0.77610  0.25370  0.34820  Biso   1.000  H
  H92      1.0000 0.73270  0.22550  0.30610  Biso   1.000  H
  H93      1.0000 0.87300  0.12460  0.30340  Biso   1.000  H
  H94      1.0000 0.97110  0.98850  0.28810  Biso   1.000  H
  H95      1.0000 0.84680  0.87100  0.38260  Biso   1.000  H
  H96      1.0000 0.74720  0.00820  0.40010  Biso   1.000  H
  H97      1.0000 0.51290  0.30210  0.35430  Biso   1.000  H
  H98      1.0000 0.57210  0.20710  0.36740  Biso   1.000  H
  H99      1.0000 0.61020  0.17200  0.21770  Biso   1.000  H
  H100     1.0000 0.54190  0.08590  0.18390  Biso   1.000  H
  H101     1.0000 0.38350  0.10010  0.30670  Biso   1.000  H
  H102     1.0000 0.45330  0.19270  0.33760  Biso   1.000  H
  H103     1.0000 0.49890  0.80850  0.22420  Biso   1.000  H
  H104     1.0000 0.93370  0.74830  0.33560  Biso   1.000  H
  C1       1.0000 0.34250  0.82690  0.10380  Biso   1.000  C
  C2       1.0000 0.34390  0.79070  0.05650  Biso   1.000  C
  C3       1.0000 0.31070  0.72590  0.05120  Biso   1.000  C
  C4       1.0000 0.30860  0.69160  0.00710  Biso   1.000  C
  C5       1.0000 0.34310  0.72630  0.96600  Biso   1.000  C
  C6       1.0000 0.38160  0.79120  0.97000  Biso   1.000  C
  C7       1.0000 0.38050  0.82310  0.01520  Biso   1.000  C
  C8       1.0000 0.30476  0.63836  0.91095  Biso   1.000  C
  C9       1.0000 0.29440  0.64200  0.85703  Biso   1.000  C
  C10      1.0000 0.37960  0.63300  0.82889  Biso   1.000  C
  C11      1.0000 0.51910  0.52430  0.82000  Biso   1.000  C
  C12      1.0000 0.54990  0.57430  0.78360  Biso   1.000  C
  C13      1.0000 0.62700  0.53900  0.76010  Biso   1.000  C
  C14      1.0000 0.67960  0.45500  0.77310  Biso   1.000  C
  C15      1.0000 0.64920  0.40740  0.80940  Biso   1.000  C
  C16      1.0000 0.56970  0.44250  0.83260  Biso   1.000  C
  C17      1.0000 0.76400  0.41520  0.74420  Biso   1.000  C
  C18      1.0000 0.23190  0.72970  0.84080  Biso   1.000  C
  C19      1.0000 0.07890  0.80150  0.85300  Biso   1.000  C
  C20      1.0000 0.07490  0.86650  0.81990  Biso   1.000  C
  C21      1.0000 0.99220  0.92500  0.81080  Biso   1.000  C
  C22      1.0000 0.91830  0.91730  0.83340  Biso   1.000  C
  C23      1.0000 0.92140  0.85280  0.86650  Biso   1.000  C
  C24      1.0000 0.00460  0.79260  0.87700  Biso   1.000  C
  C25      1.0000 0.83590  0.98210  0.81950  Biso   1.000  C
  C26      1.0000 0.25960  0.56860  0.84735  Biso   1.000  C
  C27      1.0000 0.18930  0.53410  0.78120  Biso   1.000  C
  C28      1.0000 0.15800  0.56420  0.73450  Biso   1.000  C
  C29      1.0000 0.10680  0.52400  0.71460  Biso   1.000  C
  C30      1.0000 0.08660  0.45660  0.74120  Biso   1.000  C
  C31      1.0000 0.11570  0.42750  0.78870  Biso   1.000  C
  C32      1.0000 0.17050  0.47050  0.80720  Biso   1.000  C
  C33      1.0000 0.02390  0.41250  0.72210  Biso   1.000  C
  C34      1.0000 0.17310  0.65750  0.39620  Biso   1.000  C
  C35      1.0000 0.20930  0.65610  0.44350  Biso   1.000  C
  C36      1.0000 0.27410  0.68930  0.44880  Biso   1.000  C
  C37      1.0000 0.30840  0.69140  0.49290  Biso   1.000  C
  C38      1.0000 0.27370  0.65690  0.53400  Biso   1.000  C
  C39      1.0000 0.20880  0.61840  0.53000  Biso   1.000  C
  C40      1.0000 0.17690  0.61950  0.48480  Biso   1.000  C
  C41      1.0000 0.36164  0.69524  0.58905  Biso   1.000  C
  C42      1.0000 0.35800  0.70560  0.64297  Biso   1.000  C
  C43      1.0000 0.36700  0.62040  0.67111  Biso   1.000  C
  C44      1.0000 0.47570  0.48090  0.68000  Biso   1.000  C
  C45      1.0000 0.42570  0.45010  0.71640  Biso   1.000  C
  C46      1.0000 0.46100  0.37300  0.73990  Biso   1.000  C
  C47      1.0000 0.54500  0.32040  0.72690  Biso   1.000  C
  C48      1.0000 0.59260  0.35080  0.69060  Biso   1.000  C
  C49      1.0000 0.55750  0.43030  0.66740  Biso   1.000  C
  C50      1.0000 0.58480  0.23600  0.75580  Biso   1.000  C
  C51      1.0000 0.27030  0.76810  0.65920  Biso   1.000  C
  C52      1.0000 0.19850  0.92110  0.64700  Biso   1.000  C
  C53      1.0000 0.13350  0.92510  0.68010  Biso   1.000  C
  C54      1.0000 0.07500  0.00780  0.68920  Biso   1.000  C
  C55      1.0000 0.08270  0.08170  0.66660  Biso   1.000  C
  C56      1.0000 0.14720  0.07860  0.63350  Biso   1.000  C
  C57      1.0000 0.20740  0.99540  0.62300  Biso   1.000  C
  C58      1.0000 0.01790  0.16410  0.68050  Biso   1.000  C
  C59      1.0000 0.43140  0.74040  0.65265  Biso   1.000  C
  C60      1.0000 0.46590  0.81070  0.71880  Biso   1.000  C
  C61      1.0000 0.43580  0.84200  0.76550  Biso   1.000  C
  C62      1.0000 0.47600  0.89320  0.78540  Biso   1.000  C
  C63      1.0000 0.54340  0.91340  0.75880  Biso   1.000  C
  C64      1.0000 0.57250  0.88430  0.71130  Biso   1.000  C
  C65      1.0000 0.52950  0.82950  0.69280  Biso   1.000  C
  C66      1.0000 0.58750  0.97610  0.77790  Biso   1.000  C
  C67      1.0000 0.65750  0.17310  0.89620  Biso   1.000  C
  C68      1.0000 0.65610  0.20930  0.94350  Biso   1.000  C
  C69      1.0000 0.68930  0.27410  0.94880  Biso   1.000  C
  C70      1.0000 0.69140  0.30840  0.99290  Biso   1.000  C
  C71      1.0000 0.65690  0.27370  0.03400  Biso   1.000  C
  C72      1.0000 0.61840  0.20880  0.03000  Biso   1.000  C
  C73      1.0000 0.61950  0.17690  0.98480  Biso   1.000  C
  C74      1.0000 0.69524  0.36164  0.08905  Biso   1.000  C
  C75      1.0000 0.70560  0.35800  0.14297  Biso   1.000  C
  C76      1.0000 0.62040  0.36700  0.17111  Biso   1.000  C
  C77      1.0000 0.48090  0.47570  0.18000  Biso   1.000  C
  C78      1.0000 0.45010  0.42570  0.21640  Biso   1.000  C
  C79      1.0000 0.37300  0.46100  0.23990  Biso   1.000  C
  C80      1.0000 0.32040  0.54500  0.22690  Biso   1.000  C
  C81      1.0000 0.35080  0.59260  0.19060  Biso   1.000  C
  C82      1.0000 0.43030  0.55750  0.16740  Biso   1.000  C
  C83      1.0000 0.23600  0.58480  0.25580  Biso   1.000  C
  C84      1.0000 0.76810  0.27030  0.15920  Biso   1.000  C
  C85      1.0000 0.92110  0.19850  0.14700  Biso   1.000  C
  C86      1.0000 0.92510  0.13350  0.18010  Biso   1.000  C
  C87      1.0000 0.00780  0.07500  0.18920  Biso   1.000  C
  C88      1.0000 0.08170  0.08270  0.16660  Biso   1.000  C
  C89      1.0000 0.07860  0.14720  0.13350  Biso   1.000  C
  C90      1.0000 0.99540  0.20740  0.12300  Biso   1.000  C
  C91      1.0000 0.16410  0.01790  0.18050  Biso   1.000  C
  C92      1.0000 0.74040  0.43140  0.15265  Biso   1.000  C
  C93      1.0000 0.81070  0.46590  0.21880  Biso   1.000  C
  C94      1.0000 0.84200  0.43580  0.26550  Biso   1.000  C
  C95      1.0000 0.89320  0.47600  0.28540  Biso   1.000  C
  C96      1.0000 0.91340  0.54340  0.25880  Biso   1.000  C
  C97      1.0000 0.88430  0.57250  0.21130  Biso   1.000  C
  C98      1.0000 0.82950  0.52950  0.19280  Biso   1.000  C
  C99      1.0000 0.97610  0.58750  0.27790  Biso   1.000  C
  C100     1.0000 0.82690  0.34250  0.60380  Biso   1.000  C
  C101     1.0000 0.79070  0.34390  0.55650  Biso   1.000  C
  C102     1.0000 0.72590  0.31070  0.55120  Biso   1.000  C
  C103     1.0000 0.69160  0.30860  0.50710  Biso   1.000  C
  C104     1.0000 0.72630  0.34310  0.46600  Biso   1.000  C
  C105     1.0000 0.79120  0.38160  0.47000  Biso   1.000  C
  C106     1.0000 0.82310  0.38050  0.51520  Biso   1.000  C
  C107     1.0000 0.63836  0.30476  0.41095  Biso   1.000  C
  C108     1.0000 0.64200  0.29440  0.35703  Biso   1.000  C
  C109     1.0000 0.63300  0.37960  0.32889  Biso   1.000  C
  C110     1.0000 0.52430  0.51910  0.32000  Biso   1.000  C
  C111     1.0000 0.57430  0.54990  0.28360  Biso   1.000  C
  C112     1.0000 0.53900  0.62700  0.26010  Biso   1.000  C
  C113     1.0000 0.45500  0.67960  0.27310  Biso   1.000  C
  C114     1.0000 0.40740  0.64920  0.30940  Biso   1.000  C
  C115     1.0000 0.44250  0.56970  0.33260  Biso   1.000  C
  C116     1.0000 0.41520  0.76400  0.24420  Biso   1.000  C
  C117     1.0000 0.72970  0.23190  0.34080  Biso   1.000  C
  C118     1.0000 0.80150  0.07890  0.35300  Biso   1.000  C
  C119     1.0000 0.86650  0.07490  0.31990  Biso   1.000  C
  C120     1.0000 0.92500  0.99220  0.31080  Biso   1.000  C
  C121     1.0000 0.91730  0.91830  0.33340  Biso   1.000  C
  C122     1.0000 0.85280  0.92140  0.36650  Biso   1.000  C
  C123     1.0000 0.79260  0.00460  0.37700  Biso   1.000  C
  C124     1.0000 0.98210  0.83590  0.31950  Biso   1.000  C
  C125     1.0000 0.56860  0.25960  0.34735  Biso   1.000  C
  C126     1.0000 0.53410  0.18930  0.28120  Biso   1.000  C
  C127     1.0000 0.56420  0.15800  0.23450  Biso   1.000  C
  C128     1.0000 0.52400  0.10680  0.21460  Biso   1.000  C
  C129     1.0000 0.45660  0.08660  0.24120  Biso   1.000  C
  C130     1.0000 0.42750  0.11570  0.28870  Biso   1.000  C
  C131     1.0000 0.47050  0.17050  0.30720  Biso   1.000  C
  C132     1.0000 0.41250  0.02390  0.22210  Biso   1.000  C
  O1       1.0000 0.38536  0.87856  0.10781  Biso   1.000  O
  O2       1.0000 0.29614  0.80774  0.13869  Biso   1.000  O
  O3       1.0000 0.34367  0.70327  0.91899  Biso   1.000  O
  O4       1.0000 0.43901  0.55261  0.84434  Biso   1.000  O
  O5       1.0000 0.80512  0.33792  0.75357  Biso   1.000  O
  O6       1.0000 0.78864  0.46112  0.71038  Biso   1.000  O
  O7       1.0000 0.15200  0.73740  0.86633  Biso   1.000  O
  O8       1.0000 0.76901  0.97221  0.84610  Biso   1.000  O
  O9       1.0000 0.82668  0.03828  0.78954  Biso   1.000  O
  O10      1.0000 0.24150  0.58010  0.79566  Biso   1.000  O
  O11      1.0000 0.00200  0.35860  0.74900  Biso   1.000  O
  O12      1.0000 0.99891  0.43591  0.68040  Biso   1.000  O
  O13      1.0000 0.12144  0.61464  0.39219  Biso   1.000  O
  O14      1.0000 0.19226  0.70386  0.36131  Biso   1.000  O
  O15      1.0000 0.29673  0.65633  0.58101  Biso   1.000  O
  O16      1.0000 0.44739  0.56099  0.65566  Biso   1.000  O
  O17      1.0000 0.66208  0.19488  0.74643  Biso   1.000  O
  O18      1.0000 0.53888  0.21136  0.78962  Biso   1.000  O
  O19      1.0000 0.26260  0.84800  0.63367  Biso   1.000  O
  O20      1.0000 0.02779  0.23099  0.65390  Biso   1.000  O
  O21      1.0000 0.96172  0.17332  0.71046  Biso   1.000  O
  O22      1.0000 0.41990  0.75850  0.70434  Biso   1.000  O
  O23      1.0000 0.64140  0.99800  0.75100  Biso   1.000  O
  O24      1.0000 0.56409  0.00109  0.81960  Biso   1.000  O
  O25      1.0000 0.61464  0.12144  0.89219  Biso   1.000  O
  O26      1.0000 0.70386  0.19226  0.86131  Biso   1.000  O
  O27      1.0000 0.65633  0.29673  0.08101  Biso   1.000  O
  O28      1.0000 0.56099  0.44739  0.15566  Biso   1.000  O
  O29      1.0000 0.19488  0.66208  0.24643  Biso   1.000  O
  O30      1.0000 0.21136  0.53888  0.28962  Biso   1.000  O
  O31      1.0000 0.84800  0.26260  0.13367  Biso   1.000  O
  O32      1.0000 0.23099  0.02779  0.15390  Biso   1.000  O
  O33      1.0000 0.17332  0.96172  0.21046  Biso   1.000  O
  O34      1.0000 0.75850  0.41990  0.20434  Biso   1.000  O
  O35      1.0000 0.99800  0.64140  0.25100  Biso   1.000  O
  O36      1.0000 0.00109  0.56409  0.31960  Biso   1.000  O
  O37      1.0000 0.87856  0.38536  0.60781  Biso   1.000  O
  O38      1.0000 0.80774  0.29614  0.63869  Biso   1.000  O
  O39      1.0000 0.70327  0.34367  0.41899  Biso   1.000  O
  O40      1.0000 0.55261  0.43901  0.34434  Biso   1.000  O
  O41      1.0000 0.33792  0.80512  0.25357  Biso   1.000  O
  O42      1.0000 0.46112  0.78864  0.21038  Biso   1.000  O
  O43      1.0000 0.73740  0.15200  0.36633  Biso   1.000  O
  O44      1.0000 0.97221  0.76901  0.34610  Biso   1.000  O
  O45      1.0000 0.03828  0.82668  0.28954  Biso   1.000  O
  O46      1.0000 0.58010  0.24150  0.29566  Biso   1.000  O
  O47      1.0000 0.35860  0.00200  0.24900  Biso   1.000  O
  O48      1.0000 0.43591  0.99891  0.18040  Biso   1.000  O
