data_image0
_cell_length_a       17.7756
_cell_length_b       17.7756
_cell_length_c       24.837
_cell_angle_alpha    90
_cell_angle_beta     90
_cell_angle_gamma    116.396

_symmetry_space_group_name_H-M    P 1
_symmetry_int_tables_number       1

loop_
  _symmetry_equiv_pos_as_xyz
  'x, y, z'

loop_
  _atom_site_label
  _atom_site_occupancy
  _atom_site_fract_x
  _atom_site_fract_y
  _atom_site_fract_z
  _atom_site_thermal_displace_type
  _atom_site_B_iso_or_equiv
  _atom_site_type_symbol
  Eu1      1.0000 0.62939  0.01716  0.00000  Biso   1.000  Eu
  Eu2      1.0000 0.68346  0.77171  0.00000  Biso   1.000  Eu
  Eu3      1.0000 0.37061  0.98284  0.00000  Biso   1.000  Eu
  Eu4      1.0000 0.31654  0.22829  0.00000  Biso   1.000  Eu
  Eu5      1.0000 0.98284  0.37061  0.50000  Biso   1.000  Eu
  Eu6      1.0000 0.22829  0.31654  0.50000  Biso   1.000  Eu
  Eu7      1.0000 0.01716  0.62939  0.50000  Biso   1.000  Eu
  Eu8      1.0000 0.77171  0.68346  0.50000  Biso   1.000  Eu
  Si1      1.0000 0.00000  0.00000  0.75000  Biso   1.000  Si
  Si2      1.0000 0.00000  0.00000  0.25000  Biso   1.000  Si
  Si3      1.0000 0.61619  0.38381  0.25000  Biso   1.000  Si
  Si4      1.0000 0.38381  0.61619  0.25000  Biso   1.000  Si
  Si5      1.0000 0.38381  0.61619  0.75000  Biso   1.000  Si
  Si6      1.0000 0.61619  0.38381  0.75000  Biso   1.000  Si
  H1       1.0000 0.83630  0.08410  0.87010  Biso   1.000  H
  H2       1.0000 0.85820  0.85420  0.80040  Biso   1.000  H
  H3       1.0000 0.80000  0.32220  0.36670  Biso   1.000  H
  H4       1.0000 0.76330  0.83710  0.86750  Biso   1.000  H
  H5       1.0000 0.70230  0.29410  0.29960  Biso   1.000  H
  H6       1.0000 0.73550  0.52710  0.30580  Biso   1.000  H
  H7       1.0000 0.93140  0.10280  0.80260  Biso   1.000  H
  H8       1.0000 0.83030  0.55710  0.37410  Biso   1.000  H
  H9       1.0000 0.77770  0.63690  0.14010  Biso   1.000  H
  H10      1.0000 0.75980  0.54040  0.20540  Biso   1.000  H
  H11      1.0000 0.51430  0.46030  0.19730  Biso   1.000  H
  H12      1.0000 0.53500  0.55700  0.13090  Biso   1.000  H
  H13      1.0000 0.16370  0.91590  0.87010  Biso   1.000  H
  H14      1.0000 0.14180  0.14580  0.80040  Biso   1.000  H
  H15      1.0000 0.20000  0.67780  0.36670  Biso   1.000  H
  H16      1.0000 0.23670  0.16290  0.86750  Biso   1.000  H
  H17      1.0000 0.29770  0.70590  0.29960  Biso   1.000  H
  H18      1.0000 0.26450  0.47290  0.30580  Biso   1.000  H
  H19      1.0000 0.06860  0.89720  0.80260  Biso   1.000  H
  H20      1.0000 0.16970  0.44290  0.37410  Biso   1.000  H
  H21      1.0000 0.22230  0.36310  0.14010  Biso   1.000  H
  H22      1.0000 0.24020  0.45960  0.20540  Biso   1.000  H
  H23      1.0000 0.48570  0.53970  0.19730  Biso   1.000  H
  H24      1.0000 0.46500  0.44300  0.13090  Biso   1.000  H
  H25      1.0000 0.91590  0.16370  0.62990  Biso   1.000  H
  H26      1.0000 0.14580  0.14180  0.69960  Biso   1.000  H
  H27      1.0000 0.67780  0.20000  0.13330  Biso   1.000  H
  H28      1.0000 0.16290  0.23670  0.63250  Biso   1.000  H
  H29      1.0000 0.70590  0.29770  0.20040  Biso   1.000  H
  H30      1.0000 0.47290  0.26450  0.19420  Biso   1.000  H
  H31      1.0000 0.89720  0.06860  0.69740  Biso   1.000  H
  H32      1.0000 0.44290  0.16970  0.12590  Biso   1.000  H
  H33      1.0000 0.36310  0.22230  0.35990  Biso   1.000  H
  H34      1.0000 0.45960  0.24020  0.29460  Biso   1.000  H
  H35      1.0000 0.53970  0.48570  0.30270  Biso   1.000  H
  H36      1.0000 0.44300  0.46500  0.36910  Biso   1.000  H
  H37      1.0000 0.08410  0.83630  0.62990  Biso   1.000  H
  H38      1.0000 0.85420  0.85820  0.69960  Biso   1.000  H
  H39      1.0000 0.32220  0.80000  0.13330  Biso   1.000  H
  H40      1.0000 0.83710  0.76330  0.63250  Biso   1.000  H
  H41      1.0000 0.29410  0.70230  0.20040  Biso   1.000  H
  H42      1.0000 0.52710  0.73550  0.19420  Biso   1.000  H
  H43      1.0000 0.10280  0.93140  0.69740  Biso   1.000  H
  H44      1.0000 0.55710  0.83030  0.12590  Biso   1.000  H
  H45      1.0000 0.63690  0.77770  0.35990  Biso   1.000  H
  H46      1.0000 0.54040  0.75980  0.29460  Biso   1.000  H
  H47      1.0000 0.46030  0.51430  0.30270  Biso   1.000  H
  H48      1.0000 0.55700  0.53500  0.36910  Biso   1.000  H
  H49      1.0000 0.16370  0.91590  0.12990  Biso   1.000  H
  H50      1.0000 0.14180  0.14580  0.19960  Biso   1.000  H
  H51      1.0000 0.20000  0.67780  0.63330  Biso   1.000  H
  H52      1.0000 0.23670  0.16290  0.13250  Biso   1.000  H
  H53      1.0000 0.29770  0.70590  0.70040  Biso   1.000  H
  H54      1.0000 0.26450  0.47290  0.69420  Biso   1.000  H
  H55      1.0000 0.06860  0.89720  0.19740  Biso   1.000  H
  H56      1.0000 0.16970  0.44290  0.62590  Biso   1.000  H
  H57      1.0000 0.22230  0.36310  0.85990  Biso   1.000  H
  H58      1.0000 0.24020  0.45960  0.79460  Biso   1.000  H
  H59      1.0000 0.48570  0.53970  0.80270  Biso   1.000  H
  H60      1.0000 0.46500  0.44300  0.86910  Biso   1.000  H
  H61      1.0000 0.83630  0.08410  0.12990  Biso   1.000  H
  H62      1.0000 0.85820  0.85420  0.19960  Biso   1.000  H
  H63      1.0000 0.80000  0.32220  0.63330  Biso   1.000  H
  H64      1.0000 0.76330  0.83710  0.13250  Biso   1.000  H
  H65      1.0000 0.70230  0.29410  0.70040  Biso   1.000  H
  H66      1.0000 0.73550  0.52710  0.69420  Biso   1.000  H
  H67      1.0000 0.93140  0.10280  0.19740  Biso   1.000  H
  H68      1.0000 0.83030  0.55710  0.62590  Biso   1.000  H
  H69      1.0000 0.77770  0.63690  0.85990  Biso   1.000  H
  H70      1.0000 0.75980  0.54040  0.79460  Biso   1.000  H
  H71      1.0000 0.51430  0.46030  0.80270  Biso   1.000  H
  H72      1.0000 0.53500  0.55700  0.86910  Biso   1.000  H
  H73      1.0000 0.08410  0.83630  0.37010  Biso   1.000  H
  H74      1.0000 0.85420  0.85820  0.30040  Biso   1.000  H
  H75      1.0000 0.32220  0.80000  0.86670  Biso   1.000  H
  H76      1.0000 0.83710  0.76330  0.36750  Biso   1.000  H
  H77      1.0000 0.29410  0.70230  0.79960  Biso   1.000  H
  H78      1.0000 0.52710  0.73550  0.80580  Biso   1.000  H
  H79      1.0000 0.10280  0.93140  0.30260  Biso   1.000  H
  H80      1.0000 0.55710  0.83030  0.87410  Biso   1.000  H
  H81      1.0000 0.63690  0.77770  0.64010  Biso   1.000  H
  H82      1.0000 0.54040  0.75980  0.70540  Biso   1.000  H
  H83      1.0000 0.46030  0.51430  0.69730  Biso   1.000  H
  H84      1.0000 0.55700  0.53500  0.63090  Biso   1.000  H
  H85      1.0000 0.91590  0.16370  0.37010  Biso   1.000  H
  H86      1.0000 0.14580  0.14180  0.30040  Biso   1.000  H
  H87      1.0000 0.67780  0.20000  0.86670  Biso   1.000  H
  H88      1.0000 0.16290  0.23670  0.36750  Biso   1.000  H
  H89      1.0000 0.70590  0.29770  0.79960  Biso   1.000  H
  H90      1.0000 0.47290  0.26450  0.80580  Biso   1.000  H
  H91      1.0000 0.89720  0.06860  0.30260  Biso   1.000  H
  H92      1.0000 0.44290  0.16970  0.87410  Biso   1.000  H
  H93      1.0000 0.36310  0.22230  0.64010  Biso   1.000  H
  H94      1.0000 0.45960  0.24020  0.70540  Biso   1.000  H
  H95      1.0000 0.53970  0.48570  0.69730  Biso   1.000  H
  H96      1.0000 0.44300  0.46500  0.63090  Biso   1.000  H
  C1       1.0000 0.88698  0.46102  0.42373  Biso   1.000  C
  C2       1.0000 0.82622  0.44278  0.37769  Biso   1.000  C
  C3       1.0000 0.72987  0.94833  0.92036  Biso   1.000  C
  C4       1.0000 0.78962  0.95918  0.87541  Biso   1.000  C
  C5       1.0000 0.91005  0.98155  0.79472  Biso   1.000  C
  C6       1.0000 0.70737  0.40763  0.29530  Biso   1.000  C
  C7       1.0000 0.84068  0.03772  0.85610  Biso   1.000  C
  C8       1.0000 0.85523  0.90117  0.81462  Biso   1.000  C
  C9       1.0000 0.78702  0.36458  0.35481  Biso   1.000  C
  C10      1.0000 0.79747  0.89073  0.85453  Biso   1.000  C
  C11      1.0000 0.72816  0.34784  0.31422  Biso   1.000  C
  C12      1.0000 0.74774  0.48446  0.31836  Biso   1.000  C
  C13      1.0000 0.89897  0.04903  0.81590  Biso   1.000  C
  C14      1.0000 0.80558  0.50342  0.35925  Biso   1.000  C
  C15      1.0000 0.63586  0.47474  0.20378  Biso   1.000  C
  C16      1.0000 0.67447  0.66713  0.08621  Biso   1.000  C
  C17      1.0000 0.66202  0.59798  0.12694  Biso   1.000  C
  C18      1.0000 0.72380  0.59740  0.14940  Biso   1.000  C
  C19      1.0000 0.71220  0.53780  0.18830  Biso   1.000  C
  C20      1.0000 0.56810  0.49110  0.18340  Biso   1.000  C
  C21      1.0000 0.57970  0.54950  0.14480  Biso   1.000  C
  C22      1.0000 0.11302  0.53898  0.42373  Biso   1.000  C
  C23      1.0000 0.17378  0.55722  0.37769  Biso   1.000  C
  C24      1.0000 0.27013  0.05167  0.92036  Biso   1.000  C
  C25      1.0000 0.21038  0.04082  0.87541  Biso   1.000  C
  C26      1.0000 0.08995  0.01845  0.79472  Biso   1.000  C
  C27      1.0000 0.29263  0.59237  0.29530  Biso   1.000  C
  C28      1.0000 0.15932  0.96228  0.85610  Biso   1.000  C
  C29      1.0000 0.14477  0.09883  0.81462  Biso   1.000  C
  C30      1.0000 0.21298  0.63542  0.35481  Biso   1.000  C
  C31      1.0000 0.20253  0.10927  0.85453  Biso   1.000  C
  C32      1.0000 0.27184  0.65216  0.31422  Biso   1.000  C
  C33      1.0000 0.25226  0.51554  0.31836  Biso   1.000  C
  C34      1.0000 0.10103  0.95097  0.81590  Biso   1.000  C
  C35      1.0000 0.19442  0.49658  0.35925  Biso   1.000  C
  C36      1.0000 0.36414  0.52526  0.20378  Biso   1.000  C
  C37      1.0000 0.32553  0.33287  0.08621  Biso   1.000  C
  C38      1.0000 0.33798  0.40202  0.12694  Biso   1.000  C
  C39      1.0000 0.27620  0.40260  0.14940  Biso   1.000  C
  C40      1.0000 0.28780  0.46220  0.18830  Biso   1.000  C
  C41      1.0000 0.43190  0.50890  0.18340  Biso   1.000  C
  C42      1.0000 0.42030  0.45050  0.14480  Biso   1.000  C
  C43      1.0000 0.53898  0.11302  0.07627  Biso   1.000  C
  C44      1.0000 0.55722  0.17378  0.12231  Biso   1.000  C
  C45      1.0000 0.05167  0.27013  0.57964  Biso   1.000  C
  C46      1.0000 0.04082  0.21038  0.62459  Biso   1.000  C
  C47      1.0000 0.01845  0.08995  0.70528  Biso   1.000  C
  C48      1.0000 0.59237  0.29263  0.20470  Biso   1.000  C
  C49      1.0000 0.96228  0.15932  0.64390  Biso   1.000  C
  C50      1.0000 0.09883  0.14477  0.68538  Biso   1.000  C
  C51      1.0000 0.63542  0.21298  0.14519  Biso   1.000  C
  C52      1.0000 0.10927  0.20253  0.64547  Biso   1.000  C
  C53      1.0000 0.65216  0.27184  0.18578  Biso   1.000  C
  C54      1.0000 0.51554  0.25226  0.18164  Biso   1.000  C
  C55      1.0000 0.95097  0.10103  0.68410  Biso   1.000  C
  C56      1.0000 0.49658  0.19442  0.14075  Biso   1.000  C
  C57      1.0000 0.52526  0.36414  0.29622  Biso   1.000  C
  C58      1.0000 0.33287  0.32553  0.41379  Biso   1.000  C
  C59      1.0000 0.40202  0.33798  0.37306  Biso   1.000  C
  C60      1.0000 0.40260  0.27620  0.35060  Biso   1.000  C
  C61      1.0000 0.46220  0.28780  0.31170  Biso   1.000  C
  C62      1.0000 0.50890  0.43190  0.31660  Biso   1.000  C
  C63      1.0000 0.45050  0.42030  0.35520  Biso   1.000  C
  C64      1.0000 0.46102  0.88698  0.07627  Biso   1.000  C
  C65      1.0000 0.44278  0.82622  0.12231  Biso   1.000  C
  C66      1.0000 0.94833  0.72987  0.57964  Biso   1.000  C
  C67      1.0000 0.95918  0.78962  0.62459  Biso   1.000  C
  C68      1.0000 0.98155  0.91005  0.70528  Biso   1.000  C
  C69      1.0000 0.40763  0.70737  0.20470  Biso   1.000  C
  C70      1.0000 0.03772  0.84068  0.64390  Biso   1.000  C
  C71      1.0000 0.90117  0.85523  0.68538  Biso   1.000  C
  C72      1.0000 0.36458  0.78702  0.14519  Biso   1.000  C
  C73      1.0000 0.89073  0.79747  0.64547  Biso   1.000  C
  C74      1.0000 0.34784  0.72816  0.18578  Biso   1.000  C
  C75      1.0000 0.48446  0.74774  0.18164  Biso   1.000  C
  C76      1.0000 0.04903  0.89897  0.68410  Biso   1.000  C
  C77      1.0000 0.50342  0.80558  0.14075  Biso   1.000  C
  C78      1.0000 0.47474  0.63586  0.29622  Biso   1.000  C
  C79      1.0000 0.66713  0.67447  0.41379  Biso   1.000  C
  C80      1.0000 0.59798  0.66202  0.37306  Biso   1.000  C
  C81      1.0000 0.59740  0.72380  0.35060  Biso   1.000  C
  C82      1.0000 0.53780  0.71220  0.31170  Biso   1.000  C
  C83      1.0000 0.49110  0.56810  0.31660  Biso   1.000  C
  C84      1.0000 0.54950  0.57970  0.35520  Biso   1.000  C
  C85      1.0000 0.11302  0.53898  0.57627  Biso   1.000  C
  C86      1.0000 0.17378  0.55722  0.62231  Biso   1.000  C
  C87      1.0000 0.27013  0.05167  0.07964  Biso   1.000  C
  C88      1.0000 0.21038  0.04082  0.12459  Biso   1.000  C
  C89      1.0000 0.08995  0.01845  0.20528  Biso   1.000  C
  C90      1.0000 0.29263  0.59237  0.70470  Biso   1.000  C
  C91      1.0000 0.15932  0.96228  0.14390  Biso   1.000  C
  C92      1.0000 0.14477  0.09883  0.18538  Biso   1.000  C
  C93      1.0000 0.21298  0.63542  0.64519  Biso   1.000  C
  C94      1.0000 0.20253  0.10927  0.14547  Biso   1.000  C
  C95      1.0000 0.27184  0.65216  0.68578  Biso   1.000  C
  C96      1.0000 0.25226  0.51554  0.68164  Biso   1.000  C
  C97      1.0000 0.10103  0.95097  0.18410  Biso   1.000  C
  C98      1.0000 0.19442  0.49658  0.64075  Biso   1.000  C
  C99      1.0000 0.36414  0.52526  0.79622  Biso   1.000  C
  C100     1.0000 0.32553  0.33287  0.91379  Biso   1.000  C
  C101     1.0000 0.33798  0.40202  0.87306  Biso   1.000  C
  C102     1.0000 0.27620  0.40260  0.85060  Biso   1.000  C
  C103     1.0000 0.28780  0.46220  0.81170  Biso   1.000  C
  C104     1.0000 0.43190  0.50890  0.81660  Biso   1.000  C
  C105     1.0000 0.42030  0.45050  0.85520  Biso   1.000  C
  C106     1.0000 0.88698  0.46102  0.57627  Biso   1.000  C
  C107     1.0000 0.82622  0.44278  0.62231  Biso   1.000  C
  C108     1.0000 0.72987  0.94833  0.07964  Biso   1.000  C
  C109     1.0000 0.78962  0.95918  0.12459  Biso   1.000  C
  C110     1.0000 0.91005  0.98155  0.20528  Biso   1.000  C
  C111     1.0000 0.70737  0.40763  0.70470  Biso   1.000  C
  C112     1.0000 0.84068  0.03772  0.14390  Biso   1.000  C
  C113     1.0000 0.85523  0.90117  0.18538  Biso   1.000  C
  C114     1.0000 0.78702  0.36458  0.64519  Biso   1.000  C
  C115     1.0000 0.79747  0.89073  0.14547  Biso   1.000  C
  C116     1.0000 0.72816  0.34784  0.68578  Biso   1.000  C
  C117     1.0000 0.74774  0.48446  0.68164  Biso   1.000  C
  C118     1.0000 0.89897  0.04903  0.18410  Biso   1.000  C
  C119     1.0000 0.80558  0.50342  0.64075  Biso   1.000  C
  C120     1.0000 0.63586  0.47474  0.79622  Biso   1.000  C
  C121     1.0000 0.67447  0.66713  0.91379  Biso   1.000  C
  C122     1.0000 0.66202  0.59798  0.87306  Biso   1.000  C
  C123     1.0000 0.72380  0.59740  0.85060  Biso   1.000  C
  C124     1.0000 0.71220  0.53780  0.81170  Biso   1.000  C
  C125     1.0000 0.56810  0.49110  0.81660  Biso   1.000  C
  C126     1.0000 0.57970  0.54950  0.85520  Biso   1.000  C
  C127     1.0000 0.46102  0.88698  0.92373  Biso   1.000  C
  C128     1.0000 0.44278  0.82622  0.87769  Biso   1.000  C
  C129     1.0000 0.94833  0.72987  0.42036  Biso   1.000  C
  C130     1.0000 0.95918  0.78962  0.37541  Biso   1.000  C
  C131     1.0000 0.98155  0.91005  0.29472  Biso   1.000  C
  C132     1.0000 0.40763  0.70737  0.79530  Biso   1.000  C
  C133     1.0000 0.03772  0.84068  0.35610  Biso   1.000  C
  C134     1.0000 0.90117  0.85523  0.31462  Biso   1.000  C
  C135     1.0000 0.36458  0.78702  0.85481  Biso   1.000  C
  C136     1.0000 0.89073  0.79747  0.35453  Biso   1.000  C
  C137     1.0000 0.34784  0.72816  0.81422  Biso   1.000  C
  C138     1.0000 0.48446  0.74774  0.81836  Biso   1.000  C
  C139     1.0000 0.04903  0.89897  0.31590  Biso   1.000  C
  C140     1.0000 0.50342  0.80558  0.85925  Biso   1.000  C
  C141     1.0000 0.47474  0.63586  0.70378  Biso   1.000  C
  C142     1.0000 0.66713  0.67447  0.58621  Biso   1.000  C
  C143     1.0000 0.59798  0.66202  0.62694  Biso   1.000  C
  C144     1.0000 0.59740  0.72380  0.64940  Biso   1.000  C
  C145     1.0000 0.53780  0.71220  0.68830  Biso   1.000  C
  C146     1.0000 0.49110  0.56810  0.68340  Biso   1.000  C
  C147     1.0000 0.54950  0.57970  0.64480  Biso   1.000  C
  C148     1.0000 0.53898  0.11302  0.92373  Biso   1.000  C
  C149     1.0000 0.55722  0.17378  0.87769  Biso   1.000  C
  C150     1.0000 0.05167  0.27013  0.42036  Biso   1.000  C
  C151     1.0000 0.04082  0.21038  0.37541  Biso   1.000  C
  C152     1.0000 0.01845  0.08995  0.29472  Biso   1.000  C
  C153     1.0000 0.59237  0.29263  0.79530  Biso   1.000  C
  C154     1.0000 0.96228  0.15932  0.35610  Biso   1.000  C
  C155     1.0000 0.09883  0.14477  0.31462  Biso   1.000  C
  C156     1.0000 0.63542  0.21298  0.85481  Biso   1.000  C
  C157     1.0000 0.10927  0.20253  0.35453  Biso   1.000  C
  C158     1.0000 0.65216  0.27184  0.81422  Biso   1.000  C
  C159     1.0000 0.51554  0.25226  0.81836  Biso   1.000  C
  C160     1.0000 0.95097  0.10103  0.31590  Biso   1.000  C
  C161     1.0000 0.49658  0.19442  0.85925  Biso   1.000  C
  C162     1.0000 0.52526  0.36414  0.70378  Biso   1.000  C
  C163     1.0000 0.33287  0.32553  0.58621  Biso   1.000  C
  C164     1.0000 0.40202  0.33798  0.62694  Biso   1.000  C
  C165     1.0000 0.40260  0.27620  0.64940  Biso   1.000  C
  C166     1.0000 0.46220  0.28780  0.68830  Biso   1.000  C
  C167     1.0000 0.50890  0.43190  0.68340  Biso   1.000  C
  C168     1.0000 0.45050  0.42030  0.64480  Biso   1.000  C
  O1       1.0000 0.69298  0.87762  0.94159  Biso   1.000  O
  O2       1.0000 0.72005  0.00873  0.93410  Biso   1.000  O
  O3       1.0000 0.90047  0.40227  0.43929  Biso   1.000  O
  O4       1.0000 0.92018  0.53126  0.44250  Biso   1.000  O
  O5       1.0000 0.60260  0.66880  0.06400  Biso   1.000  O
  O6       1.0000 0.68210  0.64290  0.03870  Biso   1.000  O
  O7       1.0000 0.30702  0.12238  0.94159  Biso   1.000  O
  O8       1.0000 0.27995  0.99127  0.93410  Biso   1.000  O
  O9       1.0000 0.09953  0.59773  0.43929  Biso   1.000  O
  O10      1.0000 0.07982  0.46874  0.44250  Biso   1.000  O
  O11      1.0000 0.39740  0.33120  0.06400  Biso   1.000  O
  O12      1.0000 0.31790  0.35710  0.03870  Biso   1.000  O
  O13      1.0000 0.12238  0.30702  0.55841  Biso   1.000  O
  O14      1.0000 0.99127  0.27995  0.56590  Biso   1.000  O
  O15      1.0000 0.59773  0.09953  0.06071  Biso   1.000  O
  O16      1.0000 0.46874  0.07982  0.05750  Biso   1.000  O
  O17      1.0000 0.33120  0.39740  0.43600  Biso   1.000  O
  O18      1.0000 0.35710  0.31790  0.46130  Biso   1.000  O
  O19      1.0000 0.87762  0.69298  0.55841  Biso   1.000  O
  O20      1.0000 0.00873  0.72005  0.56590  Biso   1.000  O
  O21      1.0000 0.40227  0.90047  0.06071  Biso   1.000  O
  O22      1.0000 0.53126  0.92018  0.05750  Biso   1.000  O
  O23      1.0000 0.66880  0.60260  0.43600  Biso   1.000  O
  O24      1.0000 0.64290  0.68210  0.46130  Biso   1.000  O
  O25      1.0000 0.30702  0.12238  0.05841  Biso   1.000  O
  O26      1.0000 0.27995  0.99127  0.06590  Biso   1.000  O
  O27      1.0000 0.09953  0.59773  0.56071  Biso   1.000  O
  O28      1.0000 0.07982  0.46874  0.55750  Biso   1.000  O
  O29      1.0000 0.39740  0.33120  0.93600  Biso   1.000  O
  O30      1.0000 0.31790  0.35710  0.96130  Biso   1.000  O
  O31      1.0000 0.69298  0.87762  0.05841  Biso   1.000  O
  O32      1.0000 0.72005  0.00873  0.06590  Biso   1.000  O
  O33      1.0000 0.90047  0.40227  0.56071  Biso   1.000  O
  O34      1.0000 0.92018  0.53126  0.55750  Biso   1.000  O
  O35      1.0000 0.60260  0.66880  0.93600  Biso   1.000  O
  O36      1.0000 0.68210  0.64290  0.96130  Biso   1.000  O
  O37      1.0000 0.87762  0.69298  0.44159  Biso   1.000  O
  O38      1.0000 0.00873  0.72005  0.43410  Biso   1.000  O
  O39      1.0000 0.40227  0.90047  0.93929  Biso   1.000  O
  O40      1.0000 0.53126  0.92018  0.94250  Biso   1.000  O
  O41      1.0000 0.66880  0.60260  0.56400  Biso   1.000  O
  O42      1.0000 0.64290  0.68210  0.53870  Biso   1.000  O
  O43      1.0000 0.12238  0.30702  0.44159  Biso   1.000  O
  O44      1.0000 0.99127  0.27995  0.43410  Biso   1.000  O
  O45      1.0000 0.59773  0.09953  0.93929  Biso   1.000  O
  O46      1.0000 0.46874  0.07982  0.94250  Biso   1.000  O
  O47      1.0000 0.33120  0.39740  0.56400  Biso   1.000  O
  O48      1.0000 0.35710  0.31790  0.53870  Biso   1.000  O
  O49      1.0000 0.75694  0.15766  0.00000  Biso   1.000  O
  O50      1.0000 0.52860  0.72720  0.00000  Biso   1.000  O
  O51      1.0000 0.84900  0.84800  0.00000  Biso   1.000  O
  O52      1.0000 0.24306  0.84234  0.00000  Biso   1.000  O
  O53      1.0000 0.47140  0.27280  0.00000  Biso   1.000  O
  O54      1.0000 0.15100  0.15200  0.00000  Biso   1.000  O
  O55      1.0000 0.84234  0.24306  0.50000  Biso   1.000  O
  O56      1.0000 0.27280  0.47140  0.50000  Biso   1.000  O
  O57      1.0000 0.15200  0.15100  0.50000  Biso   1.000  O
  O58      1.0000 0.15766  0.75694  0.50000  Biso   1.000  O
  O59      1.0000 0.72720  0.52860  0.50000  Biso   1.000  O
  O60      1.0000 0.84800  0.84900  0.50000  Biso   1.000  O
