data_image0
_cell_length_a       17.247
_cell_length_b       17.247
_cell_length_c       10.8317
_cell_angle_alpha    90
_cell_angle_beta     90
_cell_angle_gamma    90

_symmetry_space_group_name_H-M    "P 1"
_symmetry_int_tables_number       1

loop_
  _symmetry_equiv_pos_as_xyz
  'x, y, z'

loop_
  _atom_site_label
  _atom_site_occupancy
  _atom_site_fract_x
  _atom_site_fract_y
  _atom_site_fract_z
  _atom_site_thermal_displace_type
  _atom_site_B_iso_or_equiv
  _atom_site_type_symbol
  Mo1      1.0000 0.80836  0.41175  0.05860  Biso   1.000  Mo
  P1       1.0000 0.63410  0.33550  0.05350  Biso   1.000  P
  O1       1.0000 0.70310  0.36950  0.97840  Biso   1.000  O
  O2       1.0000 0.65830  0.25960  0.11590  Biso   1.000  O
  O3       1.0000 0.56610  0.32600  0.96610  Biso   1.000  O
  O4       1.0000 0.60820  0.39650  0.15020  Biso   1.000  O
  O5       1.0000 0.75040  0.46460  0.16970  Biso   1.000  O
  O6       1.0000 0.89740  0.45750  0.08520  Biso   1.000  O
  O7       1.0000 0.82090  0.32460  0.14050  Biso   1.000  O
  Mo2      1.0000 0.30836  0.91175  0.55860  Biso   1.000  Mo
  P2       1.0000 0.13410  0.83550  0.55350  Biso   1.000  P
  O8       1.0000 0.20310  0.86950  0.47840  Biso   1.000  O
  O9       1.0000 0.15830  0.75960  0.61590  Biso   1.000  O
  O10      1.0000 0.06610  0.82600  0.46610  Biso   1.000  O
  O11      1.0000 0.10820  0.89650  0.65020  Biso   1.000  O
  O12      1.0000 0.25040  0.96460  0.66970  Biso   1.000  O
  O13      1.0000 0.39740  0.95750  0.58520  Biso   1.000  O
  O14      1.0000 0.32090  0.82460  0.64050  Biso   1.000  O
  Mo3      1.0000 0.69164  0.58825  0.55860  Biso   1.000  Mo
  P3       1.0000 0.86590  0.66450  0.55350  Biso   1.000  P
  O15      1.0000 0.79690  0.63050  0.47840  Biso   1.000  O
  O16      1.0000 0.84170  0.74040  0.61590  Biso   1.000  O
  O17      1.0000 0.93390  0.67400  0.46610  Biso   1.000  O
  O18      1.0000 0.89180  0.60350  0.65020  Biso   1.000  O
  O19      1.0000 0.74960  0.53540  0.66970  Biso   1.000  O
  O20      1.0000 0.60260  0.54250  0.58520  Biso   1.000  O
  O21      1.0000 0.67910  0.67540  0.64050  Biso   1.000  O
  Mo4      1.0000 0.19164  0.08825  0.05860  Biso   1.000  Mo
  P4       1.0000 0.36590  0.16450  0.05350  Biso   1.000  P
  O22      1.0000 0.29690  0.13050  0.97840  Biso   1.000  O
  O23      1.0000 0.34170  0.24040  0.11590  Biso   1.000  O
  O24      1.0000 0.43390  0.17400  0.96610  Biso   1.000  O
  O25      1.0000 0.39180  0.10350  0.15020  Biso   1.000  O
  O26      1.0000 0.24960  0.03540  0.16970  Biso   1.000  O
  O27      1.0000 0.10260  0.04250  0.08520  Biso   1.000  O
  O28      1.0000 0.17910  0.17540  0.14050  Biso   1.000  O
  Mo5      1.0000 0.33825  0.05836  0.30860  Biso   1.000  Mo
  P5       1.0000 0.41450  0.88410  0.30350  Biso   1.000  P
  O29      1.0000 0.38050  0.95310  0.22840  Biso   1.000  O
  O30      1.0000 0.49040  0.90830  0.36590  Biso   1.000  O
  O31      1.0000 0.42400  0.81610  0.21610  Biso   1.000  O
  O32      1.0000 0.35350  0.85820  0.40020  Biso   1.000  O
  O33      1.0000 0.28540  0.00040  0.41970  Biso   1.000  O
  O34      1.0000 0.29250  0.14740  0.33520  Biso   1.000  O
  O35      1.0000 0.42540  0.07090  0.39050  Biso   1.000  O
  Mo6      1.0000 0.83825  0.55836  0.80860  Biso   1.000  Mo
  P6       1.0000 0.91450  0.38410  0.80350  Biso   1.000  P
  O36      1.0000 0.88050  0.45310  0.72840  Biso   1.000  O
  O37      1.0000 0.99040  0.40830  0.86590  Biso   1.000  O
  O38      1.0000 0.92400  0.31610  0.71610  Biso   1.000  O
  O39      1.0000 0.85350  0.35820  0.90020  Biso   1.000  O
  O40      1.0000 0.78540  0.50040  0.91970  Biso   1.000  O
  O41      1.0000 0.79250  0.64740  0.83520  Biso   1.000  O
  O42      1.0000 0.92540  0.57090  0.89050  Biso   1.000  O
  Mo7      1.0000 0.16175  0.94164  0.80860  Biso   1.000  Mo
  P7       1.0000 0.08550  0.11590  0.80350  Biso   1.000  P
  O43      1.0000 0.11950  0.04690  0.72840  Biso   1.000  O
  O44      1.0000 0.00960  0.09170  0.86590  Biso   1.000  O
  O45      1.0000 0.07600  0.18390  0.71610  Biso   1.000  O
  O46      1.0000 0.14650  0.14180  0.90020  Biso   1.000  O
  O47      1.0000 0.21460  0.99960  0.91970  Biso   1.000  O
  O48      1.0000 0.20750  0.85260  0.83520  Biso   1.000  O
  O49      1.0000 0.07460  0.92910  0.89050  Biso   1.000  O
  Mo8      1.0000 0.66175  0.44164  0.30860  Biso   1.000  Mo
  P8       1.0000 0.58550  0.61590  0.30350  Biso   1.000  P
  O50      1.0000 0.61950  0.54690  0.22840  Biso   1.000  O
  O51      1.0000 0.50960  0.59170  0.36590  Biso   1.000  O
  O52      1.0000 0.57600  0.68390  0.21610  Biso   1.000  O
  O53      1.0000 0.64650  0.64180  0.40020  Biso   1.000  O
  O54      1.0000 0.71460  0.49960  0.41970  Biso   1.000  O
  O55      1.0000 0.70750  0.35260  0.33520  Biso   1.000  O
  O56      1.0000 0.57460  0.42910  0.39050  Biso   1.000  O
  Mo9      1.0000 0.19164  0.58825  0.94140  Biso   1.000  Mo
  P9       1.0000 0.36590  0.66450  0.94650  Biso   1.000  P
  O57      1.0000 0.29690  0.63050  0.02160  Biso   1.000  O
  O58      1.0000 0.34170  0.74040  0.88410  Biso   1.000  O
  O59      1.0000 0.43390  0.67400  0.03390  Biso   1.000  O
  O60      1.0000 0.39180  0.60350  0.84980  Biso   1.000  O
  O61      1.0000 0.24960  0.53540  0.83030  Biso   1.000  O
  O62      1.0000 0.10260  0.54250  0.91480  Biso   1.000  O
  O63      1.0000 0.17910  0.67540  0.85950  Biso   1.000  O
  Mo10     1.0000 0.69164  0.08825  0.44140  Biso   1.000  Mo
  P10      1.0000 0.86590  0.16450  0.44650  Biso   1.000  P
  O64      1.0000 0.79690  0.13050  0.52160  Biso   1.000  O
  O65      1.0000 0.84170  0.24040  0.38410  Biso   1.000  O
  O66      1.0000 0.93390  0.17400  0.53390  Biso   1.000  O
  O67      1.0000 0.89180  0.10350  0.34980  Biso   1.000  O
  O68      1.0000 0.74960  0.03540  0.33030  Biso   1.000  O
  O69      1.0000 0.60260  0.04250  0.41480  Biso   1.000  O
  O70      1.0000 0.67910  0.17540  0.35950  Biso   1.000  O
  Mo11     1.0000 0.30836  0.41175  0.44140  Biso   1.000  Mo
  P11      1.0000 0.13410  0.33550  0.44650  Biso   1.000  P
  O71      1.0000 0.20310  0.36950  0.52160  Biso   1.000  O
  O72      1.0000 0.15830  0.25960  0.38410  Biso   1.000  O
  O73      1.0000 0.06610  0.32600  0.53390  Biso   1.000  O
  O74      1.0000 0.10820  0.39650  0.34980  Biso   1.000  O
  O75      1.0000 0.25040  0.46460  0.33030  Biso   1.000  O
  O76      1.0000 0.39740  0.45750  0.41480  Biso   1.000  O
  O77      1.0000 0.32090  0.32460  0.35950  Biso   1.000  O
  Mo12     1.0000 0.80836  0.91175  0.94140  Biso   1.000  Mo
  P12      1.0000 0.63410  0.83550  0.94650  Biso   1.000  P
  O78      1.0000 0.70310  0.86950  0.02160  Biso   1.000  O
  O79      1.0000 0.65830  0.75960  0.88410  Biso   1.000  O
  O80      1.0000 0.56610  0.82600  0.03390  Biso   1.000  O
  O81      1.0000 0.60820  0.89650  0.84980  Biso   1.000  O
  O82      1.0000 0.75040  0.96460  0.83030  Biso   1.000  O
  O83      1.0000 0.89740  0.95750  0.91480  Biso   1.000  O
  O84      1.0000 0.82090  0.82460  0.85950  Biso   1.000  O
  Mo13     1.0000 0.66175  0.94164  0.69140  Biso   1.000  Mo
  P13      1.0000 0.58550  0.11590  0.69650  Biso   1.000  P
  O85      1.0000 0.61950  0.04690  0.77160  Biso   1.000  O
  O86      1.0000 0.50960  0.09170  0.63410  Biso   1.000  O
  O87      1.0000 0.57600  0.18390  0.78390  Biso   1.000  O
  O88      1.0000 0.64650  0.14180  0.59980  Biso   1.000  O
  O89      1.0000 0.71460  0.99960  0.58030  Biso   1.000  O
  O90      1.0000 0.70750  0.85260  0.66480  Biso   1.000  O
  O91      1.0000 0.57460  0.92910  0.60950  Biso   1.000  O
  Mo14     1.0000 0.16175  0.44164  0.19140  Biso   1.000  Mo
  P14      1.0000 0.08550  0.61590  0.19650  Biso   1.000  P
  O92      1.0000 0.11950  0.54690  0.27160  Biso   1.000  O
  O93      1.0000 0.00960  0.59170  0.13410  Biso   1.000  O
  O94      1.0000 0.07600  0.68390  0.28390  Biso   1.000  O
  O95      1.0000 0.14650  0.64180  0.09980  Biso   1.000  O
  O96      1.0000 0.21460  0.49960  0.08030  Biso   1.000  O
  O97      1.0000 0.20750  0.35260  0.16480  Biso   1.000  O
  O98      1.0000 0.07460  0.42910  0.10950  Biso   1.000  O
  Mo15     1.0000 0.83825  0.05836  0.19140  Biso   1.000  Mo
  P15      1.0000 0.91450  0.88410  0.19650  Biso   1.000  P
  O99      1.0000 0.88050  0.95310  0.27160  Biso   1.000  O
  O100     1.0000 0.99040  0.90830  0.13410  Biso   1.000  O
  O101     1.0000 0.92400  0.81610  0.28390  Biso   1.000  O
  O102     1.0000 0.85350  0.85820  0.09980  Biso   1.000  O
  O103     1.0000 0.78540  0.00040  0.08030  Biso   1.000  O
  O104     1.0000 0.79250  0.14740  0.16480  Biso   1.000  O
  O105     1.0000 0.92540  0.07090  0.10950  Biso   1.000  O
  Mo16     1.0000 0.33825  0.55836  0.69140  Biso   1.000  Mo
  P16      1.0000 0.41450  0.38410  0.69650  Biso   1.000  P
  O106     1.0000 0.38050  0.45310  0.77160  Biso   1.000  O
  O107     1.0000 0.49040  0.40830  0.63410  Biso   1.000  O
  O108     1.0000 0.42400  0.31610  0.78390  Biso   1.000  O
  O109     1.0000 0.35350  0.35820  0.59980  Biso   1.000  O
  O110     1.0000 0.28540  0.50040  0.58030  Biso   1.000  O
  O111     1.0000 0.29250  0.64740  0.66480  Biso   1.000  O
  O112     1.0000 0.42540  0.57090  0.60950  Biso   1.000  O
  Mn1      1.0000 0.50000  0.25000  0.87500  Biso   1.000  Mn
  Mn2      1.0000 0.00000  0.75000  0.37500  Biso   1.000  Mn
  Mn3      1.0000 0.50000  0.75000  0.12500  Biso   1.000  Mn
  Mn4      1.0000 0.00000  0.25000  0.62500  Biso   1.000  Mn
  Mn5      1.0000 0.75000  0.25000  0.25000  Biso   1.000  Mn
  Mn6      1.0000 0.75000  0.75000  0.75000  Biso   1.000  Mn
  Mn7      1.0000 0.50000  0.00000  0.50000  Biso   1.000  Mn
  Mn8      1.0000 0.00000  0.50000  0.00000  Biso   1.000  Mn
  Mn9      1.0000 0.00000  0.00000  0.00000  Biso   1.000  Mn
  Mn10     1.0000 0.50000  0.50000  0.50000  Biso   1.000  Mn
  Mn11     1.0000 0.25000  0.75000  0.75000  Biso   1.000  Mn
  Mn12     1.0000 0.25000  0.25000  0.25000  Biso   1.000  Mn
