data_image0
_cell_length_a       26.211
_cell_length_b       13.5295
_cell_length_c       6.7481
_cell_angle_alpha    90
_cell_angle_beta     92.294
_cell_angle_gamma    90

_symmetry_space_group_name_H-M    "P 1"
_symmetry_int_tables_number       1

loop_
  _symmetry_equiv_pos_as_xyz
  'x, y, z'

loop_
  _atom_site_label
  _atom_site_occupancy
  _atom_site_fract_x
  _atom_site_fract_y
  _atom_site_fract_z
  _atom_site_thermal_displace_type
  _atom_site_B_iso_or_equiv
  _atom_site_type_symbol
  Ce1      1.0000 0.10348  0.19284  0.50963  Biso   1.000  Ce
  N1       1.0000 0.29573  0.86900  0.40880  Biso   1.000  N
  O1       1.0000 0.31348  0.22089  0.42510  Biso   1.000  O
  O2       1.0000 0.37924  0.12650  0.50870  Biso   1.000  O
  O3       1.0000 0.13721  0.04084  0.40180  Biso   1.000  O
  O4       1.0000 0.14023  0.88475  0.30450  Biso   1.000  O
  O5       1.0000 0.04164  0.06500  0.62580  Biso   1.000  O
  H1       1.0000 0.01200  0.06060  0.67190  Biso   1.000  H
  H2       1.0000 0.05160  0.00630  0.65030  Biso   1.000  H
  O6       1.0000 0.14067  0.22200  0.19120  Biso   1.000  O
  H3       1.0000 0.15990  0.26770  0.15090  Biso   1.000  H
  H4       1.0000 0.12960  0.19290  0.08650  Biso   1.000  H
  O7       1.0000 0.07019  0.27930  0.80450  Biso   1.000  O
  H5       1.0000 0.06680  0.34160  0.81210  Biso   1.000  H
  H6       1.0000 0.03930  0.25290  0.87380  Biso   1.000  H
  O8       1.0000 0.01627  0.26100  0.42280  Biso   1.000  O
  O9       1.0000 0.04463  0.13920  0.20700  Biso   1.000  O
  C1       1.0000 0.16117  0.96420  0.36240  Biso   1.000  C
  C2       1.0000 0.21857  0.96490  0.38710  Biso   1.000  C
  C3       1.0000 0.24475  0.87540  0.38460  Biso   1.000  C
  H7       1.0000 0.22610  0.81740  0.36540  Biso   1.000  H
  C4       1.0000 0.32221  0.95320  0.43320  Biso   1.000  C
  H8       1.0000 0.35750  0.94930  0.45060  Biso   1.000  H
  C5       1.0000 0.29941  0.04640  0.43380  Biso   1.000  C
  C6       1.0000 0.24661  0.05240  0.41090  Biso   1.000  C
  H9       1.0000 0.23020  0.11330  0.41140  Biso   1.000  H
  C7       1.0000 0.33233  0.13720  0.45720  Biso   1.000  C
  Ce2      1.0000 0.60348  0.69284  0.50963  Biso   1.000  Ce
  N2       1.0000 0.79573  0.36900  0.40880  Biso   1.000  N
  O10      1.0000 0.81348  0.72089  0.42510  Biso   1.000  O
  O11      1.0000 0.87924  0.62650  0.50870  Biso   1.000  O
  O12      1.0000 0.63721  0.54084  0.40180  Biso   1.000  O
  O13      1.0000 0.64023  0.38475  0.30450  Biso   1.000  O
  O14      1.0000 0.54164  0.56500  0.62580  Biso   1.000  O
  H10      1.0000 0.51200  0.56060  0.67190  Biso   1.000  H
  H11      1.0000 0.55160  0.50630  0.65030  Biso   1.000  H
  O15      1.0000 0.64067  0.72200  0.19120  Biso   1.000  O
  H12      1.0000 0.65990  0.76770  0.15090  Biso   1.000  H
  H13      1.0000 0.62960  0.69290  0.08650  Biso   1.000  H
  O16      1.0000 0.57019  0.77930  0.80450  Biso   1.000  O
  H14      1.0000 0.56680  0.84160  0.81210  Biso   1.000  H
  H15      1.0000 0.53930  0.75290  0.87380  Biso   1.000  H
  O17      1.0000 0.51627  0.76100  0.42280  Biso   1.000  O
  O18      1.0000 0.54463  0.63920  0.20700  Biso   1.000  O
  C8       1.0000 0.66117  0.46420  0.36240  Biso   1.000  C
  C9       1.0000 0.71857  0.46490  0.38710  Biso   1.000  C
  C10      1.0000 0.74475  0.37540  0.38460  Biso   1.000  C
  H16      1.0000 0.72610  0.31740  0.36540  Biso   1.000  H
  C11      1.0000 0.82221  0.45320  0.43320  Biso   1.000  C
  H17      1.0000 0.85750  0.44930  0.45060  Biso   1.000  H
  C12      1.0000 0.79941  0.54640  0.43380  Biso   1.000  C
  C13      1.0000 0.74661  0.55240  0.41090  Biso   1.000  C
  H18      1.0000 0.73020  0.61330  0.41140  Biso   1.000  H
  C14      1.0000 0.83233  0.63720  0.45720  Biso   1.000  C
  Ce3      1.0000 0.89652  0.19284  0.99037  Biso   1.000  Ce
  N3       1.0000 0.70427  0.86900  0.09120  Biso   1.000  N
  O19      1.0000 0.68652  0.22089  0.07490  Biso   1.000  O
  O20      1.0000 0.62076  0.12650  0.99130  Biso   1.000  O
  O21      1.0000 0.86279  0.04084  0.09820  Biso   1.000  O
  O22      1.0000 0.85977  0.88475  0.19550  Biso   1.000  O
  O23      1.0000 0.95836  0.06500  0.87420  Biso   1.000  O
  H19      1.0000 0.98800  0.06060  0.82810  Biso   1.000  H
  H20      1.0000 0.94840  0.00630  0.84970  Biso   1.000  H
  O24      1.0000 0.85933  0.22200  0.30880  Biso   1.000  O
  H21      1.0000 0.84010  0.26770  0.34910  Biso   1.000  H
  H22      1.0000 0.87040  0.19290  0.41350  Biso   1.000  H
  O25      1.0000 0.92981  0.27930  0.69550  Biso   1.000  O
  H23      1.0000 0.93320  0.34160  0.68790  Biso   1.000  H
  H24      1.0000 0.96070  0.25290  0.62620  Biso   1.000  H
  O26      1.0000 0.98373  0.26100  0.07720  Biso   1.000  O
  O27      1.0000 0.95537  0.13920  0.29300  Biso   1.000  O
  C15      1.0000 0.83883  0.96420  0.13760  Biso   1.000  C
  C16      1.0000 0.78143  0.96490  0.11290  Biso   1.000  C
  C17      1.0000 0.75525  0.87540  0.11540  Biso   1.000  C
  H25      1.0000 0.77390  0.81740  0.13460  Biso   1.000  H
  C18      1.0000 0.67779  0.95320  0.06680  Biso   1.000  C
  H26      1.0000 0.64250  0.94930  0.04940  Biso   1.000  H
  C19      1.0000 0.70059  0.04640  0.06620  Biso   1.000  C
  C20      1.0000 0.75339  0.05240  0.08910  Biso   1.000  C
  H27      1.0000 0.76980  0.11330  0.08860  Biso   1.000  H
  C21      1.0000 0.66767  0.13720  0.04280  Biso   1.000  C
  Ce4      1.0000 0.39652  0.69284  0.99037  Biso   1.000  Ce
  N4       1.0000 0.20427  0.36900  0.09120  Biso   1.000  N
  O28      1.0000 0.18652  0.72089  0.07490  Biso   1.000  O
  O29      1.0000 0.12076  0.62650  0.99130  Biso   1.000  O
  O30      1.0000 0.36279  0.54084  0.09820  Biso   1.000  O
  O31      1.0000 0.35977  0.38475  0.19550  Biso   1.000  O
  O32      1.0000 0.45836  0.56500  0.87420  Biso   1.000  O
  H28      1.0000 0.48800  0.56060  0.82810  Biso   1.000  H
  H29      1.0000 0.44840  0.50630  0.84970  Biso   1.000  H
  O33      1.0000 0.35933  0.72200  0.30880  Biso   1.000  O
  H30      1.0000 0.34010  0.76770  0.34910  Biso   1.000  H
  H31      1.0000 0.37040  0.69290  0.41350  Biso   1.000  H
  O34      1.0000 0.42981  0.77930  0.69550  Biso   1.000  O
  H32      1.0000 0.43320  0.84160  0.68790  Biso   1.000  H
  H33      1.0000 0.46070  0.75290  0.62620  Biso   1.000  H
  O35      1.0000 0.48373  0.76100  0.07720  Biso   1.000  O
  O36      1.0000 0.45537  0.63920  0.29300  Biso   1.000  O
  C22      1.0000 0.33883  0.46420  0.13760  Biso   1.000  C
  C23      1.0000 0.28143  0.46490  0.11290  Biso   1.000  C
  C24      1.0000 0.25525  0.37540  0.11540  Biso   1.000  C
  H34      1.0000 0.27390  0.31740  0.13460  Biso   1.000  H
  C25      1.0000 0.17779  0.45320  0.06680  Biso   1.000  C
  H35      1.0000 0.14250  0.44930  0.04940  Biso   1.000  H
  C26      1.0000 0.20059  0.54640  0.06620  Biso   1.000  C
  C27      1.0000 0.25339  0.55240  0.08910  Biso   1.000  C
  H36      1.0000 0.26980  0.61330  0.08860  Biso   1.000  H
  C28      1.0000 0.16767  0.63720  0.04280  Biso   1.000  C
  Ce5      1.0000 0.89652  0.80716  0.49037  Biso   1.000  Ce
  N5       1.0000 0.70427  0.13100  0.59120  Biso   1.000  N
  O37      1.0000 0.68652  0.77911  0.57490  Biso   1.000  O
  O38      1.0000 0.62076  0.87350  0.49130  Biso   1.000  O
  O39      1.0000 0.86279  0.95916  0.59820  Biso   1.000  O
  O40      1.0000 0.85977  0.11525  0.69550  Biso   1.000  O
  O41      1.0000 0.95836  0.93500  0.37420  Biso   1.000  O
  H37      1.0000 0.98800  0.93940  0.32810  Biso   1.000  H
  H38      1.0000 0.94840  0.99370  0.34970  Biso   1.000  H
  O42      1.0000 0.85933  0.77800  0.80880  Biso   1.000  O
  H39      1.0000 0.84010  0.73230  0.84910  Biso   1.000  H
  H40      1.0000 0.87040  0.80710  0.91350  Biso   1.000  H
  O43      1.0000 0.92981  0.72070  0.19550  Biso   1.000  O
  H41      1.0000 0.93320  0.65840  0.18790  Biso   1.000  H
  H42      1.0000 0.96070  0.74710  0.12620  Biso   1.000  H
  O44      1.0000 0.98373  0.73900  0.57720  Biso   1.000  O
  O45      1.0000 0.95537  0.86080  0.79300  Biso   1.000  O
  C29      1.0000 0.83883  0.03580  0.63760  Biso   1.000  C
  C30      1.0000 0.78143  0.03510  0.61290  Biso   1.000  C
  C31      1.0000 0.75525  0.12460  0.61540  Biso   1.000  C
  H43      1.0000 0.77390  0.18260  0.63460  Biso   1.000  H
  C32      1.0000 0.67779  0.04680  0.56680  Biso   1.000  C
  H44      1.0000 0.64250  0.05070  0.54940  Biso   1.000  H
  C33      1.0000 0.70059  0.95360  0.56620  Biso   1.000  C
  C34      1.0000 0.75339  0.94760  0.58910  Biso   1.000  C
  H45      1.0000 0.76980  0.88670  0.58860  Biso   1.000  H
  C35      1.0000 0.66767  0.86280  0.54280  Biso   1.000  C
  Ce6      1.0000 0.39652  0.30716  0.49037  Biso   1.000  Ce
  N6       1.0000 0.20427  0.63100  0.59120  Biso   1.000  N
  O46      1.0000 0.18652  0.27911  0.57490  Biso   1.000  O
  O47      1.0000 0.12076  0.37350  0.49130  Biso   1.000  O
  O48      1.0000 0.36279  0.45916  0.59820  Biso   1.000  O
  O49      1.0000 0.35977  0.61525  0.69550  Biso   1.000  O
  O50      1.0000 0.45836  0.43500  0.37420  Biso   1.000  O
  H46      1.0000 0.48800  0.43940  0.32810  Biso   1.000  H
  H47      1.0000 0.44840  0.49370  0.34970  Biso   1.000  H
  O51      1.0000 0.35933  0.27800  0.80880  Biso   1.000  O
  H48      1.0000 0.34010  0.23230  0.84910  Biso   1.000  H
  H49      1.0000 0.37040  0.30710  0.91350  Biso   1.000  H
  O52      1.0000 0.42981  0.22070  0.19550  Biso   1.000  O
  H50      1.0000 0.43320  0.15840  0.18790  Biso   1.000  H
  H51      1.0000 0.46070  0.24710  0.12620  Biso   1.000  H
  O53      1.0000 0.48373  0.23900  0.57720  Biso   1.000  O
  O54      1.0000 0.45537  0.36080  0.79300  Biso   1.000  O
  C36      1.0000 0.33883  0.53580  0.63760  Biso   1.000  C
  C37      1.0000 0.28143  0.53510  0.61290  Biso   1.000  C
  C38      1.0000 0.25525  0.62460  0.61540  Biso   1.000  C
  H52      1.0000 0.27390  0.68260  0.63460  Biso   1.000  H
  C39      1.0000 0.17779  0.54680  0.56680  Biso   1.000  C
  H53      1.0000 0.14250  0.55070  0.54940  Biso   1.000  H
  C40      1.0000 0.20059  0.45360  0.56620  Biso   1.000  C
  C41      1.0000 0.25339  0.44760  0.58910  Biso   1.000  C
  H54      1.0000 0.26980  0.38670  0.58860  Biso   1.000  H
  C42      1.0000 0.16767  0.36280  0.54280  Biso   1.000  C
  Ce7      1.0000 0.10348  0.80716  0.00963  Biso   1.000  Ce
  N7       1.0000 0.29573  0.13100  0.90880  Biso   1.000  N
  O55      1.0000 0.31348  0.77911  0.92510  Biso   1.000  O
  O56      1.0000 0.37924  0.87350  0.00870  Biso   1.000  O
  O57      1.0000 0.13721  0.95916  0.90180  Biso   1.000  O
  O58      1.0000 0.14023  0.11525  0.80450  Biso   1.000  O
  O59      1.0000 0.04164  0.93500  0.12580  Biso   1.000  O
  H55      1.0000 0.01200  0.93940  0.17190  Biso   1.000  H
  H56      1.0000 0.05160  0.99370  0.15030  Biso   1.000  H
  O60      1.0000 0.14067  0.77800  0.69120  Biso   1.000  O
  H57      1.0000 0.15990  0.73230  0.65090  Biso   1.000  H
  H58      1.0000 0.12960  0.80710  0.58650  Biso   1.000  H
  O61      1.0000 0.07019  0.72070  0.30450  Biso   1.000  O
  H59      1.0000 0.06680  0.65840  0.31210  Biso   1.000  H
  H60      1.0000 0.03930  0.74710  0.37380  Biso   1.000  H
  O62      1.0000 0.01627  0.73900  0.92280  Biso   1.000  O
  O63      1.0000 0.04463  0.86080  0.70700  Biso   1.000  O
  C43      1.0000 0.16117  0.03580  0.86240  Biso   1.000  C
  C44      1.0000 0.21857  0.03510  0.88710  Biso   1.000  C
  C45      1.0000 0.24475  0.12460  0.88460  Biso   1.000  C
  H61      1.0000 0.22610  0.18260  0.86540  Biso   1.000  H
  C46      1.0000 0.32221  0.04680  0.93320  Biso   1.000  C
  H62      1.0000 0.35750  0.05070  0.95060  Biso   1.000  H
  C47      1.0000 0.29941  0.95360  0.93380  Biso   1.000  C
  C48      1.0000 0.24661  0.94760  0.91090  Biso   1.000  C
  H63      1.0000 0.23020  0.88670  0.91140  Biso   1.000  H
  C49      1.0000 0.33233  0.86280  0.95720  Biso   1.000  C
  Ce8      1.0000 0.60348  0.30716  0.00963  Biso   1.000  Ce
  N8       1.0000 0.79573  0.63100  0.90880  Biso   1.000  N
  O64      1.0000 0.81348  0.27911  0.92510  Biso   1.000  O
  O65      1.0000 0.87924  0.37350  0.00870  Biso   1.000  O
  O66      1.0000 0.63721  0.45916  0.90180  Biso   1.000  O
  O67      1.0000 0.64023  0.61525  0.80450  Biso   1.000  O
  O68      1.0000 0.54164  0.43500  0.12580  Biso   1.000  O
  H64      1.0000 0.51200  0.43940  0.17190  Biso   1.000  H
  H65      1.0000 0.55160  0.49370  0.15030  Biso   1.000  H
  O69      1.0000 0.64067  0.27800  0.69120  Biso   1.000  O
  H66      1.0000 0.65990  0.23230  0.65090  Biso   1.000  H
  H67      1.0000 0.62960  0.30710  0.58650  Biso   1.000  H
  O70      1.0000 0.57019  0.22070  0.30450  Biso   1.000  O
  H68      1.0000 0.56680  0.15840  0.31210  Biso   1.000  H
  H69      1.0000 0.53930  0.24710  0.37380  Biso   1.000  H
  O71      1.0000 0.51627  0.23900  0.92280  Biso   1.000  O
  O72      1.0000 0.54463  0.36080  0.70700  Biso   1.000  O
  C50      1.0000 0.66117  0.53580  0.86240  Biso   1.000  C
  C51      1.0000 0.71857  0.53510  0.88710  Biso   1.000  C
  C52      1.0000 0.74475  0.62460  0.88460  Biso   1.000  C
  H70      1.0000 0.72610  0.68260  0.86540  Biso   1.000  H
  C53      1.0000 0.82221  0.54680  0.93320  Biso   1.000  C
  H71      1.0000 0.85750  0.55070  0.95060  Biso   1.000  H
  C54      1.0000 0.79941  0.45360  0.93380  Biso   1.000  C
  C55      1.0000 0.74661  0.44760  0.91090  Biso   1.000  C
  H72      1.0000 0.73020  0.38670  0.91140  Biso   1.000  H
  C56      1.0000 0.83233  0.36280  0.95720  Biso   1.000  C
  S1       1.0000 0.00000  0.20065  0.25000  Biso   1.000  S
  S2       1.0000 0.50000  0.70065  0.25000  Biso   1.000  S
  S3       1.0000 0.00000  0.79935  0.75000  Biso   1.000  S
  S4       1.0000 0.50000  0.29935  0.75000  Biso   1.000  S
