data_image0
_cell_length_a       11.361
_cell_length_b       12.645
_cell_length_c       14.775
_cell_angle_alpha    90
_cell_angle_beta     90
_cell_angle_gamma    90

_symmetry_space_group_name_H-M    P 1
_symmetry_int_tables_number       1

loop_
  _symmetry_equiv_pos_as_xyz
  'x, y, z'

loop_
  _atom_site_label
  _atom_site_occupancy
  _atom_site_fract_x
  _atom_site_fract_y
  _atom_site_fract_z
  _atom_site_thermal_displace_type
  _atom_site_B_iso_or_equiv
  _atom_site_type_symbol
  Zn1      1.0000 0.50000  0.00000  0.75000  Biso   1.000  Zn
  Zn2      1.0000 0.50000  0.00000  0.25000  Biso   1.000  Zn
  H1       1.0000 0.69380  0.71670  0.86300  Biso   1.000  H
  H2       1.0000 0.82960  0.57990  0.86330  Biso   1.000  H
  H3       1.0000 0.70780  0.84880  0.72080  Biso   1.000  H
  H4       1.0000 0.91170  0.84350  0.72200  Biso   1.000  H
  H5       1.0000 0.30620  0.28330  0.86300  Biso   1.000  H
  H6       1.0000 0.17040  0.42010  0.86330  Biso   1.000  H
  H7       1.0000 0.29220  0.15120  0.72080  Biso   1.000  H
  H8       1.0000 0.08830  0.15650  0.72200  Biso   1.000  H
  H9       1.0000 0.30620  0.71670  0.63700  Biso   1.000  H
  H10      1.0000 0.17040  0.57990  0.63670  Biso   1.000  H
  H11      1.0000 0.29220  0.84880  0.77920  Biso   1.000  H
  H12      1.0000 0.08830  0.84350  0.77800  Biso   1.000  H
  H13      1.0000 0.69380  0.28330  0.63700  Biso   1.000  H
  H14      1.0000 0.82960  0.42010  0.63670  Biso   1.000  H
  H15      1.0000 0.70780  0.15120  0.77920  Biso   1.000  H
  H16      1.0000 0.91170  0.15650  0.77800  Biso   1.000  H
  H17      1.0000 0.30620  0.28330  0.13700  Biso   1.000  H
  H18      1.0000 0.17040  0.42010  0.13670  Biso   1.000  H
  H19      1.0000 0.29220  0.15120  0.27920  Biso   1.000  H
  H20      1.0000 0.08830  0.15650  0.27800  Biso   1.000  H
  H21      1.0000 0.69380  0.71670  0.13700  Biso   1.000  H
  H22      1.0000 0.82960  0.57990  0.13670  Biso   1.000  H
  H23      1.0000 0.70780  0.84880  0.27920  Biso   1.000  H
  H24      1.0000 0.91170  0.84350  0.27800  Biso   1.000  H
  H25      1.0000 0.69380  0.28330  0.36300  Biso   1.000  H
  H26      1.0000 0.82960  0.42010  0.36330  Biso   1.000  H
  H27      1.0000 0.70780  0.15120  0.22080  Biso   1.000  H
  H28      1.0000 0.91170  0.15650  0.22200  Biso   1.000  H
  H29      1.0000 0.30620  0.71670  0.36300  Biso   1.000  H
  H30      1.0000 0.17040  0.57990  0.36330  Biso   1.000  H
  H31      1.0000 0.29220  0.84880  0.22080  Biso   1.000  H
  H32      1.0000 0.08830  0.84350  0.22200  Biso   1.000  H
  C1       1.0000 0.53690  0.84800  0.91987  Biso   1.000  C
  C2       1.0000 0.71975  0.68789  0.91896  Biso   1.000  C
  C3       1.0000 0.80113  0.60746  0.91897  Biso   1.000  C
  C4       1.0000 0.91913  0.40893  0.91916  Biso   1.000  C
  C5       1.0000 0.75010  0.91192  0.73337  Biso   1.000  C
  C6       1.0000 0.87180  0.90817  0.73331  Biso   1.000  C
  C7       1.0000 0.46310  0.15200  0.91987  Biso   1.000  C
  C8       1.0000 0.28025  0.31211  0.91896  Biso   1.000  C
  C9       1.0000 0.19887  0.39254  0.91897  Biso   1.000  C
  C10      1.0000 0.08087  0.59107  0.91916  Biso   1.000  C
  C11      1.0000 0.24990  0.08808  0.73337  Biso   1.000  C
  C12      1.0000 0.12820  0.09183  0.73331  Biso   1.000  C
  C13      1.0000 0.46310  0.84800  0.58013  Biso   1.000  C
  C14      1.0000 0.28025  0.68789  0.58104  Biso   1.000  C
  C15      1.0000 0.19887  0.60746  0.58103  Biso   1.000  C
  C16      1.0000 0.08087  0.40893  0.58084  Biso   1.000  C
  C17      1.0000 0.24990  0.91192  0.76663  Biso   1.000  C
  C18      1.0000 0.12820  0.90817  0.76669  Biso   1.000  C
  C19      1.0000 0.53690  0.15200  0.58013  Biso   1.000  C
  C20      1.0000 0.71975  0.31211  0.58104  Biso   1.000  C
  C21      1.0000 0.80113  0.39254  0.58103  Biso   1.000  C
  C22      1.0000 0.91913  0.59107  0.58084  Biso   1.000  C
  C23      1.0000 0.75010  0.08808  0.76663  Biso   1.000  C
  C24      1.0000 0.87180  0.09183  0.76669  Biso   1.000  C
  C25      1.0000 0.46310  0.15200  0.08013  Biso   1.000  C
  C26      1.0000 0.28025  0.31211  0.08104  Biso   1.000  C
  C27      1.0000 0.19887  0.39254  0.08103  Biso   1.000  C
  C28      1.0000 0.08087  0.59107  0.08084  Biso   1.000  C
  C29      1.0000 0.24990  0.08808  0.26663  Biso   1.000  C
  C30      1.0000 0.12820  0.09183  0.26669  Biso   1.000  C
  C31      1.0000 0.53690  0.84800  0.08013  Biso   1.000  C
  C32      1.0000 0.71975  0.68789  0.08104  Biso   1.000  C
  C33      1.0000 0.80113  0.60746  0.08103  Biso   1.000  C
  C34      1.0000 0.91913  0.40893  0.08084  Biso   1.000  C
  C35      1.0000 0.75010  0.91192  0.26663  Biso   1.000  C
  C36      1.0000 0.87180  0.90817  0.26669  Biso   1.000  C
  C37      1.0000 0.53690  0.15200  0.41987  Biso   1.000  C
  C38      1.0000 0.71975  0.31211  0.41896  Biso   1.000  C
  C39      1.0000 0.80113  0.39254  0.41897  Biso   1.000  C
  C40      1.0000 0.91913  0.59107  0.41916  Biso   1.000  C
  C41      1.0000 0.75010  0.08808  0.23337  Biso   1.000  C
  C42      1.0000 0.87180  0.09183  0.23331  Biso   1.000  C
  C43      1.0000 0.46310  0.84800  0.41987  Biso   1.000  C
  C44      1.0000 0.28025  0.68789  0.41896  Biso   1.000  C
  C45      1.0000 0.19887  0.60746  0.41897  Biso   1.000  C
  C46      1.0000 0.08087  0.40893  0.41916  Biso   1.000  C
  C47      1.0000 0.24990  0.91192  0.23337  Biso   1.000  C
  C48      1.0000 0.12820  0.90817  0.23331  Biso   1.000  C
  C49      1.0000 0.93465  0.00000  0.75000  Biso   1.000  C
  C50      1.0000 0.06535  0.00000  0.75000  Biso   1.000  C
  C51      1.0000 0.06535  0.00000  0.25000  Biso   1.000  C
  C52      1.0000 0.93465  0.00000  0.25000  Biso   1.000  C
  C53      1.0000 0.58293  0.80764  0.00000  Biso   1.000  C
  C54      1.0000 0.67443  0.72807  0.00000  Biso   1.000  C
  C55      1.0000 0.84170  0.56580  0.00000  Biso   1.000  C
  C56      1.0000 0.93330  0.47806  0.00000  Biso   1.000  C
  C57      1.0000 0.41707  0.19236  0.00000  Biso   1.000  C
  C58      1.0000 0.32557  0.27193  0.00000  Biso   1.000  C
  C59      1.0000 0.15830  0.43420  0.00000  Biso   1.000  C
  C60      1.0000 0.06670  0.52194  0.00000  Biso   1.000  C
  C61      1.0000 0.41707  0.80764  0.50000  Biso   1.000  C
  C62      1.0000 0.32557  0.72807  0.50000  Biso   1.000  C
  C63      1.0000 0.15830  0.56580  0.50000  Biso   1.000  C
  C64      1.0000 0.06670  0.47806  0.50000  Biso   1.000  C
  C65      1.0000 0.58293  0.19236  0.50000  Biso   1.000  C
  C66      1.0000 0.67443  0.27193  0.50000  Biso   1.000  C
  C67      1.0000 0.84170  0.43420  0.50000  Biso   1.000  C
  C68      1.0000 0.93330  0.52194  0.50000  Biso   1.000  C
  N1       1.0000 0.50048  0.88025  0.85257  Biso   1.000  N
  N2       1.0000 0.90630  0.35832  0.85731  Biso   1.000  N
  N3       1.0000 0.49952  0.11975  0.85257  Biso   1.000  N
  N4       1.0000 0.09370  0.64168  0.85731  Biso   1.000  N
  N5       1.0000 0.49952  0.88025  0.64743  Biso   1.000  N
  N6       1.0000 0.09370  0.35832  0.64269  Biso   1.000  N
  N7       1.0000 0.50048  0.11975  0.64743  Biso   1.000  N
  N8       1.0000 0.90630  0.64168  0.64269  Biso   1.000  N
  N9       1.0000 0.49952  0.11975  0.14743  Biso   1.000  N
  N10      1.0000 0.09370  0.64168  0.14269  Biso   1.000  N
  N11      1.0000 0.50048  0.88025  0.14743  Biso   1.000  N
  N12      1.0000 0.90630  0.35832  0.14269  Biso   1.000  N
  N13      1.0000 0.50048  0.11975  0.35257  Biso   1.000  N
  N14      1.0000 0.90630  0.64168  0.35731  Biso   1.000  N
  N15      1.0000 0.49952  0.88025  0.35257  Biso   1.000  N
  N16      1.0000 0.09370  0.35832  0.35731  Biso   1.000  N
  N17      1.0000 0.68946  0.00000  0.75000  Biso   1.000  N
  N18      1.0000 0.31054  0.00000  0.75000  Biso   1.000  N
  N19      1.0000 0.31054  0.00000  0.25000  Biso   1.000  N
  N20      1.0000 0.68946  0.00000  0.25000  Biso   1.000  N
