data_image0
_cell_length_a       16.317
_cell_length_b       13.02
_cell_length_c       13.591
_cell_angle_alpha    90
_cell_angle_beta     100.303
_cell_angle_gamma    90

_symmetry_space_group_name_H-M    "P 1"
_symmetry_int_tables_number       1

loop_
  _symmetry_equiv_pos_as_xyz
  'x, y, z'

loop_
  _atom_site_label
  _atom_site_occupancy
  _atom_site_fract_x
  _atom_site_fract_y
  _atom_site_fract_z
  _atom_site_thermal_displace_type
  _atom_site_B_iso_or_equiv
  _atom_site_type_symbol
  O1       1.0000 0.05536  0.24280  0.66660  Biso   1.000  O
  O2       1.0000 0.13960  0.20130  0.80890  Biso   1.000  O
  O3       1.0000 0.36860  0.95640  0.81340  Biso   1.000  O
  O4       1.0000 0.41503  0.92570  0.67030  Biso   1.000  O
  N1       1.0000 0.21280  0.09410  0.40070  Biso   1.000  N
  H1       1.0000 0.23200  0.04380  0.37050  Biso   1.000  H
  C1       1.0000 0.11940  0.19670  0.71550  Biso   1.000  C
  C2       1.0000 0.17280  0.13670  0.65890  Biso   1.000  C
  C3       1.0000 0.16450  0.14430  0.55390  Biso   1.000  C
  H2       1.0000 0.12260  0.18500  0.51820  Biso   1.000  H
  C4       1.0000 0.21850  0.09130  0.50350  Biso   1.000  C
  C5       1.0000 0.28240  0.03160  0.55850  Biso   1.000  C
  H3       1.0000 0.31950  0.99710  0.52550  Biso   1.000  H
  C6       1.0000 0.29080  0.02360  0.66300  Biso   1.000  C
  C7       1.0000 0.23650  0.07560  0.71180  Biso   1.000  C
  H4       1.0000 0.24210  0.07000  0.78100  Biso   1.000  H
  C8       1.0000 0.36310  0.96360  0.72120  Biso   1.000  C
  C9       1.0000 0.17560  0.18200  0.34310  Biso   1.000  C
  H5       1.0000 0.20570  0.19360  0.28860  Biso   1.000  H
  H6       1.0000 0.18380  0.24210  0.38590  Biso   1.000  H
  C10      1.0000 0.08300  0.17360  0.29910  Biso   1.000  C
  C11      1.0000 0.04210  0.08250  0.27390  Biso   1.000  C
  H7       1.0000 0.07000  0.02050  0.28840  Biso   1.000  H
  C12      1.0000 0.04100  0.26350  0.27410  Biso   1.000  C
  H8       1.0000 0.06820  0.32580  0.28980  Biso   1.000  H
  O5       1.0000 0.55536  0.74280  0.66660  Biso   1.000  O
  O6       1.0000 0.63960  0.70130  0.80890  Biso   1.000  O
  O7       1.0000 0.86860  0.45640  0.81340  Biso   1.000  O
  O8       1.0000 0.91503  0.42570  0.67030  Biso   1.000  O
  N2       1.0000 0.71280  0.59410  0.40070  Biso   1.000  N
  H9       1.0000 0.73200  0.54380  0.37050  Biso   1.000  H
  C13      1.0000 0.61940  0.69670  0.71550  Biso   1.000  C
  C14      1.0000 0.67280  0.63670  0.65890  Biso   1.000  C
  C15      1.0000 0.66450  0.64430  0.55390  Biso   1.000  C
  H10      1.0000 0.62260  0.68500  0.51820  Biso   1.000  H
  C16      1.0000 0.71850  0.59130  0.50350  Biso   1.000  C
  C17      1.0000 0.78240  0.53160  0.55850  Biso   1.000  C
  H11      1.0000 0.81950  0.49710  0.52550  Biso   1.000  H
  C18      1.0000 0.79080  0.52360  0.66300  Biso   1.000  C
  C19      1.0000 0.73650  0.57560  0.71180  Biso   1.000  C
  H12      1.0000 0.74210  0.57000  0.78100  Biso   1.000  H
  C20      1.0000 0.86310  0.46360  0.72120  Biso   1.000  C
  C21      1.0000 0.67560  0.68200  0.34310  Biso   1.000  C
  H13      1.0000 0.70570  0.69360  0.28860  Biso   1.000  H
  H14      1.0000 0.68380  0.74210  0.38590  Biso   1.000  H
  C22      1.0000 0.58300  0.67360  0.29910  Biso   1.000  C
  C23      1.0000 0.54210  0.58250  0.27390  Biso   1.000  C
  H15      1.0000 0.57000  0.52050  0.28840  Biso   1.000  H
  C24      1.0000 0.54100  0.76350  0.27410  Biso   1.000  C
  H16      1.0000 0.56820  0.82580  0.28980  Biso   1.000  H
  O9       1.0000 0.94464  0.24280  0.83340  Biso   1.000  O
  O10      1.0000 0.86040  0.20130  0.69110  Biso   1.000  O
  O11      1.0000 0.63140  0.95640  0.68660  Biso   1.000  O
  O12      1.0000 0.58497  0.92570  0.82970  Biso   1.000  O
  N3       1.0000 0.78720  0.09410  0.09930  Biso   1.000  N
  H17      1.0000 0.76800  0.04380  0.12950  Biso   1.000  H
  C25      1.0000 0.88060  0.19670  0.78450  Biso   1.000  C
  C26      1.0000 0.82720  0.13670  0.84110  Biso   1.000  C
  C27      1.0000 0.83550  0.14430  0.94610  Biso   1.000  C
  H18      1.0000 0.87740  0.18500  0.98180  Biso   1.000  H
  C28      1.0000 0.78150  0.09130  0.99650  Biso   1.000  C
  C29      1.0000 0.71760  0.03160  0.94150  Biso   1.000  C
  H19      1.0000 0.68050  0.99710  0.97450  Biso   1.000  H
  C30      1.0000 0.70920  0.02360  0.83700  Biso   1.000  C
  C31      1.0000 0.76350  0.07560  0.78820  Biso   1.000  C
  H20      1.0000 0.75790  0.07000  0.71900  Biso   1.000  H
  C32      1.0000 0.63690  0.96360  0.77880  Biso   1.000  C
  C33      1.0000 0.82440  0.18200  0.15690  Biso   1.000  C
  H21      1.0000 0.79430  0.19360  0.21140  Biso   1.000  H
  H22      1.0000 0.81620  0.24210  0.11410  Biso   1.000  H
  C34      1.0000 0.91700  0.17360  0.20090  Biso   1.000  C
  C35      1.0000 0.95790  0.08250  0.22610  Biso   1.000  C
  H23      1.0000 0.93000  0.02050  0.21160  Biso   1.000  H
  C36      1.0000 0.95900  0.26350  0.22590  Biso   1.000  C
  H24      1.0000 0.93180  0.32580  0.21020  Biso   1.000  H
  O13      1.0000 0.44464  0.74280  0.83340  Biso   1.000  O
  O14      1.0000 0.36040  0.70130  0.69110  Biso   1.000  O
  O15      1.0000 0.13140  0.45640  0.68660  Biso   1.000  O
  O16      1.0000 0.08497  0.42570  0.82970  Biso   1.000  O
  N4       1.0000 0.28720  0.59410  0.09930  Biso   1.000  N
  H25      1.0000 0.26800  0.54380  0.12950  Biso   1.000  H
  C37      1.0000 0.38060  0.69670  0.78450  Biso   1.000  C
  C38      1.0000 0.32720  0.63670  0.84110  Biso   1.000  C
  C39      1.0000 0.33550  0.64430  0.94610  Biso   1.000  C
  H26      1.0000 0.37740  0.68500  0.98180  Biso   1.000  H
  C40      1.0000 0.28150  0.59130  0.99650  Biso   1.000  C
  C41      1.0000 0.21760  0.53160  0.94150  Biso   1.000  C
  H27      1.0000 0.18050  0.49710  0.97450  Biso   1.000  H
  C42      1.0000 0.20920  0.52360  0.83700  Biso   1.000  C
  C43      1.0000 0.26350  0.57560  0.78820  Biso   1.000  C
  H28      1.0000 0.25790  0.57000  0.71900  Biso   1.000  H
  C44      1.0000 0.13690  0.46360  0.77880  Biso   1.000  C
  C45      1.0000 0.32440  0.68200  0.15690  Biso   1.000  C
  H29      1.0000 0.29430  0.69360  0.21140  Biso   1.000  H
  H30      1.0000 0.31620  0.74210  0.11410  Biso   1.000  H
  C46      1.0000 0.41700  0.67360  0.20090  Biso   1.000  C
  C47      1.0000 0.45790  0.58250  0.22610  Biso   1.000  C
  H31      1.0000 0.43000  0.52050  0.21160  Biso   1.000  H
  C48      1.0000 0.45900  0.76350  0.22590  Biso   1.000  C
  H32      1.0000 0.43180  0.82580  0.21020  Biso   1.000  H
  Zn1      1.0000 0.00000  0.33665  0.75000  Biso   1.000  Zn
  Zn2      1.0000 0.50000  0.83665  0.75000  Biso   1.000  Zn
  O17      1.0000 0.94464  0.75720  0.33340  Biso   1.000  O
  O18      1.0000 0.86040  0.79870  0.19110  Biso   1.000  O
  O19      1.0000 0.63140  0.04360  0.18660  Biso   1.000  O
  O20      1.0000 0.58497  0.07430  0.32970  Biso   1.000  O
  N5       1.0000 0.78720  0.90590  0.59930  Biso   1.000  N
  H33      1.0000 0.76800  0.95620  0.62950  Biso   1.000  H
  C49      1.0000 0.88060  0.80330  0.28450  Biso   1.000  C
  C50      1.0000 0.82720  0.86330  0.34110  Biso   1.000  C
  C51      1.0000 0.83550  0.85570  0.44610  Biso   1.000  C
  H34      1.0000 0.87740  0.81500  0.48180  Biso   1.000  H
  C52      1.0000 0.78150  0.90870  0.49650  Biso   1.000  C
  C53      1.0000 0.71760  0.96840  0.44150  Biso   1.000  C
  H35      1.0000 0.68050  0.00290  0.47450  Biso   1.000  H
  C54      1.0000 0.70920  0.97640  0.33700  Biso   1.000  C
  C55      1.0000 0.76350  0.92440  0.28820  Biso   1.000  C
  H36      1.0000 0.75790  0.93000  0.21900  Biso   1.000  H
  C56      1.0000 0.63690  0.03640  0.27880  Biso   1.000  C
  C57      1.0000 0.82440  0.81800  0.65690  Biso   1.000  C
  H37      1.0000 0.79430  0.80640  0.71140  Biso   1.000  H
  H38      1.0000 0.81620  0.75790  0.61410  Biso   1.000  H
  C58      1.0000 0.91700  0.82640  0.70090  Biso   1.000  C
  C59      1.0000 0.95790  0.91750  0.72610  Biso   1.000  C
  H39      1.0000 0.93000  0.97950  0.71160  Biso   1.000  H
  C60      1.0000 0.95900  0.73650  0.72590  Biso   1.000  C
  H40      1.0000 0.93180  0.67420  0.71020  Biso   1.000  H
  O21      1.0000 0.44464  0.25720  0.33340  Biso   1.000  O
  O22      1.0000 0.36040  0.29870  0.19110  Biso   1.000  O
  O23      1.0000 0.13140  0.54360  0.18660  Biso   1.000  O
  O24      1.0000 0.08497  0.57430  0.32970  Biso   1.000  O
  N6       1.0000 0.28720  0.40590  0.59930  Biso   1.000  N
  H41      1.0000 0.26800  0.45620  0.62950  Biso   1.000  H
  C61      1.0000 0.38060  0.30330  0.28450  Biso   1.000  C
  C62      1.0000 0.32720  0.36330  0.34110  Biso   1.000  C
  C63      1.0000 0.33550  0.35570  0.44610  Biso   1.000  C
  H42      1.0000 0.37740  0.31500  0.48180  Biso   1.000  H
  C64      1.0000 0.28150  0.40870  0.49650  Biso   1.000  C
  C65      1.0000 0.21760  0.46840  0.44150  Biso   1.000  C
  H43      1.0000 0.18050  0.50290  0.47450  Biso   1.000  H
  C66      1.0000 0.20920  0.47640  0.33700  Biso   1.000  C
  C67      1.0000 0.26350  0.42440  0.28820  Biso   1.000  C
  H44      1.0000 0.25790  0.43000  0.21900  Biso   1.000  H
  C68      1.0000 0.13690  0.53640  0.27880  Biso   1.000  C
  C69      1.0000 0.32440  0.31800  0.65690  Biso   1.000  C
  H45      1.0000 0.29430  0.30640  0.71140  Biso   1.000  H
  H46      1.0000 0.31620  0.25790  0.61410  Biso   1.000  H
  C70      1.0000 0.41700  0.32640  0.70090  Biso   1.000  C
  C71      1.0000 0.45790  0.41750  0.72610  Biso   1.000  C
  H47      1.0000 0.43000  0.47950  0.71160  Biso   1.000  H
  C72      1.0000 0.45900  0.23650  0.72590  Biso   1.000  C
  H48      1.0000 0.43180  0.17420  0.71020  Biso   1.000  H
  O25      1.0000 0.05536  0.75720  0.16660  Biso   1.000  O
  O26      1.0000 0.13960  0.79870  0.30890  Biso   1.000  O
  O27      1.0000 0.36860  0.04360  0.31340  Biso   1.000  O
  O28      1.0000 0.41503  0.07430  0.17030  Biso   1.000  O
  N7       1.0000 0.21280  0.90590  0.90070  Biso   1.000  N
  H49      1.0000 0.23200  0.95620  0.87050  Biso   1.000  H
  C73      1.0000 0.11940  0.80330  0.21550  Biso   1.000  C
  C74      1.0000 0.17280  0.86330  0.15890  Biso   1.000  C
  C75      1.0000 0.16450  0.85570  0.05390  Biso   1.000  C
  H50      1.0000 0.12260  0.81500  0.01820  Biso   1.000  H
  C76      1.0000 0.21850  0.90870  0.00350  Biso   1.000  C
  C77      1.0000 0.28240  0.96840  0.05850  Biso   1.000  C
  H51      1.0000 0.31950  0.00290  0.02550  Biso   1.000  H
  C78      1.0000 0.29080  0.97640  0.16300  Biso   1.000  C
  C79      1.0000 0.23650  0.92440  0.21180  Biso   1.000  C
  H52      1.0000 0.24210  0.93000  0.28100  Biso   1.000  H
  C80      1.0000 0.36310  0.03640  0.22120  Biso   1.000  C
  C81      1.0000 0.17560  0.81800  0.84310  Biso   1.000  C
  H53      1.0000 0.20570  0.80640  0.78860  Biso   1.000  H
  H54      1.0000 0.18380  0.75790  0.88590  Biso   1.000  H
  C82      1.0000 0.08300  0.82640  0.79910  Biso   1.000  C
  C83      1.0000 0.04210  0.91750  0.77390  Biso   1.000  C
  H55      1.0000 0.07000  0.97950  0.78840  Biso   1.000  H
  C84      1.0000 0.04100  0.73650  0.77410  Biso   1.000  C
  H56      1.0000 0.06820  0.67420  0.78980  Biso   1.000  H
  O29      1.0000 0.55536  0.25720  0.16660  Biso   1.000  O
  O30      1.0000 0.63960  0.29870  0.30890  Biso   1.000  O
  O31      1.0000 0.86860  0.54360  0.31340  Biso   1.000  O
  O32      1.0000 0.91503  0.57430  0.17030  Biso   1.000  O
  N8       1.0000 0.71280  0.40590  0.90070  Biso   1.000  N
  H57      1.0000 0.73200  0.45620  0.87050  Biso   1.000  H
  C85      1.0000 0.61940  0.30330  0.21550  Biso   1.000  C
  C86      1.0000 0.67280  0.36330  0.15890  Biso   1.000  C
  C87      1.0000 0.66450  0.35570  0.05390  Biso   1.000  C
  H58      1.0000 0.62260  0.31500  0.01820  Biso   1.000  H
  C88      1.0000 0.71850  0.40870  0.00350  Biso   1.000  C
  C89      1.0000 0.78240  0.46840  0.05850  Biso   1.000  C
  H59      1.0000 0.81950  0.50290  0.02550  Biso   1.000  H
  C90      1.0000 0.79080  0.47640  0.16300  Biso   1.000  C
  C91      1.0000 0.73650  0.42440  0.21180  Biso   1.000  C
  H60      1.0000 0.74210  0.43000  0.28100  Biso   1.000  H
  C92      1.0000 0.86310  0.53640  0.22120  Biso   1.000  C
  C93      1.0000 0.67560  0.31800  0.84310  Biso   1.000  C
  H61      1.0000 0.70570  0.30640  0.78860  Biso   1.000  H
  H62      1.0000 0.68380  0.25790  0.88590  Biso   1.000  H
  C94      1.0000 0.58300  0.32640  0.79910  Biso   1.000  C
  C95      1.0000 0.54210  0.41750  0.77390  Biso   1.000  C
  H63      1.0000 0.57000  0.47950  0.78840  Biso   1.000  H
  C96      1.0000 0.54100  0.23650  0.77410  Biso   1.000  C
  H64      1.0000 0.56820  0.17420  0.78980  Biso   1.000  H
  Zn3      1.0000 0.00000  0.66335  0.25000  Biso   1.000  Zn
  Zn4      1.0000 0.50000  0.16335  0.25000  Biso   1.000  Zn
