data_image0
_cell_length_a       13.795
_cell_length_b       12.83
_cell_length_c       18.815
_cell_angle_alpha    90
_cell_angle_beta     89.959
_cell_angle_gamma    90

_symmetry_space_group_name_H-M    "P 1"
_symmetry_int_tables_number       1

loop_
  _symmetry_equiv_pos_as_xyz
  'x, y, z'

loop_
  _atom_site_label
  _atom_site_occupancy
  _atom_site_fract_x
  _atom_site_fract_y
  _atom_site_fract_z
  _atom_site_thermal_displace_type
  _atom_site_B_iso_or_equiv
  _atom_site_type_symbol
  P1       1.0000 0.77220  0.09630  0.05540  Biso   1.000  P
  P2       1.0000 0.88870  0.76760  0.06180  Biso   1.000  P
  P3       1.0000 0.11870  0.96430  0.16670  Biso   1.000  P
  Al1      1.0000 0.88950  0.95960  0.16550  Biso   1.000  Al
  Al2      1.0000 0.11720  0.77460  0.06150  Biso   1.000  Al
  Al3      1.0000 0.22670  0.09610  0.04950  Biso   1.000  Al
  O1       1.0000 0.18030  0.04740  0.13060  Biso   1.000  O
  O2       1.0000 0.85950  0.82400  0.99390  Biso   1.000  O
  O3       1.0000 0.99470  0.73850  0.05780  Biso   1.000  O
  O4       1.0000 0.84660  0.16470  0.01780  Biso   1.000  O
  O5       1.0000 0.81680  0.05380  0.12360  Biso   1.000  O
  O6       1.0000 0.01240  0.99490  0.15820  Biso   1.000  O
  O7       1.0000 0.13770  0.85830  0.13350  Biso   1.000  O
  O8       1.0000 0.83190  0.66780  0.07020  Biso   1.000  O
  O9       1.0000 0.14710  0.95900  0.24490  Biso   1.000  O
  O10      1.0000 0.68370  0.16010  0.07580  Biso   1.000  O
  O11      1.0000 0.87000  0.83640  0.12670  Biso   1.000  O
  O12      1.0000 0.74000  0.00910  0.00710  Biso   1.000  O
  P4       1.0000 0.27220  0.59630  0.05540  Biso   1.000  P
  P5       1.0000 0.38870  0.26760  0.06180  Biso   1.000  P
  P6       1.0000 0.61870  0.46430  0.16670  Biso   1.000  P
  Al4      1.0000 0.38950  0.45960  0.16550  Biso   1.000  Al
  Al5      1.0000 0.61720  0.27460  0.06150  Biso   1.000  Al
  Al6      1.0000 0.72670  0.59610  0.04950  Biso   1.000  Al
  O13      1.0000 0.68030  0.54740  0.13060  Biso   1.000  O
  O14      1.0000 0.35950  0.32400  0.99390  Biso   1.000  O
  O15      1.0000 0.49470  0.23850  0.05780  Biso   1.000  O
  O16      1.0000 0.34660  0.66470  0.01780  Biso   1.000  O
  O17      1.0000 0.31680  0.55380  0.12360  Biso   1.000  O
  O18      1.0000 0.51240  0.49490  0.15820  Biso   1.000  O
  O19      1.0000 0.63770  0.35830  0.13350  Biso   1.000  O
  O20      1.0000 0.33190  0.16780  0.07020  Biso   1.000  O
  O21      1.0000 0.64710  0.45900  0.24490  Biso   1.000  O
  O22      1.0000 0.18370  0.66010  0.07580  Biso   1.000  O
  O23      1.0000 0.37000  0.33640  0.12670  Biso   1.000  O
  O24      1.0000 0.24000  0.50910  0.00710  Biso   1.000  O
  P7       1.0000 0.22780  0.09630  0.44460  Biso   1.000  P
  P8       1.0000 0.11130  0.76760  0.43820  Biso   1.000  P
  P9       1.0000 0.88130  0.96430  0.33330  Biso   1.000  P
  Al7      1.0000 0.11050  0.95960  0.33450  Biso   1.000  Al
  Al8      1.0000 0.88280  0.77460  0.43850  Biso   1.000  Al
  Al9      1.0000 0.77330  0.09610  0.45050  Biso   1.000  Al
  O25      1.0000 0.81970  0.04740  0.36940  Biso   1.000  O
  O26      1.0000 0.14050  0.82400  0.50610  Biso   1.000  O
  O27      1.0000 0.00530  0.73850  0.44220  Biso   1.000  O
  O28      1.0000 0.15340  0.16470  0.48220  Biso   1.000  O
  O29      1.0000 0.18320  0.05380  0.37640  Biso   1.000  O
  O30      1.0000 0.98760  0.99490  0.34180  Biso   1.000  O
  O31      1.0000 0.86230  0.85830  0.36650  Biso   1.000  O
  O32      1.0000 0.16810  0.66780  0.42980  Biso   1.000  O
  O33      1.0000 0.85290  0.95900  0.25510  Biso   1.000  O
  O34      1.0000 0.31630  0.16010  0.42420  Biso   1.000  O
  O35      1.0000 0.13000  0.83640  0.37330  Biso   1.000  O
  O36      1.0000 0.26000  0.00910  0.49290  Biso   1.000  O
  P10      1.0000 0.72780  0.59630  0.44460  Biso   1.000  P
  P11      1.0000 0.61130  0.26760  0.43820  Biso   1.000  P
  P12      1.0000 0.38130  0.46430  0.33330  Biso   1.000  P
  Al10     1.0000 0.61050  0.45960  0.33450  Biso   1.000  Al
  Al11     1.0000 0.38280  0.27460  0.43850  Biso   1.000  Al
  Al12     1.0000 0.27330  0.59610  0.45050  Biso   1.000  Al
  O37      1.0000 0.31970  0.54740  0.36940  Biso   1.000  O
  O38      1.0000 0.64050  0.32400  0.50610  Biso   1.000  O
  O39      1.0000 0.50530  0.23850  0.44220  Biso   1.000  O
  O40      1.0000 0.65340  0.66470  0.48220  Biso   1.000  O
  O41      1.0000 0.68320  0.55380  0.37640  Biso   1.000  O
  O42      1.0000 0.48760  0.49490  0.34180  Biso   1.000  O
  O43      1.0000 0.36230  0.35830  0.36650  Biso   1.000  O
  O44      1.0000 0.66810  0.16780  0.42980  Biso   1.000  O
  O45      1.0000 0.35290  0.45900  0.25510  Biso   1.000  O
  O46      1.0000 0.81630  0.66010  0.42420  Biso   1.000  O
  O47      1.0000 0.63000  0.33640  0.37330  Biso   1.000  O
  O48      1.0000 0.76000  0.50910  0.49290  Biso   1.000  O
  P13      1.0000 0.22780  0.90370  0.94460  Biso   1.000  P
  P14      1.0000 0.11130  0.23240  0.93820  Biso   1.000  P
  P15      1.0000 0.88130  0.03570  0.83330  Biso   1.000  P
  Al13     1.0000 0.11050  0.04040  0.83450  Biso   1.000  Al
  Al14     1.0000 0.88280  0.22540  0.93850  Biso   1.000  Al
  Al15     1.0000 0.77330  0.90390  0.95050  Biso   1.000  Al
  O49      1.0000 0.81970  0.95260  0.86940  Biso   1.000  O
  O50      1.0000 0.14050  0.17600  0.00610  Biso   1.000  O
  O51      1.0000 0.00530  0.26150  0.94220  Biso   1.000  O
  O52      1.0000 0.15340  0.83530  0.98220  Biso   1.000  O
  O53      1.0000 0.18320  0.94620  0.87640  Biso   1.000  O
  O54      1.0000 0.98760  0.00510  0.84180  Biso   1.000  O
  O55      1.0000 0.86230  0.14170  0.86650  Biso   1.000  O
  O56      1.0000 0.16810  0.33220  0.92980  Biso   1.000  O
  O57      1.0000 0.85290  0.04100  0.75510  Biso   1.000  O
  O58      1.0000 0.31630  0.83990  0.92420  Biso   1.000  O
  O59      1.0000 0.13000  0.16360  0.87330  Biso   1.000  O
  O60      1.0000 0.26000  0.99090  0.99290  Biso   1.000  O
  P16      1.0000 0.72780  0.40370  0.94460  Biso   1.000  P
  P17      1.0000 0.61130  0.73240  0.93820  Biso   1.000  P
  P18      1.0000 0.38130  0.53570  0.83330  Biso   1.000  P
  Al16     1.0000 0.61050  0.54040  0.83450  Biso   1.000  Al
  Al17     1.0000 0.38280  0.72540  0.93850  Biso   1.000  Al
  Al18     1.0000 0.27330  0.40390  0.95050  Biso   1.000  Al
  O61      1.0000 0.31970  0.45260  0.86940  Biso   1.000  O
  O62      1.0000 0.64050  0.67600  0.00610  Biso   1.000  O
  O63      1.0000 0.50530  0.76150  0.94220  Biso   1.000  O
  O64      1.0000 0.65340  0.33530  0.98220  Biso   1.000  O
  O65      1.0000 0.68320  0.44620  0.87640  Biso   1.000  O
  O66      1.0000 0.48760  0.50510  0.84180  Biso   1.000  O
  O67      1.0000 0.36230  0.64170  0.86650  Biso   1.000  O
  O68      1.0000 0.66810  0.83220  0.92980  Biso   1.000  O
  O69      1.0000 0.35290  0.54100  0.75510  Biso   1.000  O
  O70      1.0000 0.81630  0.33990  0.92420  Biso   1.000  O
  O71      1.0000 0.63000  0.66360  0.87330  Biso   1.000  O
  O72      1.0000 0.76000  0.49090  0.99290  Biso   1.000  O
  P19      1.0000 0.77220  0.90370  0.55540  Biso   1.000  P
  P20      1.0000 0.88870  0.23240  0.56180  Biso   1.000  P
  P21      1.0000 0.11870  0.03570  0.66670  Biso   1.000  P
  Al19     1.0000 0.88950  0.04040  0.66550  Biso   1.000  Al
  Al20     1.0000 0.11720  0.22540  0.56150  Biso   1.000  Al
  Al21     1.0000 0.22670  0.90390  0.54950  Biso   1.000  Al
  O73      1.0000 0.18030  0.95260  0.63060  Biso   1.000  O
  O74      1.0000 0.85950  0.17600  0.49390  Biso   1.000  O
  O75      1.0000 0.99470  0.26150  0.55780  Biso   1.000  O
  O76      1.0000 0.84660  0.83530  0.51780  Biso   1.000  O
  O77      1.0000 0.81680  0.94620  0.62360  Biso   1.000  O
  O78      1.0000 0.01240  0.00510  0.65820  Biso   1.000  O
  O79      1.0000 0.13770  0.14170  0.63350  Biso   1.000  O
  O80      1.0000 0.83190  0.33220  0.57020  Biso   1.000  O
  O81      1.0000 0.14710  0.04100  0.74490  Biso   1.000  O
  O82      1.0000 0.68370  0.83990  0.57580  Biso   1.000  O
  O83      1.0000 0.87000  0.16360  0.62670  Biso   1.000  O
  O84      1.0000 0.74000  0.99090  0.50710  Biso   1.000  O
  P22      1.0000 0.27220  0.40370  0.55540  Biso   1.000  P
  P23      1.0000 0.38870  0.73240  0.56180  Biso   1.000  P
  P24      1.0000 0.61870  0.53570  0.66670  Biso   1.000  P
  Al22     1.0000 0.38950  0.54040  0.66550  Biso   1.000  Al
  Al23     1.0000 0.61720  0.72540  0.56150  Biso   1.000  Al
  Al24     1.0000 0.72670  0.40390  0.54950  Biso   1.000  Al
  O85      1.0000 0.68030  0.45260  0.63060  Biso   1.000  O
  O86      1.0000 0.35950  0.67600  0.49390  Biso   1.000  O
  O87      1.0000 0.49470  0.76150  0.55780  Biso   1.000  O
  O88      1.0000 0.34660  0.33530  0.51780  Biso   1.000  O
  O89      1.0000 0.31680  0.44620  0.62360  Biso   1.000  O
  O90      1.0000 0.51240  0.50510  0.65820  Biso   1.000  O
  O91      1.0000 0.63770  0.64170  0.63350  Biso   1.000  O
  O92      1.0000 0.33190  0.83220  0.57020  Biso   1.000  O
  O93      1.0000 0.64710  0.54100  0.74490  Biso   1.000  O
  O94      1.0000 0.18370  0.33990  0.57580  Biso   1.000  O
  O95      1.0000 0.37000  0.66360  0.62670  Biso   1.000  O
  O96      1.0000 0.24000  0.49090  0.50710  Biso   1.000  O
