data_image0
_cell_length_a       10.9413
_cell_length_b       10.9413
_cell_length_c       12.052
_cell_angle_alpha    76.8932
_cell_angle_beta     76.8932
_cell_angle_gamma    86.9855

_symmetry_space_group_name_H-M    P 1
_symmetry_int_tables_number       1

loop_
  _symmetry_equiv_pos_as_xyz
  'x, y, z'

loop_
  _atom_site_label
  _atom_site_occupancy
  _atom_site_fract_x
  _atom_site_fract_y
  _atom_site_fract_z
  _atom_site_thermal_displace_type
  _atom_site_B_iso_or_equiv
  _atom_site_type_symbol
  Mn1      1.0000 0.69282  0.76850  0.85761  Biso   1.000  Mn
  Mn2      1.0000 0.23150  0.30718  0.64239  Biso   1.000  Mn
  Mn3      1.0000 0.30718  0.23150  0.14239  Biso   1.000  Mn
  Mn4      1.0000 0.76850  0.69282  0.35761  Biso   1.000  Mn
  Nb1      1.0000 0.70506  0.29494  0.75000  Biso   1.000  Nb
  Nb2      1.0000 0.29494  0.70506  0.25000  Biso   1.000  Nb
  H1       1.0000 0.90110  0.70470  0.94880  Biso   1.000  H
  H2       1.0000 0.82070  0.75770  0.03970  Biso   1.000  H
  H3       1.0000 0.88700  0.72780  0.68370  Biso   1.000  H
  H4       1.0000 0.88260  0.86080  0.67020  Biso   1.000  H
  H5       1.0000 0.50780  0.72200  0.57970  Biso   1.000  H
  H6       1.0000 0.42220  0.63480  0.92290  Biso   1.000  H
  H7       1.0000 0.29530  0.09890  0.55120  Biso   1.000  H
  H8       1.0000 0.24230  0.17930  0.46030  Biso   1.000  H
  H9       1.0000 0.27220  0.11300  0.81630  Biso   1.000  H
  H10      1.0000 0.13920  0.11740  0.82980  Biso   1.000  H
  H11      1.0000 0.27800  0.49220  0.92030  Biso   1.000  H
  H12      1.0000 0.36520  0.57780  0.57710  Biso   1.000  H
  H13      1.0000 0.09890  0.29530  0.05120  Biso   1.000  H
  H14      1.0000 0.17930  0.24230  0.96030  Biso   1.000  H
  H15      1.0000 0.11300  0.27220  0.31630  Biso   1.000  H
  H16      1.0000 0.11740  0.13920  0.32980  Biso   1.000  H
  H17      1.0000 0.49220  0.27800  0.42030  Biso   1.000  H
  H18      1.0000 0.57780  0.36520  0.07710  Biso   1.000  H
  H19      1.0000 0.70470  0.90110  0.44880  Biso   1.000  H
  H20      1.0000 0.75770  0.82070  0.53970  Biso   1.000  H
  H21      1.0000 0.72780  0.88700  0.18370  Biso   1.000  H
  H22      1.0000 0.86080  0.88260  0.17020  Biso   1.000  H
  H23      1.0000 0.72200  0.50780  0.07970  Biso   1.000  H
  H24      1.0000 0.63480  0.42220  0.42290  Biso   1.000  H
  C1       1.0000 0.68725  0.08373  0.79900  Biso   1.000  C
  C2       1.0000 0.77801  0.23325  0.91430  Biso   1.000  C
  C3       1.0000 0.73145  0.46303  0.59967  Biso   1.000  C
  C4       1.0000 0.70290  0.47188  0.81899  Biso   1.000  C
  C5       1.0000 0.46008  0.67666  0.64950  Biso   1.000  C
  C6       1.0000 0.40908  0.62508  0.85180  Biso   1.000  C
  C7       1.0000 0.91627  0.31275  0.70100  Biso   1.000  C
  C8       1.0000 0.76675  0.22199  0.58570  Biso   1.000  C
  C9       1.0000 0.53697  0.26855  0.90033  Biso   1.000  C
  C10      1.0000 0.52812  0.29710  0.68101  Biso   1.000  C
  C11      1.0000 0.32334  0.53992  0.85050  Biso   1.000  C
  C12      1.0000 0.37492  0.59092  0.64820  Biso   1.000  C
  C13      1.0000 0.31275  0.91627  0.20100  Biso   1.000  C
  C14      1.0000 0.22199  0.76675  0.08570  Biso   1.000  C
  C15      1.0000 0.26855  0.53697  0.40033  Biso   1.000  C
  C16      1.0000 0.29710  0.52812  0.18101  Biso   1.000  C
  C17      1.0000 0.53992  0.32334  0.35050  Biso   1.000  C
  C18      1.0000 0.59092  0.37492  0.14820  Biso   1.000  C
  C19      1.0000 0.08373  0.68725  0.29900  Biso   1.000  C
  C20      1.0000 0.23325  0.77801  0.41430  Biso   1.000  C
  C21      1.0000 0.46303  0.73145  0.09967  Biso   1.000  C
  C22      1.0000 0.47188  0.70290  0.31899  Biso   1.000  C
  C23      1.0000 0.67666  0.46008  0.14950  Biso   1.000  C
  C24      1.0000 0.62508  0.40908  0.35180  Biso   1.000  C
  N1       1.0000 0.68282  0.97612  0.82390  Biso   1.000  N
  N2       1.0000 0.81510  0.20050  0.99710  Biso   1.000  N
  N3       1.0000 0.74360  0.54748  0.52104  Biso   1.000  N
  N4       1.0000 0.70136  0.56232  0.85248  Biso   1.000  N
  N5       1.0000 0.47507  0.69559  0.75173  Biso   1.000  N
  N6       1.0000 0.02388  0.31718  0.67610  Biso   1.000  N
  N7       1.0000 0.79950  0.18490  0.50290  Biso   1.000  N
  N8       1.0000 0.45252  0.25640  0.97896  Biso   1.000  N
  N9       1.0000 0.43768  0.29864  0.64752  Biso   1.000  N
  N10      1.0000 0.30441  0.52493  0.74827  Biso   1.000  N
  N11      1.0000 0.31718  0.02388  0.17610  Biso   1.000  N
  N12      1.0000 0.18490  0.79950  0.00290  Biso   1.000  N
  N13      1.0000 0.25640  0.45252  0.47896  Biso   1.000  N
  N14      1.0000 0.29864  0.43768  0.14752  Biso   1.000  N
  N15      1.0000 0.52493  0.30441  0.24827  Biso   1.000  N
  N16      1.0000 0.97612  0.68282  0.32390  Biso   1.000  N
  N17      1.0000 0.20050  0.81510  0.49710  Biso   1.000  N
  N18      1.0000 0.54748  0.74360  0.02104  Biso   1.000  N
  N19      1.0000 0.56232  0.70136  0.35248  Biso   1.000  N
  N20      1.0000 0.69559  0.47507  0.25173  Biso   1.000  N
  O1       1.0000 0.82961  0.74719  0.96590  Biso   1.000  O
  O2       1.0000 0.83352  0.79296  0.69150  Biso   1.000  O
  O3       1.0000 0.55247  0.78279  0.75174  Biso   1.000  O
  O4       1.0000 0.25281  0.17039  0.53410  Biso   1.000  O
  O5       1.0000 0.20704  0.16648  0.80850  Biso   1.000  O
  O6       1.0000 0.21721  0.44753  0.74826  Biso   1.000  O
  O7       1.0000 0.17039  0.25281  0.03410  Biso   1.000  O
  O8       1.0000 0.16648  0.20704  0.30850  Biso   1.000  O
  O9       1.0000 0.44753  0.21721  0.24826  Biso   1.000  O
  O10      1.0000 0.74719  0.82961  0.46590  Biso   1.000  O
  O11      1.0000 0.79296  0.83352  0.19150  Biso   1.000  O
  O12      1.0000 0.78279  0.55247  0.25174  Biso   1.000  O
