data_image0
_cell_length_a       10.6897
_cell_length_b       8.4857
_cell_length_c       17.2965
_cell_angle_alpha    90
_cell_angle_beta     90
_cell_angle_gamma    90

_symmetry_space_group_name_H-M    "P 1"
_symmetry_int_tables_number       1

loop_
  _symmetry_equiv_pos_as_xyz
  'x, y, z'

loop_
  _atom_site_label
  _atom_site_occupancy
  _atom_site_fract_x
  _atom_site_fract_y
  _atom_site_fract_z
  _atom_site_thermal_displace_type
  _atom_site_B_iso_or_equiv
  _atom_site_type_symbol
  Zn1      1.0000 0.86911  0.62885  0.30064  Biso   1.000  Zn
  Zn2      1.0000 0.08628  0.35019  0.13499  Biso   1.000  Zn
  P1       1.0000 0.14628  0.65367  0.23569  Biso   1.000  P
  P2       1.0000 0.97320  0.53420  0.46465  Biso   1.000  P
  P3       1.0000 0.80705  0.39957  0.16187  Biso   1.000  P
  O1       1.0000 0.02470  0.71830  0.26600  Biso   1.000  O
  O2       1.0000 0.25570  0.69030  0.28840  Biso   1.000  O
  O3       1.0000 0.14350  0.47890  0.22100  Biso   1.000  O
  O4       1.0000 0.91710  0.51930  0.54470  Biso   1.000  O
  O5       1.0000 0.87500  0.57730  0.40820  Biso   1.000  O
  O6       1.0000 0.04310  0.38970  0.44280  Biso   1.000  O
  O7       1.0000 0.91310  0.28140  0.15620  Biso   1.000  O
  O8       1.0000 0.79620  0.45750  0.24440  Biso   1.000  O
  O9       1.0000 0.68450  0.33890  0.13220  Biso   1.000  O
  H1       1.0000 0.16160  0.71670  0.15990  Biso   1.000  H
  H2       1.0000 0.05160  0.62100  0.46510  Biso   1.000  H
  H3       1.0000 0.82380  0.50290  0.12160  Biso   1.000  H
  Zn3      1.0000 0.13089  0.37115  0.80064  Biso   1.000  Zn
  Zn4      1.0000 0.91372  0.64981  0.63499  Biso   1.000  Zn
  P4       1.0000 0.85372  0.34633  0.73569  Biso   1.000  P
  P5       1.0000 0.02680  0.46580  0.96465  Biso   1.000  P
  P6       1.0000 0.19295  0.60043  0.66187  Biso   1.000  P
  O10      1.0000 0.97530  0.28170  0.76600  Biso   1.000  O
  O11      1.0000 0.74430  0.30970  0.78840  Biso   1.000  O
  O12      1.0000 0.85650  0.52110  0.72100  Biso   1.000  O
  O13      1.0000 0.08290  0.48070  0.04470  Biso   1.000  O
  O14      1.0000 0.12500  0.42270  0.90820  Biso   1.000  O
  O15      1.0000 0.95690  0.61030  0.94280  Biso   1.000  O
  O16      1.0000 0.08690  0.71860  0.65620  Biso   1.000  O
  O17      1.0000 0.20380  0.54250  0.74440  Biso   1.000  O
  O18      1.0000 0.31550  0.66110  0.63220  Biso   1.000  O
  H4       1.0000 0.83840  0.28330  0.65990  Biso   1.000  H
  H5       1.0000 0.94840  0.37900  0.96510  Biso   1.000  H
  H6       1.0000 0.17620  0.49710  0.62160  Biso   1.000  H
  Zn5      1.0000 0.36911  0.87115  0.30064  Biso   1.000  Zn
  Zn6      1.0000 0.58628  0.14981  0.13499  Biso   1.000  Zn
  P7       1.0000 0.64628  0.84633  0.23569  Biso   1.000  P
  P8       1.0000 0.47320  0.96580  0.46465  Biso   1.000  P
  P9       1.0000 0.30705  0.10043  0.16187  Biso   1.000  P
  O19      1.0000 0.52470  0.78170  0.26600  Biso   1.000  O
  O20      1.0000 0.75570  0.80970  0.28840  Biso   1.000  O
  O21      1.0000 0.64350  0.02110  0.22100  Biso   1.000  O
  O22      1.0000 0.41710  0.98070  0.54470  Biso   1.000  O
  O23      1.0000 0.37500  0.92270  0.40820  Biso   1.000  O
  O24      1.0000 0.54310  0.11030  0.44280  Biso   1.000  O
  O25      1.0000 0.41310  0.21860  0.15620  Biso   1.000  O
  O26      1.0000 0.29620  0.04250  0.24440  Biso   1.000  O
  O27      1.0000 0.18450  0.16110  0.13220  Biso   1.000  O
  H7       1.0000 0.66160  0.78330  0.15990  Biso   1.000  H
  H8       1.0000 0.55160  0.87900  0.46510  Biso   1.000  H
  H9       1.0000 0.32380  0.99710  0.12160  Biso   1.000  H
  Zn7      1.0000 0.63089  0.12885  0.80064  Biso   1.000  Zn
  Zn8      1.0000 0.41372  0.85019  0.63499  Biso   1.000  Zn
  P10      1.0000 0.35372  0.15367  0.73569  Biso   1.000  P
  P11      1.0000 0.52680  0.03420  0.96465  Biso   1.000  P
  P12      1.0000 0.69295  0.89957  0.66187  Biso   1.000  P
  O28      1.0000 0.47530  0.21830  0.76600  Biso   1.000  O
  O29      1.0000 0.24430  0.19030  0.78840  Biso   1.000  O
  O30      1.0000 0.35650  0.97890  0.72100  Biso   1.000  O
  O31      1.0000 0.58290  0.01930  0.04470  Biso   1.000  O
  O32      1.0000 0.62500  0.07730  0.90820  Biso   1.000  O
  O33      1.0000 0.45690  0.88970  0.94280  Biso   1.000  O
  O34      1.0000 0.58690  0.78140  0.65620  Biso   1.000  O
  O35      1.0000 0.70380  0.95750  0.74440  Biso   1.000  O
  O36      1.0000 0.81550  0.83890  0.63220  Biso   1.000  O
  H10      1.0000 0.33840  0.21670  0.65990  Biso   1.000  H
  H11      1.0000 0.44840  0.12100  0.96510  Biso   1.000  H
  H12      1.0000 0.67620  0.00290  0.62160  Biso   1.000  H
