data_image0
_cell_length_a       10.3753
_cell_length_b       12.4036
_cell_length_c       15.764
_cell_angle_alpha    90
_cell_angle_beta     90
_cell_angle_gamma    90

_symmetry_space_group_name_H-M    "P 1"
_symmetry_int_tables_number       1

loop_
  _symmetry_equiv_pos_as_xyz
  'x, y, z'

loop_
  _atom_site_label
  _atom_site_occupancy
  _atom_site_fract_x
  _atom_site_fract_y
  _atom_site_fract_z
  _atom_site_thermal_displace_type
  _atom_site_B_iso_or_equiv
  _atom_site_type_symbol
  Zn1      1.0000 0.05568  0.73625  0.40018  Biso   1.000  Zn
  Zn2      1.0000 0.75326  0.08277  0.08860  Biso   1.000  Zn
  Zn3      1.0000 0.75932  0.40015  0.21151  Biso   1.000  Zn
  P1       1.0000 0.53920  0.93819  0.00697  Biso   1.000  P
  P2       1.0000 0.71020  0.32692  0.01973  Biso   1.000  P
  P3       1.0000 0.76456  0.16754  0.27920  Biso   1.000  P
  P4       1.0000 0.97952  0.53337  0.29660  Biso   1.000  P
  O1       1.0000 0.63570  0.95740  0.07844  Biso   1.000  O
  O2       1.0000 0.40400  0.97023  0.03112  Biso   1.000  O
  O3       1.0000 0.55130  0.82430  0.97332  Biso   1.000  O
  O4       1.0000 0.70400  0.39960  0.09590  Biso   1.000  O
  O5       1.0000 0.68290  0.21040  0.03900  Biso   1.000  O
  O6       1.0000 0.82470  0.34830  0.96610  Biso   1.000  O
  O7       1.0000 0.83300  0.27198  0.25820  Biso   1.000  O
  O8       1.0000 0.77830  0.08467  0.20960  Biso   1.000  O
  O9       1.0000 0.62600  0.18343  0.30620  Biso   1.000  O
  O10      1.0000 0.89280  0.51441  0.22022  Biso   1.000  O
  O11      1.0000 0.12030  0.53551  0.27621  Biso   1.000  O
  O12      1.0000 0.93670  0.63234  0.34652  Biso   1.000  O
  H1       1.0000 0.55930  0.01420  0.95560  Biso   1.000  H
  H2       1.0000 0.62540  0.36130  0.97530  Biso   1.000  H
  H3       1.0000 0.83210  0.12680  0.34870  Biso   1.000  H
  H4       1.0000 0.95750  0.45100  0.35370  Biso   1.000  H
  Zn4      1.0000 0.94432  0.26375  0.90018  Biso   1.000  Zn
  Zn5      1.0000 0.24674  0.91723  0.58860  Biso   1.000  Zn
  Zn6      1.0000 0.24068  0.59985  0.71151  Biso   1.000  Zn
  P5       1.0000 0.46080  0.06181  0.50697  Biso   1.000  P
  P6       1.0000 0.28980  0.67308  0.51973  Biso   1.000  P
  P7       1.0000 0.23544  0.83246  0.77920  Biso   1.000  P
  P8       1.0000 0.02048  0.46663  0.79660  Biso   1.000  P
  O13      1.0000 0.36430  0.04260  0.57844  Biso   1.000  O
  O14      1.0000 0.59600  0.02977  0.53112  Biso   1.000  O
  O15      1.0000 0.44870  0.17570  0.47332  Biso   1.000  O
  O16      1.0000 0.29600  0.60040  0.59590  Biso   1.000  O
  O17      1.0000 0.31710  0.78960  0.53900  Biso   1.000  O
  O18      1.0000 0.17530  0.65170  0.46610  Biso   1.000  O
  O19      1.0000 0.16700  0.72802  0.75820  Biso   1.000  O
  O20      1.0000 0.22170  0.91533  0.70960  Biso   1.000  O
  O21      1.0000 0.37400  0.81657  0.80620  Biso   1.000  O
  O22      1.0000 0.10720  0.48559  0.72022  Biso   1.000  O
  O23      1.0000 0.87970  0.46449  0.77621  Biso   1.000  O
  O24      1.0000 0.06330  0.36766  0.84652  Biso   1.000  O
  H5       1.0000 0.44070  0.98580  0.45560  Biso   1.000  H
  H6       1.0000 0.37460  0.63870  0.47530  Biso   1.000  H
  H7       1.0000 0.16790  0.87320  0.84870  Biso   1.000  H
  H8       1.0000 0.04250  0.54900  0.85370  Biso   1.000  H
  Zn7      1.0000 0.55568  0.26375  0.40018  Biso   1.000  Zn
  Zn8      1.0000 0.25326  0.91723  0.08860  Biso   1.000  Zn
  Zn9      1.0000 0.25932  0.59985  0.21151  Biso   1.000  Zn
  P9       1.0000 0.03920  0.06181  0.00697  Biso   1.000  P
  P10      1.0000 0.21020  0.67308  0.01973  Biso   1.000  P
  P11      1.0000 0.26456  0.83246  0.27920  Biso   1.000  P
  P12      1.0000 0.47952  0.46663  0.29660  Biso   1.000  P
  O25      1.0000 0.13570  0.04260  0.07844  Biso   1.000  O
  O26      1.0000 0.90400  0.02977  0.03112  Biso   1.000  O
  O27      1.0000 0.05130  0.17570  0.97332  Biso   1.000  O
  O28      1.0000 0.20400  0.60040  0.09590  Biso   1.000  O
  O29      1.0000 0.18290  0.78960  0.03900  Biso   1.000  O
  O30      1.0000 0.32470  0.65170  0.96610  Biso   1.000  O
  O31      1.0000 0.33300  0.72802  0.25820  Biso   1.000  O
  O32      1.0000 0.27830  0.91533  0.20960  Biso   1.000  O
  O33      1.0000 0.12600  0.81657  0.30620  Biso   1.000  O
  O34      1.0000 0.39280  0.48559  0.22022  Biso   1.000  O
  O35      1.0000 0.62030  0.46449  0.27621  Biso   1.000  O
  O36      1.0000 0.43670  0.36766  0.34652  Biso   1.000  O
  H9       1.0000 0.05930  0.98580  0.95560  Biso   1.000  H
  H10      1.0000 0.12540  0.63870  0.97530  Biso   1.000  H
  H11      1.0000 0.33210  0.87320  0.34870  Biso   1.000  H
  H12      1.0000 0.45750  0.54900  0.35370  Biso   1.000  H
  Zn10     1.0000 0.44432  0.73625  0.90018  Biso   1.000  Zn
  Zn11     1.0000 0.74674  0.08277  0.58860  Biso   1.000  Zn
  Zn12     1.0000 0.74068  0.40015  0.71151  Biso   1.000  Zn
  P13      1.0000 0.96080  0.93819  0.50697  Biso   1.000  P
  P14      1.0000 0.78980  0.32692  0.51973  Biso   1.000  P
  P15      1.0000 0.73544  0.16754  0.77920  Biso   1.000  P
  P16      1.0000 0.52048  0.53337  0.79660  Biso   1.000  P
  O37      1.0000 0.86430  0.95740  0.57844  Biso   1.000  O
  O38      1.0000 0.09600  0.97023  0.53112  Biso   1.000  O
  O39      1.0000 0.94870  0.82430  0.47332  Biso   1.000  O
  O40      1.0000 0.79600  0.39960  0.59590  Biso   1.000  O
  O41      1.0000 0.81710  0.21040  0.53900  Biso   1.000  O
  O42      1.0000 0.67530  0.34830  0.46610  Biso   1.000  O
  O43      1.0000 0.66700  0.27198  0.75820  Biso   1.000  O
  O44      1.0000 0.72170  0.08467  0.70960  Biso   1.000  O
  O45      1.0000 0.87400  0.18343  0.80620  Biso   1.000  O
  O46      1.0000 0.60720  0.51441  0.72022  Biso   1.000  O
  O47      1.0000 0.37970  0.53551  0.77621  Biso   1.000  O
  O48      1.0000 0.56330  0.63234  0.84652  Biso   1.000  O
  H13      1.0000 0.94070  0.01420  0.45560  Biso   1.000  H
  H14      1.0000 0.87460  0.36130  0.47530  Biso   1.000  H
  H15      1.0000 0.66790  0.12680  0.84870  Biso   1.000  H
  H16      1.0000 0.54250  0.45100  0.85370  Biso   1.000  H
