data_image0
_cell_length_a       9.9462
_cell_length_b       20.9853
_cell_length_c       10.6098
_cell_angle_alpha    90
_cell_angle_beta     101.331
_cell_angle_gamma    90

_symmetry_space_group_name_H-M    "P 1"
_symmetry_int_tables_number       1

loop_
  _symmetry_equiv_pos_as_xyz
  'x, y, z'

loop_
  _atom_site_label
  _atom_site_occupancy
  _atom_site_fract_x
  _atom_site_fract_y
  _atom_site_fract_z
  _atom_site_thermal_displace_type
  _atom_site_B_iso_or_equiv
  _atom_site_type_symbol
  Zn1      1.0000 0.81809  0.75986  0.33598  Biso   1.000  Zn
  Zn2      1.0000 0.27085  0.60929  0.19467  Biso   1.000  Zn
  Zn3      1.0000 0.88066  0.86401  0.85559  Biso   1.000  Zn
  Zn4      1.0000 0.66567  0.51413  0.29017  Biso   1.000  Zn
  Zn5      1.0000 0.98936  0.64154  0.62151  Biso   1.000  Zn
  Zn6      1.0000 0.06487  0.98259  0.14127  Biso   1.000  Zn
  P1       1.0000 0.56896  0.66079  0.31877  Biso   1.000  P
  P2       1.0000 0.84371  0.44386  0.11811  Biso   1.000  P
  P3       1.0000 0.10040  0.68252  0.37366  Biso   1.000  P
  P4       1.0000 0.36453  0.46403  0.16349  Biso   1.000  P
  P5       1.0000 0.13130  0.60181  0.90253  Biso   1.000  P
  P6       1.0000 0.92373  0.85523  0.15390  Biso   1.000  P
  P7       1.0000 0.82114  0.76569  0.62122  Biso   1.000  P
  P8       1.0000 0.19954  0.02234  0.42115  Biso   1.000  P
  O1       1.0000 0.42290  0.66359  0.24760  Biso   1.000  O
  O2       1.0000 0.63620  0.72401  0.30270  Biso   1.000  O
  O3       1.0000 0.64880  0.60556  0.28300  Biso   1.000  O
  O4       1.0000 0.80100  0.50281  0.18160  Biso   1.000  O
  O5       1.0000 0.82520  0.45060  0.97470  Biso   1.000  O
  O6       1.0000 0.98710  0.42600  0.18250  Biso   1.000  O
  O7       1.0000 0.95820  0.70146  0.30390  Biso   1.000  O
  O8       1.0000 0.14430  0.62328  0.31020  Biso   1.000  O
  O9       1.0000 0.11220  0.67583  0.51630  Biso   1.000  O
  O10      1.0000 0.28930  0.51908  0.20860  Biso   1.000  O
  O11      1.0000 0.51410  0.46090  0.22170  Biso   1.000  O
  O12      1.0000 0.29900  0.40059  0.18060  Biso   1.000  O
  O13      1.0000 0.18720  0.63934  0.02390  Biso   1.000  O
  O14      1.0000 0.11540  0.64582  0.78640  Biso   1.000  O
  O15      1.0000 0.99950  0.56738  0.91180  Biso   1.000  O
  O16      1.0000 0.80800  0.82604  0.20690  Biso   1.000  O
  O17      1.0000 0.93760  0.82682  0.02580  Biso   1.000  O
  O18      1.0000 0.91120  0.92728  0.14870  Biso   1.000  O
  O19      1.0000 0.83030  0.69430  0.61550  Biso   1.000  O
  O20      1.0000 0.89940  0.79276  0.74500  Biso   1.000  O
  O21      1.0000 0.86580  0.79773  0.50590  Biso   1.000  O
  O22      1.0000 0.24860  0.98301  0.53940  Biso   1.000  O
  O23      1.0000 0.06500  0.05467  0.42850  Biso   1.000  O
  O24      1.0000 0.19300  0.98260  0.30380  Biso   1.000  O
  H1       1.0000 0.58340  0.65520  0.44850  Biso   1.000  H
  H2       1.0000 0.73860  0.39710  0.12300  Biso   1.000  H
  H3       1.0000 0.22030  0.73420  0.35160  Biso   1.000  H
  H4       1.0000 0.36400  0.45930  0.03500  Biso   1.000  H
  H5       1.0000 0.21530  0.55690  0.88710  Biso   1.000  H
  H6       1.0000 0.00850  0.84510  0.21500  Biso   1.000  H
  H7       1.0000 0.66750  0.78050  0.60970  Biso   1.000  H
  H8       1.0000 0.27730  0.06460  0.43080  Biso   1.000  H
  Zn7      1.0000 0.18191  0.25986  0.66402  Biso   1.000  Zn
  Zn8      1.0000 0.72915  0.10929  0.80533  Biso   1.000  Zn
  Zn9      1.0000 0.11934  0.36401  0.14441  Biso   1.000  Zn
  Zn10     1.0000 0.33433  0.01413  0.70983  Biso   1.000  Zn
  Zn11     1.0000 0.01064  0.14154  0.37849  Biso   1.000  Zn
  Zn12     1.0000 0.93513  0.48259  0.85873  Biso   1.000  Zn
  P9       1.0000 0.43104  0.16079  0.68123  Biso   1.000  P
  P10      1.0000 0.15629  0.94386  0.88189  Biso   1.000  P
  P11      1.0000 0.89960  0.18252  0.62634  Biso   1.000  P
  P12      1.0000 0.63547  0.96403  0.83651  Biso   1.000  P
  P13      1.0000 0.86870  0.10181  0.09747  Biso   1.000  P
  P14      1.0000 0.07627  0.35523  0.84610  Biso   1.000  P
  P15      1.0000 0.17886  0.26569  0.37878  Biso   1.000  P
  P16      1.0000 0.80046  0.52234  0.57885  Biso   1.000  P
  O25      1.0000 0.57710  0.16359  0.75240  Biso   1.000  O
  O26      1.0000 0.36380  0.22401  0.69730  Biso   1.000  O
  O27      1.0000 0.35120  0.10556  0.71700  Biso   1.000  O
  O28      1.0000 0.19900  0.00281  0.81840  Biso   1.000  O
  O29      1.0000 0.17480  0.95060  0.02530  Biso   1.000  O
  O30      1.0000 0.01290  0.92600  0.81750  Biso   1.000  O
  O31      1.0000 0.04180  0.20146  0.69610  Biso   1.000  O
  O32      1.0000 0.85570  0.12328  0.68980  Biso   1.000  O
  O33      1.0000 0.88780  0.17583  0.48370  Biso   1.000  O
  O34      1.0000 0.71070  0.01908  0.79140  Biso   1.000  O
  O35      1.0000 0.48590  0.96090  0.77830  Biso   1.000  O
  O36      1.0000 0.70100  0.90059  0.81940  Biso   1.000  O
  O37      1.0000 0.81280  0.13934  0.97610  Biso   1.000  O
  O38      1.0000 0.88460  0.14582  0.21360  Biso   1.000  O
  O39      1.0000 0.00050  0.06738  0.08820  Biso   1.000  O
  O40      1.0000 0.19200  0.32604  0.79310  Biso   1.000  O
  O41      1.0000 0.06240  0.32682  0.97420  Biso   1.000  O
  O42      1.0000 0.08880  0.42728  0.85130  Biso   1.000  O
  O43      1.0000 0.16970  0.19430  0.38450  Biso   1.000  O
  O44      1.0000 0.10060  0.29276  0.25500  Biso   1.000  O
  O45      1.0000 0.13420  0.29773  0.49410  Biso   1.000  O
  O46      1.0000 0.75140  0.48301  0.46060  Biso   1.000  O
  O47      1.0000 0.93500  0.55467  0.57150  Biso   1.000  O
  O48      1.0000 0.80700  0.48260  0.69620  Biso   1.000  O
  H9       1.0000 0.41660  0.15520  0.55150  Biso   1.000  H
  H10      1.0000 0.26140  0.89710  0.87700  Biso   1.000  H
  H11      1.0000 0.77970  0.23420  0.64840  Biso   1.000  H
  H12      1.0000 0.63600  0.95930  0.96500  Biso   1.000  H
  H13      1.0000 0.78470  0.05690  0.11290  Biso   1.000  H
  H14      1.0000 0.99150  0.34510  0.78500  Biso   1.000  H
  H15      1.0000 0.33250  0.28050  0.39030  Biso   1.000  H
  H16      1.0000 0.72270  0.56460  0.56920  Biso   1.000  H
