data_image0
_cell_length_a       8.44112
_cell_length_b       9.1066
_cell_length_c       14.2327
_cell_angle_alpha    71.709
_cell_angle_beta     72.7501
_cell_angle_gamma    62.3893

_symmetry_space_group_name_H-M    P 1
_symmetry_int_tables_number       1

loop_
  _symmetry_equiv_pos_as_xyz
  'x, y, z'

loop_
  _atom_site_label
  _atom_site_occupancy
  _atom_site_fract_x
  _atom_site_fract_y
  _atom_site_fract_z
  _atom_site_thermal_displace_type
  _atom_site_B_iso_or_equiv
  _atom_site_type_symbol
  Zn1      1.0000 0.28989  0.92134  0.63332  Biso   1.000  Zn
  Zn2      1.0000 0.41067  0.28010  0.52926  Biso   1.000  Zn
  Zn3      1.0000 0.84455  0.57866  0.86668  Biso   1.000  Zn
  Zn4      1.0000 0.22003  0.21990  0.97074  Biso   1.000  Zn
  Zn5      1.0000 0.71011  0.07866  0.36668  Biso   1.000  Zn
  Zn6      1.0000 0.58933  0.71990  0.47074  Biso   1.000  Zn
  Zn7      1.0000 0.15545  0.42134  0.13332  Biso   1.000  Zn
  Zn8      1.0000 0.77997  0.78010  0.02926  Biso   1.000  Zn
  Zn9      1.0000 0.12220  0.25000  0.75000  Biso   1.000  Zn
  Zn10     1.0000 0.87780  0.75000  0.25000  Biso   1.000  Zn
  H1       1.0000 0.14600  0.23000  0.57800  Biso   1.000  H
  H2       1.0000 0.37100  0.99400  0.45000  Biso   1.000  H
  H3       1.0000 0.95400  0.27000  0.92200  Biso   1.000  H
  H4       1.0000 0.81500  0.50600  0.05000  Biso   1.000  H
  H5       1.0000 0.85400  0.77000  0.42200  Biso   1.000  H
  H6       1.0000 0.62900  0.00600  0.55000  Biso   1.000  H
  H7       1.0000 0.04600  0.73000  0.07800  Biso   1.000  H
  H8       1.0000 0.18500  0.49400  0.95000  Biso   1.000  H
  C1       1.0000 0.02769  0.81145  0.81957  Biso   1.000  C
  C2       1.0000 0.18157  0.59955  0.72531  Biso   1.000  C
  C3       1.0000 0.65871  0.68855  0.68043  Biso   1.000  C
  C4       1.0000 0.50643  0.90045  0.77469  Biso   1.000  C
  C5       1.0000 0.97231  0.18855  0.18043  Biso   1.000  C
  C6       1.0000 0.81843  0.40045  0.27469  Biso   1.000  C
  C7       1.0000 0.34129  0.31145  0.31957  Biso   1.000  C
  C8       1.0000 0.49357  0.09955  0.22531  Biso   1.000  C
  N1       1.0000 0.05837  0.65711  0.80715  Biso   1.000  N
  N2       1.0000 0.09204  0.92571  0.75861  Biso   1.000  N
  N3       1.0000 0.01562  0.05832  0.80504  Biso   1.000  N
  N4       1.0000 0.91175  0.02794  0.88916  Biso   1.000  N
  N5       1.0000 0.91679  0.87337  0.90105  Biso   1.000  N
  N6       1.0000 0.28274  0.67686  0.65566  Biso   1.000  N
  N7       1.0000 0.37872  0.57864  0.58772  Biso   1.000  N
  N8       1.0000 0.34009  0.44708  0.61534  Biso   1.000  N
  N9       1.0000 0.21754  0.45309  0.70223  Biso   1.000  N
  N10      1.0000 0.52263  0.84289  0.69285  Biso   1.000  N
  N11      1.0000 0.77636  0.57429  0.74139  Biso   1.000  N
  N12      1.0000 0.87898  0.44168  0.69496  Biso   1.000  N
  N13      1.0000 0.82885  0.47206  0.61084  Biso   1.000  N
  N14      1.0000 0.69121  0.62663  0.59895  Biso   1.000  N
  N15      1.0000 0.61526  0.82314  0.84434  Biso   1.000  N
  N16      1.0000 0.54508  0.92136  0.91228  Biso   1.000  N
  N17      1.0000 0.40251  0.05292  0.88466  Biso   1.000  N
  N18      1.0000 0.37286  0.04691  0.79777  Biso   1.000  N
  N19      1.0000 0.94163  0.34289  0.19285  Biso   1.000  N
  N20      1.0000 0.90796  0.07429  0.24139  Biso   1.000  N
  N21      1.0000 0.98438  0.94168  0.19496  Biso   1.000  N
  N22      1.0000 0.08825  0.97206  0.11084  Biso   1.000  N
  N23      1.0000 0.08321  0.12663  0.09895  Biso   1.000  N
  N24      1.0000 0.71726  0.32314  0.34434  Biso   1.000  N
  N25      1.0000 0.62128  0.42136  0.41228  Biso   1.000  N
  N26      1.0000 0.65991  0.55292  0.38466  Biso   1.000  N
  N27      1.0000 0.78246  0.54691  0.29777  Biso   1.000  N
  N28      1.0000 0.47737  0.15711  0.30715  Biso   1.000  N
  N29      1.0000 0.22364  0.42571  0.25861  Biso   1.000  N
  N30      1.0000 0.12102  0.55832  0.30504  Biso   1.000  N
  N31      1.0000 0.17115  0.52794  0.38916  Biso   1.000  N
  N32      1.0000 0.30879  0.37337  0.40105  Biso   1.000  N
  N33      1.0000 0.38474  0.17686  0.15566  Biso   1.000  N
  N34      1.0000 0.45492  0.07864  0.08772  Biso   1.000  N
  N35      1.0000 0.59749  0.94708  0.11534  Biso   1.000  N
  N36      1.0000 0.62714  0.95309  0.20223  Biso   1.000  N
  O1       1.0000 0.22545  0.17979  0.61231  Biso   1.000  O
  O2       1.0000 0.36202  0.91091  0.48885  Biso   1.000  O
  O3       1.0000 0.01755  0.32021  0.88769  Biso   1.000  O
  O4       1.0000 0.76178  0.58909  0.01115  Biso   1.000  O
  O5       1.0000 0.77455  0.82021  0.38769  Biso   1.000  O
  O6       1.0000 0.63798  0.08909  0.51115  Biso   1.000  O
  O7       1.0000 0.98245  0.67979  0.11231  Biso   1.000  O
  O8       1.0000 0.23822  0.41091  0.98885  Biso   1.000  O
