data_image0
_cell_length_a       14.7173
_cell_length_b       14.7173
_cell_length_c       16.6563
_cell_angle_alpha    79.3109
_cell_angle_beta     73.1309
_cell_angle_gamma    117.495

_symmetry_space_group_name_H-M    P 1
_symmetry_int_tables_number       1

loop_
  _symmetry_equiv_pos_as_xyz
  'x, y, z'

loop_
  _atom_site_label
  _atom_site_occupancy
  _atom_site_fract_x
  _atom_site_fract_y
  _atom_site_fract_z
  _atom_site_thermal_displace_type
  _atom_site_B_iso_or_equiv
  _atom_site_type_symbol
  Ni1      1.0000 0.50000  0.00000  0.50000  Biso   1.000  Ni
  Ni2      1.0000 0.00000  0.00000  0.00000  Biso   1.000  Ni
  Ni3      1.0000 0.50000  0.00000  0.00000  Biso   1.000  Ni
  Ni4      1.0000 0.50000  0.50000  0.50000  Biso   1.000  Ni
  Mo1      1.0000 0.59476  0.84476  0.25000  Biso   1.000  Mo
  Mo2      1.0000 0.40524  0.15524  0.75000  Biso   1.000  Mo
  H1       1.0000 0.33780  0.88800  0.65380  Biso   1.000  H
  H2       1.0000 0.58040  0.89190  0.51410  Biso   1.000  H
  H3       1.0000 0.38100  0.87640  0.93840  Biso   1.000  H
  H4       1.0000 0.37600  0.87990  0.15470  Biso   1.000  H
  H5       1.0000 0.38410  0.74860  0.58890  Biso   1.000  H
  H6       1.0000 0.31920  0.72600  0.69340  Biso   1.000  H
  H7       1.0000 0.48410  0.87800  0.68450  Biso   1.000  H
  H8       1.0000 0.51360  0.79370  0.65470  Biso   1.000  H
  H9       1.0000 0.68630  0.04190  0.56640  Biso   1.000  H
  H10      1.0000 0.76270  0.04280  0.39430  Biso   1.000  H
  H11      1.0000 0.84720  0.11120  0.43300  Biso   1.000  H
  H12      1.0000 0.68330  0.88770  0.63440  Biso   1.000  H
  H13      1.0000 0.80490  0.00120  0.57810  Biso   1.000  H
  H14      1.0000 0.76520  0.90820  0.53600  Biso   1.000  H
  H15      1.0000 0.23040  0.69140  0.55940  Biso   1.000  H
  H16      1.0000 0.16090  0.73500  0.52630  Biso   1.000  H
  H17      1.0000 0.29640  0.80480  0.47440  Biso   1.000  H
  H18      1.0000 0.13940  0.78590  0.72990  Biso   1.000  H
  H19      1.0000 0.06720  0.71440  0.68400  Biso   1.000  H
  H20      1.0000 0.14440  0.68300  0.71700  Biso   1.000  H
  H21      1.0000 0.36100  0.74530  0.09230  Biso   1.000  H
  H22      1.0000 0.27250  0.70930  0.04820  Biso   1.000  H
  H23      1.0000 0.23310  0.84290  0.07640  Biso   1.000  H
  H24      1.0000 0.21030  0.76310  0.17000  Biso   1.000  H
  H25      1.0000 0.30270  0.00260  0.13550  Biso   1.000  H
  H26      1.0000 0.46250  0.03410  0.20160  Biso   1.000  H
  H27      1.0000 0.38560  0.08250  0.22470  Biso   1.000  H
  H28      1.0000 0.15970  0.83480  0.25450  Biso   1.000  H
  H29      1.0000 0.19270  0.94420  0.27630  Biso   1.000  H
  H30      1.0000 0.23540  0.86830  0.30910  Biso   1.000  H
  H31      1.0000 0.37420  0.77090  0.85210  Biso   1.000  H
  H32      1.0000 0.46340  0.73510  0.82970  Biso   1.000  H
  H33      1.0000 0.36080  0.67570  0.92870  Biso   1.000  H
  H34      1.0000 0.48610  0.71890  0.00300  Biso   1.000  H
  H35      1.0000 0.59320  0.77470  0.90730  Biso   1.000  H
  H36      1.0000 0.59170  0.84230  0.97200  Biso   1.000  H
  H37      1.0000 0.04180  0.99160  0.84620  Biso   1.000  H
  H38      1.0000 0.90600  0.09450  0.98590  Biso   1.000  H
  H39      1.0000 0.31480  0.31940  0.56160  Biso   1.000  H
  H40      1.0000 0.53460  0.53070  0.34530  Biso   1.000  H
  H41      1.0000 0.83750  0.97300  0.91110  Biso   1.000  H
  H42      1.0000 0.91940  0.01260  0.80660  Biso   1.000  H
  H43      1.0000 0.06250  0.16860  0.81550  Biso   1.000  H
  H44      1.0000 0.94840  0.16830  0.84530  Biso   1.000  H
  H45      1.0000 0.10830  0.25270  0.93360  Biso   1.000  H
  H46      1.0000 0.93710  0.15700  0.10570  Biso   1.000  H
  H47      1.0000 0.04420  0.28020  0.06700  Biso   1.000  H
  H48      1.0000 0.02210  0.31770  0.86560  Biso   1.000  H
  H49      1.0000 0.07930  0.38300  0.92190  Biso   1.000  H
  H50      1.0000 0.94420  0.30120  0.96400  Biso   1.000  H
  H51      1.0000 0.75080  0.78980  0.94060  Biso   1.000  H
  H52      1.0000 0.76130  0.68720  0.97370  Biso   1.000  H
  H53      1.0000 0.77920  0.77080  0.02560  Biso   1.000  H
  H54      1.0000 0.01580  0.86930  0.77010  Biso   1.000  H
  H55      1.0000 0.89840  0.75120  0.81600  Biso   1.000  H
  H56      1.0000 0.90000  0.86140  0.78300  Biso   1.000  H
  H57      1.0000 0.33760  0.45330  0.40770  Biso   1.000  H
  H58      1.0000 0.25750  0.32070  0.45180  Biso   1.000  H
  H59      1.0000 0.41930  0.30950  0.42360  Biso   1.000  H
  H60      1.0000 0.43310  0.38030  0.33000  Biso   1.000  H
  H61      1.0000 0.63810  0.43820  0.36450  Biso   1.000  H
  H62      1.0000 0.73570  0.66410  0.29840  Biso   1.000  H
  H63      1.0000 0.80720  0.61030  0.27530  Biso   1.000  H
  H64      1.0000 0.58930  0.41420  0.24550  Biso   1.000  H
  H65      1.0000 0.72050  0.46900  0.22370  Biso   1.000  H
  H66      1.0000 0.67740  0.54450  0.19090  Biso   1.000  H
  H67      1.0000 0.12300  0.22630  0.64790  Biso   1.000  H
  H68      1.0000 0.06480  0.29310  0.67030  Biso   1.000  H
  H69      1.0000 0.10440  0.28950  0.57130  Biso   1.000  H
  H70      1.0000 0.22190  0.48910  0.49700  Biso   1.000  H
  H71      1.0000 0.18200  0.50050  0.59270  Biso   1.000  H
  H72      1.0000 0.31430  0.56370  0.52800  Biso   1.000  H
  H73      1.0000 0.66220  0.11200  0.34620  Biso   1.000  H
  H74      1.0000 0.41960  0.10810  0.48590  Biso   1.000  H
  H75      1.0000 0.61900  0.12360  0.06160  Biso   1.000  H
  H76      1.0000 0.62400  0.12010  0.84530  Biso   1.000  H
  H77      1.0000 0.61590  0.25140  0.41110  Biso   1.000  H
  H78      1.0000 0.68080  0.27400  0.30660  Biso   1.000  H
  H79      1.0000 0.51590  0.12200  0.31550  Biso   1.000  H
  H80      1.0000 0.48640  0.20630  0.34530  Biso   1.000  H
  H81      1.0000 0.31370  0.95810  0.43360  Biso   1.000  H
  H82      1.0000 0.23730  0.95720  0.60570  Biso   1.000  H
  H83      1.0000 0.15280  0.88880  0.56700  Biso   1.000  H
  H84      1.0000 0.31670  0.11230  0.36560  Biso   1.000  H
  H85      1.0000 0.19510  0.99880  0.42190  Biso   1.000  H
  H86      1.0000 0.23480  0.09180  0.46400  Biso   1.000  H
  H87      1.0000 0.76960  0.30860  0.44060  Biso   1.000  H
  H88      1.0000 0.83910  0.26500  0.47370  Biso   1.000  H
  H89      1.0000 0.70360  0.19520  0.52560  Biso   1.000  H
  H90      1.0000 0.86060  0.21410  0.27010  Biso   1.000  H
  H91      1.0000 0.93280  0.28560  0.31600  Biso   1.000  H
  H92      1.0000 0.85560  0.31700  0.28300  Biso   1.000  H
  H93      1.0000 0.63900  0.25470  0.90770  Biso   1.000  H
  H94      1.0000 0.72750  0.29070  0.95180  Biso   1.000  H
  H95      1.0000 0.76690  0.15710  0.92360  Biso   1.000  H
  H96      1.0000 0.78970  0.23690  0.83000  Biso   1.000  H
  H97      1.0000 0.69730  0.99740  0.86450  Biso   1.000  H
  H98      1.0000 0.53750  0.96590  0.79840  Biso   1.000  H
  H99      1.0000 0.61440  0.91750  0.77530  Biso   1.000  H
  H100     1.0000 0.84030  0.16520  0.74550  Biso   1.000  H
  H101     1.0000 0.80730  0.05580  0.72370  Biso   1.000  H
  H102     1.0000 0.76460  0.13170  0.69090  Biso   1.000  H
  H103     1.0000 0.62580  0.22910  0.14790  Biso   1.000  H
  H104     1.0000 0.53660  0.26490  0.17030  Biso   1.000  H
  H105     1.0000 0.63920  0.32430  0.07130  Biso   1.000  H
  H106     1.0000 0.51390  0.28110  0.99700  Biso   1.000  H
  H107     1.0000 0.40680  0.22530  0.09270  Biso   1.000  H
  H108     1.0000 0.40830  0.15770  0.02800  Biso   1.000  H
  H109     1.0000 0.95820  0.00840  0.15380  Biso   1.000  H
  H110     1.0000 0.09400  0.90550  0.01410  Biso   1.000  H
  H111     1.0000 0.68520  0.68060  0.43840  Biso   1.000  H
  H112     1.0000 0.46540  0.46930  0.65470  Biso   1.000  H
  H113     1.0000 0.16250  0.02700  0.08890  Biso   1.000  H
  H114     1.0000 0.08060  0.98740  0.19340  Biso   1.000  H
  H115     1.0000 0.93750  0.83140  0.18450  Biso   1.000  H
  H116     1.0000 0.05160  0.83170  0.15470  Biso   1.000  H
  H117     1.0000 0.89170  0.74730  0.06640  Biso   1.000  H
  H118     1.0000 0.06290  0.84300  0.89430  Biso   1.000  H
  H119     1.0000 0.95580  0.71980  0.93300  Biso   1.000  H
  H120     1.0000 0.97790  0.68230  0.13440  Biso   1.000  H
  H121     1.0000 0.92070  0.61700  0.07810  Biso   1.000  H
  H122     1.0000 0.05580  0.69880  0.03600  Biso   1.000  H
  H123     1.0000 0.24920  0.21020  0.05940  Biso   1.000  H
  H124     1.0000 0.23870  0.31280  0.02630  Biso   1.000  H
  H125     1.0000 0.22080  0.22920  0.97440  Biso   1.000  H
  H126     1.0000 0.98420  0.13070  0.22990  Biso   1.000  H
  H127     1.0000 0.10160  0.24880  0.18400  Biso   1.000  H
  H128     1.0000 0.10000  0.13860  0.21700  Biso   1.000  H
  H129     1.0000 0.66240  0.54670  0.59230  Biso   1.000  H
  H130     1.0000 0.74250  0.67930  0.54820  Biso   1.000  H
  H131     1.0000 0.58070  0.69050  0.57640  Biso   1.000  H
  H132     1.0000 0.56690  0.61970  0.67000  Biso   1.000  H
  H133     1.0000 0.36190  0.56180  0.63550  Biso   1.000  H
  H134     1.0000 0.26430  0.33590  0.70160  Biso   1.000  H
  H135     1.0000 0.19280  0.38970  0.72470  Biso   1.000  H
  H136     1.0000 0.41070  0.58580  0.75450  Biso   1.000  H
  H137     1.0000 0.27950  0.53100  0.77630  Biso   1.000  H
  H138     1.0000 0.32260  0.45550  0.80910  Biso   1.000  H
  H139     1.0000 0.87700  0.77370  0.35210  Biso   1.000  H
  H140     1.0000 0.93520  0.70690  0.32970  Biso   1.000  H
  H141     1.0000 0.89560  0.71050  0.42870  Biso   1.000  H
  H142     1.0000 0.77810  0.51090  0.50300  Biso   1.000  H
  H143     1.0000 0.81800  0.49950  0.40730  Biso   1.000  H
  H144     1.0000 0.68570  0.43630  0.47200  Biso   1.000  H
  C1       1.0000 0.57537  0.90034  0.13195  Biso   1.000  C
  C2       1.0000 0.37849  0.78428  0.63343  Biso   1.000  C
  C3       1.0000 0.49110  0.84565  0.63779  Biso   1.000  C
  C4       1.0000 0.68767  0.99343  0.53170  Biso   1.000  C
  C5       1.0000 0.76956  0.08086  0.43736  Biso   1.000  C
  C6       1.0000 0.23914  0.82077  0.59673  Biso   1.000  C
  C7       1.0000 0.73983  0.94324  0.57373  Biso   1.000  C
  C8       1.0000 0.23097  0.75731  0.53360  Biso   1.000  C
  C9       1.0000 0.13840  0.74405  0.69041  Biso   1.000  C
  C10      1.0000 0.32821  0.77228  0.05755  Biso   1.000  C
  C11      1.0000 0.26980  0.82001  0.10955  Biso   1.000  C
  C12      1.0000 0.32570  0.96340  0.17250  Biso   1.000  C
  C13      1.0000 0.42118  0.06100  0.17828  Biso   1.000  C
  C14      1.0000 0.48984  0.83314  0.90658  Biso   1.000  C
  C15      1.0000 0.21894  0.89679  0.26093  Biso   1.000  C
  C16      1.0000 0.41530  0.74583  0.87655  Biso   1.000  C
  C17      1.0000 0.54514  0.78826  0.95120  Biso   1.000  C
  C18      1.0000 0.53072  0.89211  0.35507  Biso   1.000  C
  C19      1.0000 0.41369  0.76378  0.29149  Biso   1.000  C
  C20      1.0000 0.72249  0.88400  0.30117  Biso   1.000  C
  C21      1.0000 0.53229  0.70732  0.36805  Biso   1.000  C
  C22      1.0000 0.91771  0.01192  0.86657  Biso   1.000  C
  C23      1.0000 0.98344  0.12889  0.86221  Biso   1.000  C
  C24      1.0000 0.02513  0.21937  0.96830  Biso   1.000  C
  C25      1.0000 0.01822  0.20692  0.06264  Biso   1.000  C
  C26      1.0000 0.91750  0.83587  0.90327  Biso   1.000  C
  C27      1.0000 0.01697  0.31356  0.92627  Biso   1.000  C
  C28      1.0000 0.79091  0.76457  0.96640  Biso   1.000  C
  C29      1.0000 0.93446  0.82881  0.80959  Biso   1.000  C
  C30      1.0000 0.32983  0.38576  0.44245  Biso   1.000  C
  C31      1.0000 0.42956  0.37935  0.39045  Biso   1.000  C
  C32      1.0000 0.63590  0.49820  0.32750  Biso   1.000  C
  C33      1.0000 0.73928  0.59946  0.32172  Biso   1.000  C
  C34      1.0000 0.23972  0.39642  0.59342  Biso   1.000  C
  C35      1.0000 0.65772  0.47987  0.23907  Biso   1.000  C
  C36      1.0000 0.12238  0.29185  0.62345  Biso   1.000  C
  C37      1.0000 0.23946  0.49634  0.54880  Biso   1.000  C
  C38      1.0000 0.74718  0.88579  0.14493  Biso   1.000  C
  C39      1.0000 0.55527  0.70518  0.20851  Biso   1.000  C
  C40      1.0000 0.68517  0.02366  0.19883  Biso   1.000  C
  C41      1.0000 0.42463  0.09966  0.86805  Biso   1.000  C
  C42      1.0000 0.62151  0.21572  0.36657  Biso   1.000  C
  C43      1.0000 0.50890  0.15435  0.36221  Biso   1.000  C
  C44      1.0000 0.31233  0.00657  0.46830  Biso   1.000  C
  C45      1.0000 0.23044  0.91914  0.56264  Biso   1.000  C
  C46      1.0000 0.76086  0.17923  0.40327  Biso   1.000  C
  C47      1.0000 0.26017  0.05676  0.42627  Biso   1.000  C
  C48      1.0000 0.76903  0.24269  0.46640  Biso   1.000  C
  C49      1.0000 0.86160  0.25595  0.30959  Biso   1.000  C
  C50      1.0000 0.67179  0.22772  0.94245  Biso   1.000  C
  C51      1.0000 0.73020  0.17999  0.89045  Biso   1.000  C
  C52      1.0000 0.67430  0.03660  0.82750  Biso   1.000  C
  C53      1.0000 0.57882  0.93900  0.82172  Biso   1.000  C
  C54      1.0000 0.51016  0.16686  0.09342  Biso   1.000  C
  C55      1.0000 0.78106  0.10321  0.73907  Biso   1.000  C
  C56      1.0000 0.58470  0.25417  0.12345  Biso   1.000  C
  C57      1.0000 0.45486  0.21174  0.04880  Biso   1.000  C
  C58      1.0000 0.46928  0.10789  0.64493  Biso   1.000  C
  C59      1.0000 0.58631  0.23622  0.70851  Biso   1.000  C
  C60      1.0000 0.27751  0.11600  0.69883  Biso   1.000  C
  C61      1.0000 0.46771  0.29268  0.63195  Biso   1.000  C
  C62      1.0000 0.08229  0.98808  0.13343  Biso   1.000  C
  C63      1.0000 0.01656  0.87111  0.13779  Biso   1.000  C
  C64      1.0000 0.97487  0.78063  0.03170  Biso   1.000  C
  C65      1.0000 0.98178  0.79308  0.93736  Biso   1.000  C
  C66      1.0000 0.08250  0.16413  0.09673  Biso   1.000  C
  C67      1.0000 0.98303  0.68644  0.07373  Biso   1.000  C
  C68      1.0000 0.20909  0.23543  0.03360  Biso   1.000  C
  C69      1.0000 0.06554  0.17119  0.19041  Biso   1.000  C
  C70      1.0000 0.67017  0.61424  0.55755  Biso   1.000  C
  C71      1.0000 0.57044  0.62065  0.60955  Biso   1.000  C
  C72      1.0000 0.36410  0.50180  0.67250  Biso   1.000  C
  C73      1.0000 0.26072  0.40054  0.67828  Biso   1.000  C
  C74      1.0000 0.76028  0.60358  0.40658  Biso   1.000  C
  C75      1.0000 0.34228  0.52013  0.76093  Biso   1.000  C
  C76      1.0000 0.87762  0.70815  0.37655  Biso   1.000  C
  C77      1.0000 0.76054  0.50366  0.45120  Biso   1.000  C
  C78      1.0000 0.25282  0.11421  0.85507  Biso   1.000  C
  C79      1.0000 0.44473  0.29482  0.79149  Biso   1.000  C
  C80      1.0000 0.31483  0.97634  0.80117  Biso   1.000  C
  N1       1.0000 0.34827  0.86383  0.60618  Biso   1.000  N
  N2       1.0000 0.57855  0.93430  0.54883  Biso   1.000  N
  N3       1.0000 0.41926  0.86102  0.96886  Biso   1.000  N
  N4       1.0000 0.35461  0.91567  0.11948  Biso   1.000  N
  N5       1.0000 0.49945  0.91956  0.41103  Biso   1.000  N
  N6       1.0000 0.31694  0.71831  0.31321  Biso   1.000  N
  N7       1.0000 0.79156  0.90191  0.32749  Biso   1.000  N
  N8       1.0000 0.56592  0.93400  0.06896  Biso   1.000  N
  N9       1.0000 0.97001  0.95445  0.89382  Biso   1.000  N
  N10      1.0000 0.98313  0.12738  0.95117  Biso   1.000  N
  N11      1.0000 0.32988  0.38812  0.53114  Biso   1.000  N
  N12      1.0000 0.53515  0.47409  0.38052  Biso   1.000  N
  N13      1.0000 0.83059  0.91048  0.08897  Biso   1.000  N
  N14      1.0000 0.53152  0.63015  0.18679  Biso   1.000  N
  N15      1.0000 0.72940  0.11905  0.17251  Biso   1.000  N
  N16      1.0000 0.50296  0.63488  0.43104  Biso   1.000  N
  N17      1.0000 0.65173  0.13617  0.39382  Biso   1.000  N
  N18      1.0000 0.42145  0.06570  0.45117  Biso   1.000  N
  N19      1.0000 0.58074  0.13898  0.03114  Biso   1.000  N
  N20      1.0000 0.64539  0.08433  0.88052  Biso   1.000  N
  N21      1.0000 0.50055  0.08044  0.58897  Biso   1.000  N
  N22      1.0000 0.68306  0.28169  0.68679  Biso   1.000  N
  N23      1.0000 0.20844  0.09809  0.67251  Biso   1.000  N
  N24      1.0000 0.43408  0.06600  0.93104  Biso   1.000  N
  N25      1.0000 0.02999  0.04555  0.10618  Biso   1.000  N
  N26      1.0000 0.01687  0.87262  0.04883  Biso   1.000  N
  N27      1.0000 0.67012  0.61188  0.46886  Biso   1.000  N
  N28      1.0000 0.46485  0.52591  0.61948  Biso   1.000  N
  N29      1.0000 0.16941  0.08952  0.91103  Biso   1.000  N
  N30      1.0000 0.46848  0.36985  0.81321  Biso   1.000  N
  N31      1.0000 0.27060  0.88095  0.82749  Biso   1.000  N
  N32      1.0000 0.49704  0.36512  0.56896  Biso   1.000  N
