data_image0
_cell_length_a       6.429
_cell_length_b       25.18
_cell_length_c       7.874
_cell_angle_alpha    90
_cell_angle_beta     90.101
_cell_angle_gamma    90

_symmetry_space_group_name_H-M    "P 1"
_symmetry_int_tables_number       1

loop_
  _symmetry_equiv_pos_as_xyz
  'x, y, z'

loop_
  _atom_site_label
  _atom_site_occupancy
  _atom_site_fract_x
  _atom_site_fract_y
  _atom_site_fract_z
  _atom_site_thermal_displace_type
  _atom_site_B_iso_or_equiv
  _atom_site_type_symbol
  Ni1      1.0000 0.11910  0.73530  0.18400  Biso   1.000  Ni
  Ni2      1.0000 0.61920  0.80550  0.68810  Biso   1.000  Ni
  O1       1.0000 0.31890  0.77530  0.35510  Biso   1.000  O
  C1       1.0000 0.35800  0.82410  0.37300  Biso   1.000  C
  O2       1.0000 0.45500  0.84360  0.49470  Biso   1.000  O
  C2       1.0000 0.29350  0.86410  0.23160  Biso   1.000  C
  H1       1.0000 0.21420  0.89330  0.28540  Biso   1.000  H
  H2       1.0000 0.42190  0.87970  0.18380  Biso   1.000  H
  C3       1.0000 0.16740  0.84290  0.08880  Biso   1.000  C
  H3       1.0000 0.10690  0.87340  0.02390  Biso   1.000  H
  N1       1.0000 0.99580  0.80890  0.15070  Biso   1.000  N
  H4       1.0000 0.88940  0.80780  0.07250  Biso   1.000  H
  H5       1.0000 0.94440  0.82170  0.25160  Biso   1.000  H
  C4       1.0000 0.30700  0.80990  0.96820  Biso   1.000  C
  O3       1.0000 0.30160  0.76180  0.99320  Biso   1.000  O
  O4       1.0000 0.41850  0.83490  0.86730  Biso   1.000  O
  O5       1.0000 0.91720  0.70790  0.35950  Biso   1.000  O
  C5       1.0000 0.82400  0.72820  0.48230  Biso   1.000  C
  O6       1.0000 0.81900  0.77860  0.50050  Biso   1.000  O
  C6       1.0000 0.78100  0.68030  0.60420  Biso   1.000  C
  H6       1.0000 0.69900  0.65320  0.54280  Biso   1.000  H
  H7       1.0000 0.91590  0.66400  0.63650  Biso   1.000  H
  C7       1.0000 0.66430  0.69640  0.76630  Biso   1.000  C
  H8       1.0000 0.60230  0.66460  0.82300  Biso   1.000  H
  N2       1.0000 0.49300  0.72980  0.67600  Biso   1.000  N
  H9       1.0000 0.36840  0.72790  0.73230  Biso   1.000  H
  H10      1.0000 0.47460  0.71910  0.56500  Biso   1.000  H
  C8       1.0000 0.83900  0.72080  0.87730  Biso   1.000  C
  O7       1.0000 0.93540  0.69640  0.98660  Biso   1.000  O
  O8       1.0000 0.80700  0.77040  0.87470  Biso   1.000  O
  N3       1.0000 0.29650  0.66550  0.21450  Biso   1.000  N
  C9       1.0000 0.22010  0.62380  0.29900  Biso   1.000  C
  H11      1.0000 0.07770  0.62400  0.33090  Biso   1.000  H
  C10      1.0000 0.34150  0.58030  0.34150  Biso   1.000  C
  H12      1.0000 0.28870  0.55420  0.41710  Biso   1.000  H
  C11      1.0000 0.54260  0.57460  0.27340  Biso   1.000  C
  C12      1.0000 0.61530  0.61790  0.17980  Biso   1.000  C
  H13      1.0000 0.74760  0.61650  0.12650  Biso   1.000  H
  C13      1.0000 0.49380  0.66270  0.16550  Biso   1.000  C
  H14      1.0000 0.55490  0.69360  0.11740  Biso   1.000  H
  C14      1.0000 0.65600  0.52500  0.28500  Biso   1.000  C
  H15      1.0000 0.59650  0.49850  0.35610  Biso   1.000  H
  N4       1.0000 0.20430  0.37320  0.26860  Biso   1.000  N
  C15      1.0000 0.01340  0.37580  0.33490  Biso   1.000  C
  H16      1.0000 0.96240  0.34620  0.39710  Biso   1.000  H
  C16      1.0000 0.88690  0.42000  0.31640  Biso   1.000  C
  H17      1.0000 0.74970  0.41950  0.36080  Biso   1.000  H
  C17      1.0000 0.96020  0.46560  0.23230  Biso   1.000  C
  C18      1.0000 0.16280  0.46230  0.16930  Biso   1.000  C
  H18      1.0000 0.22590  0.49240  0.11790  Biso   1.000  H
  C19      1.0000 0.27040  0.41520  0.18220  Biso   1.000  C
  H19      1.0000 0.40040  0.41260  0.12560  Biso   1.000  H
  C20      1.0000 0.83100  0.51220  0.20900  Biso   1.000  C
  H20      1.0000 0.87980  0.53700  0.12740  Biso   1.000  H
  Ni3      1.0000 0.88090  0.23530  0.81600  Biso   1.000  Ni
  Ni4      1.0000 0.38080  0.30550  0.31190  Biso   1.000  Ni
  O9       1.0000 0.68110  0.27530  0.64490  Biso   1.000  O
  C21      1.0000 0.64200  0.32410  0.62700  Biso   1.000  C
  O10      1.0000 0.54500  0.34360  0.50530  Biso   1.000  O
  C22      1.0000 0.70650  0.36410  0.76840  Biso   1.000  C
  H21      1.0000 0.78580  0.39330  0.71460  Biso   1.000  H
  H22      1.0000 0.57810  0.37970  0.81620  Biso   1.000  H
  C23      1.0000 0.83260  0.34290  0.91120  Biso   1.000  C
  H23      1.0000 0.89310  0.37340  0.97610  Biso   1.000  H
  N5       1.0000 0.00420  0.30890  0.84930  Biso   1.000  N
  H24      1.0000 0.11060  0.30780  0.92750  Biso   1.000  H
  H25      1.0000 0.05560  0.32170  0.74840  Biso   1.000  H
  C24      1.0000 0.69300  0.30990  0.03180  Biso   1.000  C
  O11      1.0000 0.69840  0.26180  0.00680  Biso   1.000  O
  O12      1.0000 0.58150  0.33490  0.13270  Biso   1.000  O
  O13      1.0000 0.08280  0.20790  0.64050  Biso   1.000  O
  C25      1.0000 0.17600  0.22820  0.51770  Biso   1.000  C
  O14      1.0000 0.18100  0.27860  0.49950  Biso   1.000  O
  C26      1.0000 0.21900  0.18030  0.39580  Biso   1.000  C
  H26      1.0000 0.30100  0.15320  0.45720  Biso   1.000  H
  H27      1.0000 0.08410  0.16400  0.36350  Biso   1.000  H
  C27      1.0000 0.33570  0.19640  0.23370  Biso   1.000  C
  H28      1.0000 0.39770  0.16460  0.17700  Biso   1.000  H
  N6       1.0000 0.50700  0.22980  0.32400  Biso   1.000  N
  H29      1.0000 0.63160  0.22790  0.26770  Biso   1.000  H
  H30      1.0000 0.52540  0.21910  0.43500  Biso   1.000  H
  C28      1.0000 0.16100  0.22080  0.12270  Biso   1.000  C
  O15      1.0000 0.06460  0.19640  0.01340  Biso   1.000  O
  O16      1.0000 0.19300  0.27040  0.12530  Biso   1.000  O
  N7       1.0000 0.70350  0.16550  0.78550  Biso   1.000  N
  C29      1.0000 0.77990  0.12380  0.70100  Biso   1.000  C
  H31      1.0000 0.92230  0.12400  0.66910  Biso   1.000  H
  C30      1.0000 0.65850  0.08030  0.65850  Biso   1.000  C
  H32      1.0000 0.71130  0.05420  0.58290  Biso   1.000  H
  C31      1.0000 0.45740  0.07460  0.72660  Biso   1.000  C
  C32      1.0000 0.38470  0.11790  0.82020  Biso   1.000  C
  H33      1.0000 0.25240  0.11650  0.87350  Biso   1.000  H
  C33      1.0000 0.50620  0.16270  0.83450  Biso   1.000  C
  H34      1.0000 0.44510  0.19360  0.88260  Biso   1.000  H
  C34      1.0000 0.34400  0.02500  0.71500  Biso   1.000  C
  H35      1.0000 0.40350  0.99850  0.64390  Biso   1.000  H
  N8       1.0000 0.79570  0.87320  0.73140  Biso   1.000  N
  C35      1.0000 0.98660  0.87580  0.66510  Biso   1.000  C
  H36      1.0000 0.03760  0.84620  0.60290  Biso   1.000  H
  C36      1.0000 0.11310  0.92000  0.68360  Biso   1.000  C
  H37      1.0000 0.25030  0.91950  0.63920  Biso   1.000  H
  C37      1.0000 0.03980  0.96560  0.76770  Biso   1.000  C
  C38      1.0000 0.83720  0.96230  0.83070  Biso   1.000  C
  H38      1.0000 0.77410  0.99240  0.88210  Biso   1.000  H
  C39      1.0000 0.72960  0.91520  0.81780  Biso   1.000  C
  H39      1.0000 0.59960  0.91260  0.87440  Biso   1.000  H
  C40      1.0000 0.16900  0.01220  0.79100  Biso   1.000  C
  H40      1.0000 0.12020  0.03700  0.87260  Biso   1.000  H
