data_image0
_cell_length_a       6.487
_cell_length_b       24.779
_cell_length_c       7.805
_cell_angle_alpha    90
_cell_angle_beta     91.029
_cell_angle_gamma    90

_symmetry_space_group_name_H-M    "P 1"
_symmetry_int_tables_number       1

loop_
  _symmetry_equiv_pos_as_xyz
  'x, y, z'

loop_
  _atom_site_label
  _atom_site_occupancy
  _atom_site_fract_x
  _atom_site_fract_y
  _atom_site_fract_z
  _atom_site_thermal_displace_type
  _atom_site_B_iso_or_equiv
  _atom_site_type_symbol
  Ni1      1.0000 0.66040  0.45169  0.68520  Biso   1.000  Ni
  Ni2      1.0000 0.83860  0.02113  0.80860  Biso   1.000  Ni
  N1       1.0000 0.82700  0.38050  0.71600  Biso   1.000  N
  C1       1.0000 0.74900  0.33660  0.78800  Biso   1.000  C
  H1       1.0000 0.60880  0.33750  0.82250  Biso   1.000  H
  C2       1.0000 0.86100  0.28930  0.81700  Biso   1.000  C
  H2       1.0000 0.80160  0.25930  0.87370  Biso   1.000  H
  C3       1.0000 0.06200  0.28770  0.75900  Biso   1.000  C
  C4       1.0000 0.15100  0.33410  0.69300  Biso   1.000  C
  H3       1.0000 0.29230  0.33480  0.66310  Biso   1.000  H
  C5       1.0000 0.02700  0.37940  0.67100  Biso   1.000  C
  H4       1.0000 0.08560  0.41090  0.62200  Biso   1.000  H
  N2       1.0000 0.15800  0.23550  0.78800  Biso   1.000  N
  N3       1.0000 0.65800  0.08950  0.77100  Biso   1.000  N
  C6       1.0000 0.72400  0.13310  0.68700  Biso   1.000  C
  H5       1.0000 0.85690  0.13170  0.63820  Biso   1.000  H
  C7       1.0000 0.61100  0.18020  0.66700  Biso   1.000  C
  H6       1.0000 0.66440  0.21000  0.60590  Biso   1.000  H
  C8       1.0000 0.41800  0.18270  0.74000  Biso   1.000  C
  C9       1.0000 0.34300  0.13820  0.82700  Biso   1.000  C
  H7       1.0000 0.21080  0.13860  0.87650  Biso   1.000  H
  C10      1.0000 0.46900  0.09340  0.83900  Biso   1.000  C
  H8       1.0000 0.41910  0.06300  0.89940  Biso   1.000  H
  N4       1.0000 0.31700  0.23490  0.71200  Biso   1.000  N
  O1       1.0000 0.87600  0.48940  0.85130  Biso   1.000  O
  C11      1.0000 0.90900  0.53850  0.87500  Biso   1.000  C
  O2       1.0000 0.00800  0.55840  0.00120  Biso   1.000  O
  C12      1.0000 0.84300  0.58020  0.74080  Biso   1.000  C
  H9       1.0000 0.96940  0.59740  0.69660  Biso   1.000  H
  H10      1.0000 0.76290  0.60860  0.79870  Biso   1.000  H
  C13      1.0000 0.71600  0.55960  0.58810  Biso   1.000  C
  H11      1.0000 0.66100  0.59110  0.52140  Biso   1.000  H
  N5       1.0000 0.54100  0.52660  0.64900  Biso   1.000  N
  H12      1.0000 0.43540  0.52590  0.56860  Biso   1.000  H
  H13      1.0000 0.49100  0.54020  0.74990  Biso   1.000  H
  C14      1.0000 0.85100  0.52500  0.47160  Biso   1.000  C
  O3       1.0000 0.83500  0.47500  0.48150  Biso   1.000  O
  O4       1.0000 0.95700  0.55190  0.37220  Biso   1.000  O
  O5       1.0000 0.36200  0.49190  0.01980  Biso   1.000  O
  C15      1.0000 0.37900  0.44190  0.99100  Biso   1.000  C
  O6       1.0000 0.47100  0.42430  0.85960  Biso   1.000  O
  C16      1.0000 0.34200  0.39560  0.11600  Biso   1.000  C
  H14      1.0000 0.27690  0.36550  0.05140  Biso   1.000  H
  H15      1.0000 0.47790  0.38270  0.15880  Biso   1.000  H
  C17      1.0000 0.21200  0.40770  0.26700  Biso   1.000  C
  H16      1.0000 0.15610  0.37400  0.31880  Biso   1.000  H
  N6       1.0000 0.04100  0.44290  0.19500  Biso   1.000  N
  H17      1.0000 0.92680  0.44120  0.26280  Biso   1.000  H
  H18      1.0000 0.00400  0.43200  0.08580  Biso   1.000  H
  C18      1.0000 0.35200  0.43880  0.39600  Biso   1.000  C
  O7       1.0000 0.33300  0.48840  0.38610  Biso   1.000  O
  O8       1.0000 0.46700  0.41280  0.49310  Biso   1.000  O
  Ni3      1.0000 0.33960  0.95169  0.31480  Biso   1.000  Ni
  Ni4      1.0000 0.16140  0.52113  0.19140  Biso   1.000  Ni
  N7       1.0000 0.17300  0.88050  0.28400  Biso   1.000  N
  C19      1.0000 0.25100  0.83660  0.21200  Biso   1.000  C
  H19      1.0000 0.39120  0.83750  0.17750  Biso   1.000  H
  C20      1.0000 0.13900  0.78930  0.18300  Biso   1.000  C
  H20      1.0000 0.19840  0.75930  0.12630  Biso   1.000  H
  C21      1.0000 0.93800  0.78770  0.24100  Biso   1.000  C
  C22      1.0000 0.84900  0.83410  0.30700  Biso   1.000  C
  H21      1.0000 0.70770  0.83480  0.33690  Biso   1.000  H
  C23      1.0000 0.97300  0.87940  0.32900  Biso   1.000  C
  H22      1.0000 0.91440  0.91090  0.37800  Biso   1.000  H
  N8       1.0000 0.84200  0.73550  0.21200  Biso   1.000  N
  N9       1.0000 0.34200  0.58950  0.22900  Biso   1.000  N
  C24      1.0000 0.27600  0.63310  0.31300  Biso   1.000  C
  H23      1.0000 0.14310  0.63170  0.36180  Biso   1.000  H
  C25      1.0000 0.38900  0.68020  0.33300  Biso   1.000  C
  H24      1.0000 0.33560  0.71000  0.39410  Biso   1.000  H
  C26      1.0000 0.58200  0.68270  0.26000  Biso   1.000  C
  C27      1.0000 0.65700  0.63820  0.17300  Biso   1.000  C
  H25      1.0000 0.78920  0.63860  0.12350  Biso   1.000  H
  C28      1.0000 0.53100  0.59340  0.16100  Biso   1.000  C
  H26      1.0000 0.58090  0.56300  0.10060  Biso   1.000  H
  N10      1.0000 0.68300  0.73490  0.28800  Biso   1.000  N
  O9       1.0000 0.12400  0.98940  0.14870  Biso   1.000  O
  C29      1.0000 0.09100  0.03850  0.12500  Biso   1.000  C
  O10      1.0000 0.99200  0.05840  0.99880  Biso   1.000  O
  C30      1.0000 0.15700  0.08020  0.25920  Biso   1.000  C
  H27      1.0000 0.03060  0.09740  0.30340  Biso   1.000  H
  H28      1.0000 0.23710  0.10860  0.20130  Biso   1.000  H
  C31      1.0000 0.28400  0.05960  0.41190  Biso   1.000  C
  H29      1.0000 0.33900  0.09110  0.47860  Biso   1.000  H
  N11      1.0000 0.45900  0.02660  0.35100  Biso   1.000  N
  H30      1.0000 0.56460  0.02590  0.43140  Biso   1.000  H
  H31      1.0000 0.50900  0.04020  0.25010  Biso   1.000  H
  C32      1.0000 0.14900  0.02500  0.52840  Biso   1.000  C
  O11      1.0000 0.16500  0.97500  0.51850  Biso   1.000  O
  O12      1.0000 0.04300  0.05190  0.62780  Biso   1.000  O
  O13      1.0000 0.63800  0.99190  0.98020  Biso   1.000  O
  C33      1.0000 0.62100  0.94190  0.00900  Biso   1.000  C
  O14      1.0000 0.52900  0.92430  0.14040  Biso   1.000  O
  C34      1.0000 0.65800  0.89560  0.88400  Biso   1.000  C
  H32      1.0000 0.72310  0.86550  0.94860  Biso   1.000  H
  H33      1.0000 0.52210  0.88270  0.84120  Biso   1.000  H
  C35      1.0000 0.78800  0.90770  0.73300  Biso   1.000  C
  H34      1.0000 0.84390  0.87400  0.68120  Biso   1.000  H
  N12      1.0000 0.95900  0.94290  0.80500  Biso   1.000  N
  H35      1.0000 0.07320  0.94120  0.73720  Biso   1.000  H
  H36      1.0000 0.99600  0.93200  0.91420  Biso   1.000  H
  C36      1.0000 0.64800  0.93880  0.60400  Biso   1.000  C
  O15      1.0000 0.66700  0.98840  0.61390  Biso   1.000  O
  O16      1.0000 0.53300  0.91280  0.50690  Biso   1.000  O
