data_image0
_cell_length_a       8.8749
_cell_length_b       7.4104
_cell_length_c       15.2333
_cell_angle_alpha    90
_cell_angle_beta     102.172
_cell_angle_gamma    90

_symmetry_space_group_name_H-M    "P 1"
_symmetry_int_tables_number       1

loop_
  _symmetry_equiv_pos_as_xyz
  'x, y, z'

loop_
  _atom_site_label
  _atom_site_occupancy
  _atom_site_fract_x
  _atom_site_fract_y
  _atom_site_fract_z
  _atom_site_thermal_displace_type
  _atom_site_B_iso_or_equiv
  _atom_site_type_symbol
  Co1      1.0000 0.78969  0.52945  0.10589  Biso   1.000  Co
  P1       1.0000 0.87064  0.88556  0.23356  Biso   1.000  P
  H1       1.0000 0.99600  0.94540  0.28450  Biso   1.000  H
  O1       1.0000 0.81810  0.02850  0.15844  Biso   1.000  O
  H2       1.0000 0.79990  0.12420  0.18120  Biso   1.000  H
  O2       1.0000 0.75340  0.86440  0.29171  Biso   1.000  O
  O3       1.0000 0.91137  0.71650  0.19059  Biso   1.000  O
  O4       1.0000 0.65498  0.35150  0.01205  Biso   1.000  O
  O5       1.0000 0.42537  0.33880  0.91894  Biso   1.000  O
  O6       1.0000 0.99412  0.38780  0.10056  Biso   1.000  O
  O7       1.0000 0.15160  0.34830  0.00600  Biso   1.000  O
  C1       1.0000 0.52300  0.41030  0.98032  Biso   1.000  C
  C2       1.0000 0.04170  0.42450  0.03060  Biso   1.000  C
  Co2      1.0000 0.71031  0.02945  0.39411  Biso   1.000  Co
  P2       1.0000 0.62936  0.38556  0.26644  Biso   1.000  P
  H3       1.0000 0.50400  0.44540  0.21550  Biso   1.000  H
  O8       1.0000 0.68190  0.52850  0.34156  Biso   1.000  O
  H4       1.0000 0.70010  0.62420  0.31880  Biso   1.000  H
  O9       1.0000 0.74660  0.36440  0.20829  Biso   1.000  O
  O10      1.0000 0.58863  0.21650  0.30941  Biso   1.000  O
  O11      1.0000 0.84502  0.85150  0.48795  Biso   1.000  O
  O12      1.0000 0.07463  0.83880  0.58106  Biso   1.000  O
  O13      1.0000 0.50588  0.88780  0.39944  Biso   1.000  O
  O14      1.0000 0.34840  0.84830  0.49400  Biso   1.000  O
  C3       1.0000 0.97700  0.91030  0.51968  Biso   1.000  C
  C4       1.0000 0.45830  0.92450  0.46940  Biso   1.000  C
  Co3      1.0000 0.21031  0.47055  0.89411  Biso   1.000  Co
  P3       1.0000 0.12936  0.11444  0.76644  Biso   1.000  P
  H5       1.0000 0.00400  0.05460  0.71550  Biso   1.000  H
  O15      1.0000 0.18190  0.97150  0.84156  Biso   1.000  O
  H6       1.0000 0.20010  0.87580  0.81880  Biso   1.000  H
  O16      1.0000 0.24660  0.13560  0.70829  Biso   1.000  O
  O17      1.0000 0.08863  0.28350  0.80941  Biso   1.000  O
  O18      1.0000 0.34502  0.64850  0.98795  Biso   1.000  O
  O19      1.0000 0.57463  0.66120  0.08106  Biso   1.000  O
  O20      1.0000 0.00588  0.61220  0.89944  Biso   1.000  O
  O21      1.0000 0.84840  0.65170  0.99400  Biso   1.000  O
  C5       1.0000 0.47700  0.58970  0.01968  Biso   1.000  C
  C6       1.0000 0.95830  0.57550  0.96940  Biso   1.000  C
  Co4      1.0000 0.28969  0.97055  0.60589  Biso   1.000  Co
  P4       1.0000 0.37064  0.61444  0.73356  Biso   1.000  P
  H7       1.0000 0.49600  0.55460  0.78450  Biso   1.000  H
  O22      1.0000 0.31810  0.47150  0.65844  Biso   1.000  O
  H8       1.0000 0.29990  0.37580  0.68120  Biso   1.000  H
  O23      1.0000 0.25340  0.63560  0.79171  Biso   1.000  O
  O24      1.0000 0.41137  0.78350  0.69059  Biso   1.000  O
  O25      1.0000 0.15498  0.14850  0.51205  Biso   1.000  O
  O26      1.0000 0.92537  0.16120  0.41894  Biso   1.000  O
  O27      1.0000 0.49412  0.11220  0.60056  Biso   1.000  O
  O28      1.0000 0.65160  0.15170  0.50600  Biso   1.000  O
  C7       1.0000 0.02300  0.08970  0.48032  Biso   1.000  C
  C8       1.0000 0.54170  0.07550  0.53060  Biso   1.000  C
