data_image0
_cell_length_a       9.0494
_cell_length_b       17.475
_cell_length_c       10.5357
_cell_angle_alpha    90
_cell_angle_beta     106.359
_cell_angle_gamma    90

_symmetry_space_group_name_H-M    "P 1"
_symmetry_int_tables_number       1

loop_
  _symmetry_equiv_pos_as_xyz
  'x, y, z'

loop_
  _atom_site_label
  _atom_site_occupancy
  _atom_site_fract_x
  _atom_site_fract_y
  _atom_site_fract_z
  _atom_site_thermal_displace_type
  _atom_site_B_iso_or_equiv
  _atom_site_type_symbol
  C1       1.0000 0.12040  0.14460  0.23120  Biso   1.000  C
  N1       1.0000 0.08860  0.09290  0.16430  Biso   1.000  N
  C2       1.0000 0.82040  0.14620  0.79050  Biso   1.000  C
  N2       1.0000 0.85590  0.09510  0.85680  Biso   1.000  N
  N3       1.0000 0.21800  0.03040  0.93430  Biso   1.000  N
  H1       1.0000 0.22260  0.08180  0.93250  Biso   1.000  H
  H2       1.0000 0.29960  0.01490  0.00010  Biso   1.000  H
  C3       1.0000 0.24410  0.00410  0.81410  Biso   1.000  C
  H3       1.0000 0.18540  0.95620  0.80180  Biso   1.000  H
  C4       1.0000 0.15760  0.04570  0.69700  Biso   1.000  C
  H4       1.0000 0.18870  0.09900  0.70610  Biso   1.000  H
  H5       1.0000 0.04890  0.04350  0.69170  Biso   1.000  H
  C5       1.0000 0.18100  0.01420  0.56760  Biso   1.000  C
  H6       1.0000 0.13060  0.96480  0.54780  Biso   1.000  H
  H7       1.0000 0.13450  0.04870  0.49520  Biso   1.000  H
  C6       1.0000 0.35000  0.00600  0.58170  Biso   1.000  C
  H8       1.0000 0.40340  0.05360  0.61180  Biso   1.000  H
  H9       1.0000 0.36680  0.99180  0.49800  Biso   1.000  H
  C7       1.0000 0.40400  0.94310  0.68390  Biso   1.000  C
  H10      1.0000 0.50890  0.92830  0.68840  Biso   1.000  H
  H11      1.0000 0.33860  0.89840  0.66000  Biso   1.000  H
  C8       1.0000 0.39680  0.97440  0.81690  Biso   1.000  C
  H12      1.0000 0.42450  0.93400  0.88250  Biso   1.000  H
  H13      1.0000 0.47200  0.01500  0.84400  Biso   1.000  H
  C9       1.0000 0.87960  0.64460  0.76880  Biso   1.000  C
  N4       1.0000 0.91140  0.59290  0.83570  Biso   1.000  N
  C10      1.0000 0.17960  0.64620  0.20950  Biso   1.000  C
  N5       1.0000 0.14410  0.59510  0.14320  Biso   1.000  N
  N6       1.0000 0.78200  0.53040  0.06570  Biso   1.000  N
  H14      1.0000 0.77740  0.58180  0.06750  Biso   1.000  H
  H15      1.0000 0.70040  0.51490  0.99990  Biso   1.000  H
  C11      1.0000 0.75590  0.50410  0.18590  Biso   1.000  C
  H16      1.0000 0.81460  0.45620  0.19820  Biso   1.000  H
  C12      1.0000 0.84240  0.54570  0.30300  Biso   1.000  C
  H17      1.0000 0.81130  0.59900  0.29390  Biso   1.000  H
  H18      1.0000 0.95110  0.54350  0.30830  Biso   1.000  H
  C13      1.0000 0.81900  0.51420  0.43240  Biso   1.000  C
  H19      1.0000 0.86940  0.46480  0.45220  Biso   1.000  H
  H20      1.0000 0.86550  0.54870  0.50480  Biso   1.000  H
  C14      1.0000 0.65000  0.50600  0.41830  Biso   1.000  C
  H21      1.0000 0.59660  0.55360  0.38820  Biso   1.000  H
  H22      1.0000 0.63320  0.49180  0.50200  Biso   1.000  H
  C15      1.0000 0.59600  0.44310  0.31610  Biso   1.000  C
  H23      1.0000 0.49110  0.42830  0.31160  Biso   1.000  H
  H24      1.0000 0.66140  0.39840  0.34000  Biso   1.000  H
  C16      1.0000 0.60320  0.47440  0.18310  Biso   1.000  C
  H25      1.0000 0.57550  0.43400  0.11750  Biso   1.000  H
  H26      1.0000 0.52800  0.51500  0.15600  Biso   1.000  H
  C17      1.0000 0.87960  0.85540  0.76880  Biso   1.000  C
  N7       1.0000 0.91140  0.90710  0.83570  Biso   1.000  N
  C18      1.0000 0.17960  0.85380  0.20950  Biso   1.000  C
  N8       1.0000 0.14410  0.90490  0.14320  Biso   1.000  N
  N9       1.0000 0.78200  0.96960  0.06570  Biso   1.000  N
  H27      1.0000 0.77740  0.91820  0.06750  Biso   1.000  H
  H28      1.0000 0.70040  0.98510  0.99990  Biso   1.000  H
  C19      1.0000 0.75590  0.99590  0.18590  Biso   1.000  C
  H29      1.0000 0.81460  0.04380  0.19820  Biso   1.000  H
  C20      1.0000 0.84240  0.95430  0.30300  Biso   1.000  C
  H30      1.0000 0.81130  0.90100  0.29390  Biso   1.000  H
  H31      1.0000 0.95110  0.95650  0.30830  Biso   1.000  H
  C21      1.0000 0.81900  0.98580  0.43240  Biso   1.000  C
  H32      1.0000 0.86940  0.03520  0.45220  Biso   1.000  H
  H33      1.0000 0.86550  0.95130  0.50480  Biso   1.000  H
  C22      1.0000 0.65000  0.99400  0.41830  Biso   1.000  C
  H34      1.0000 0.59660  0.94640  0.38820  Biso   1.000  H
  H35      1.0000 0.63320  0.00820  0.50200  Biso   1.000  H
  C23      1.0000 0.59600  0.05690  0.31610  Biso   1.000  C
  H36      1.0000 0.49110  0.07170  0.31160  Biso   1.000  H
  H37      1.0000 0.66140  0.10160  0.34000  Biso   1.000  H
  C24      1.0000 0.60320  0.02560  0.18310  Biso   1.000  C
  H38      1.0000 0.57550  0.06600  0.11750  Biso   1.000  H
  H39      1.0000 0.52800  0.98500  0.15600  Biso   1.000  H
  C25      1.0000 0.12040  0.35540  0.23120  Biso   1.000  C
  N10      1.0000 0.08860  0.40710  0.16430  Biso   1.000  N
  C26      1.0000 0.82040  0.35380  0.79050  Biso   1.000  C
  N11      1.0000 0.85590  0.40490  0.85680  Biso   1.000  N
  N12      1.0000 0.21800  0.46960  0.93430  Biso   1.000  N
  H40      1.0000 0.22260  0.41820  0.93250  Biso   1.000  H
  H41      1.0000 0.29960  0.48510  0.00010  Biso   1.000  H
  C27      1.0000 0.24410  0.49590  0.81410  Biso   1.000  C
  H42      1.0000 0.18540  0.54380  0.80180  Biso   1.000  H
  C28      1.0000 0.15760  0.45430  0.69700  Biso   1.000  C
  H43      1.0000 0.18870  0.40100  0.70610  Biso   1.000  H
  H44      1.0000 0.04890  0.45650  0.69170  Biso   1.000  H
  C29      1.0000 0.18100  0.48580  0.56760  Biso   1.000  C
  H45      1.0000 0.13060  0.53520  0.54780  Biso   1.000  H
  H46      1.0000 0.13450  0.45130  0.49520  Biso   1.000  H
  C30      1.0000 0.35000  0.49400  0.58170  Biso   1.000  C
  H47      1.0000 0.40340  0.44640  0.61180  Biso   1.000  H
  H48      1.0000 0.36680  0.50820  0.49800  Biso   1.000  H
  C31      1.0000 0.40400  0.55690  0.68390  Biso   1.000  C
  H49      1.0000 0.50890  0.57170  0.68840  Biso   1.000  H
  H50      1.0000 0.33860  0.60160  0.66000  Biso   1.000  H
  C32      1.0000 0.39680  0.52560  0.81690  Biso   1.000  C
  H51      1.0000 0.42450  0.56600  0.88250  Biso   1.000  H
  H52      1.0000 0.47200  0.48500  0.84400  Biso   1.000  H
  Cd1      1.0000 0.00000  0.00000  0.00000  Biso   1.000  Cd
  Cd2      1.0000 0.00000  0.50000  0.00000  Biso   1.000  Cd
  Cd3      1.0000 0.16794  0.25000  0.34898  Biso   1.000  Cd
  Cd4      1.0000 0.77230  0.25000  0.66831  Biso   1.000  Cd
  C33      1.0000 0.40890  0.25000  0.46890  Biso   1.000  C
  N13      1.0000 0.53310  0.25000  0.53200  Biso   1.000  N
  C34      1.0000 0.02120  0.25000  0.48290  Biso   1.000  C
  N14      1.0000 0.93720  0.25000  0.54160  Biso   1.000  N
  Cd5      1.0000 0.83206  0.75000  0.65102  Biso   1.000  Cd
  Cd6      1.0000 0.22770  0.75000  0.33169  Biso   1.000  Cd
  C35      1.0000 0.59110  0.75000  0.53110  Biso   1.000  C
  N15      1.0000 0.46690  0.75000  0.46800  Biso   1.000  N
  C36      1.0000 0.97880  0.75000  0.51710  Biso   1.000  C
  N16      1.0000 0.06280  0.75000  0.45840  Biso   1.000  N
