data_image0
_cell_length_a       19.685
_cell_length_b       14.332
_cell_length_c       16.93
_cell_angle_alpha    90
_cell_angle_beta     121.205
_cell_angle_gamma    90

_symmetry_space_group_name_H-M    "P 1"
_symmetry_int_tables_number       1

loop_
  _symmetry_equiv_pos_as_xyz
  'x, y, z'

loop_
  _atom_site_label
  _atom_site_occupancy
  _atom_site_fract_x
  _atom_site_fract_y
  _atom_site_fract_z
  _atom_site_thermal_displace_type
  _atom_site_B_iso_or_equiv
  _atom_site_type_symbol
  Zn1      1.0000 0.24322  0.43239  0.36807  Biso   1.000  Zn
  N1       1.0000 0.24330  0.49470  0.25610  Biso   1.000  N
  N2       1.0000 0.03530  0.45560  0.37280  Biso   1.000  N
  N3       1.0000 0.14440  0.41840  0.37610  Biso   1.000  N
  N4       1.0000 0.47240  0.48560  0.58910  Biso   1.000  N
  N5       1.0000 0.35700  0.43290  0.47930  Biso   1.000  N
  O1       1.0000 0.23940  0.57950  0.39260  Biso   1.000  O
  O2       1.0000 0.23610  0.71920  0.33570  Biso   1.000  O
  O3       1.0000 0.35650  0.76440  0.28580  Biso   1.000  O
  O4       1.0000 0.24130  0.79600  0.15500  Biso   1.000  O
  C1       1.0000 0.24200  0.63520  0.33640  Biso   1.000  C
  C2       1.0000 0.29030  0.74120  0.21730  Biso   1.000  C
  C3       1.0000 0.25080  0.58490  0.26290  Biso   1.000  C
  C4       1.0000 0.26880  0.63910  0.20310  Biso   1.000  C
  C5       1.0000 0.26690  0.59030  0.13160  Biso   1.000  C
  H1       1.0000 0.27410  0.62190  0.08850  Biso   1.000  H
  C6       1.0000 0.25450  0.49600  0.12340  Biso   1.000  C
  H2       1.0000 0.25360  0.46460  0.07470  Biso   1.000  H
  C7       1.0000 0.24360  0.44700  0.18490  Biso   1.000  C
  H3       1.0000 0.23650  0.38270  0.17930  Biso   1.000  H
  C8       1.0000 0.10050  0.48770  0.37750  Biso   1.000  C
  H4       1.0000 0.11370  0.55050  0.38140  Biso   1.000  H
  C9       1.0000 0.10490  0.33920  0.37150  Biso   1.000  C
  H5       1.0000 0.12160  0.27900  0.36920  Biso   1.000  H
  C10      1.0000 0.03800  0.36050  0.37070  Biso   1.000  C
  H6       1.0000 0.00110  0.31890  0.36910  Biso   1.000  H
  C11      1.0000 0.97390  0.51380  0.37300  Biso   1.000  C
  H7       1.0000 0.92330  0.50110  0.31720  Biso   1.000  H
  H8       1.0000 0.98660  0.57890  0.37140  Biso   1.000  H
  C12      1.0000 0.96540  0.49830  0.45510  Biso   1.000  C
  H9       1.0000 0.92840  0.54450  0.45280  Biso   1.000  H
  H10      1.0000 0.94090  0.43760  0.44800  Biso   1.000  H
  C13      1.0000 0.39680  0.50700  0.52630  Biso   1.000  C
  H11      1.0000 0.37530  0.56660  0.51710  Biso   1.000  H
  C14      1.0000 0.40970  0.36230  0.51450  Biso   1.000  C
  H12      1.0000 0.39890  0.30110  0.49330  Biso   1.000  H
  C15      1.0000 0.48030  0.39260  0.58470  Biso   1.000  C
  H13      1.0000 0.52520  0.35680  0.62230  Biso   1.000  H
  C16      1.0000 0.53030  0.55080  0.65730  Biso   1.000  C
  H14      1.0000 0.51310  0.61430  0.63680  Biso   1.000  H
  H15      1.0000 0.58130  0.54180  0.66250  Biso   1.000  H
  C17      1.0000 0.53940  0.53650  0.75150  Biso   1.000  C
  H16      1.0000 0.57280  0.58570  0.79280  Biso   1.000  H
  H17      1.0000 0.56610  0.47750  0.77690  Biso   1.000  H
  Zn2      1.0000 0.74322  0.93239  0.36807  Biso   1.000  Zn
  N6       1.0000 0.74330  0.99470  0.25610  Biso   1.000  N
  N7       1.0000 0.53530  0.95560  0.37280  Biso   1.000  N
  N8       1.0000 0.64440  0.91840  0.37610  Biso   1.000  N
  N9       1.0000 0.97240  0.98560  0.58910  Biso   1.000  N
  N10      1.0000 0.85700  0.93290  0.47930  Biso   1.000  N
  O5       1.0000 0.73940  0.07950  0.39260  Biso   1.000  O
  O6       1.0000 0.73610  0.21920  0.33570  Biso   1.000  O
  O7       1.0000 0.85650  0.26440  0.28580  Biso   1.000  O
  O8       1.0000 0.74130  0.29600  0.15500  Biso   1.000  O
  C18      1.0000 0.74200  0.13520  0.33640  Biso   1.000  C
  C19      1.0000 0.79030  0.24120  0.21730  Biso   1.000  C
  C20      1.0000 0.75080  0.08490  0.26290  Biso   1.000  C
  C21      1.0000 0.76880  0.13910  0.20310  Biso   1.000  C
  C22      1.0000 0.76690  0.09030  0.13160  Biso   1.000  C
  H18      1.0000 0.77410  0.12190  0.08850  Biso   1.000  H
  C23      1.0000 0.75450  0.99600  0.12340  Biso   1.000  C
  H19      1.0000 0.75360  0.96460  0.07470  Biso   1.000  H
  C24      1.0000 0.74360  0.94700  0.18490  Biso   1.000  C
  H20      1.0000 0.73650  0.88270  0.17930  Biso   1.000  H
  C25      1.0000 0.60050  0.98770  0.37750  Biso   1.000  C
  H21      1.0000 0.61370  0.05050  0.38140  Biso   1.000  H
  C26      1.0000 0.60490  0.83920  0.37150  Biso   1.000  C
  H22      1.0000 0.62160  0.77900  0.36920  Biso   1.000  H
  C27      1.0000 0.53800  0.86050  0.37070  Biso   1.000  C
  H23      1.0000 0.50110  0.81890  0.36910  Biso   1.000  H
  C28      1.0000 0.47390  0.01380  0.37300  Biso   1.000  C
  H24      1.0000 0.42330  0.00110  0.31720  Biso   1.000  H
  H25      1.0000 0.48660  0.07890  0.37140  Biso   1.000  H
  C29      1.0000 0.46540  0.99830  0.45510  Biso   1.000  C
  H26      1.0000 0.42840  0.04450  0.45280  Biso   1.000  H
  H27      1.0000 0.44090  0.93760  0.44800  Biso   1.000  H
  C30      1.0000 0.89680  0.00700  0.52630  Biso   1.000  C
  H28      1.0000 0.87530  0.06660  0.51710  Biso   1.000  H
  C31      1.0000 0.90970  0.86230  0.51450  Biso   1.000  C
  H29      1.0000 0.89890  0.80110  0.49330  Biso   1.000  H
  C32      1.0000 0.98030  0.89260  0.58470  Biso   1.000  C
  H30      1.0000 0.02520  0.85680  0.62230  Biso   1.000  H
  C33      1.0000 0.03030  0.05080  0.65730  Biso   1.000  C
  H31      1.0000 0.01310  0.11430  0.63680  Biso   1.000  H
  H32      1.0000 0.08130  0.04180  0.66250  Biso   1.000  H
  C34      1.0000 0.03940  0.03650  0.75150  Biso   1.000  C
  H33      1.0000 0.07280  0.08570  0.79280  Biso   1.000  H
  H34      1.0000 0.06610  0.97750  0.77690  Biso   1.000  H
  Zn3      1.0000 0.75678  0.43239  0.13193  Biso   1.000  Zn
  N11      1.0000 0.75670  0.49470  0.24390  Biso   1.000  N
  N12      1.0000 0.96470  0.45560  0.12720  Biso   1.000  N
  N13      1.0000 0.85560  0.41840  0.12390  Biso   1.000  N
  N14      1.0000 0.52760  0.48560  0.91090  Biso   1.000  N
  N15      1.0000 0.64300  0.43290  0.02070  Biso   1.000  N
  O9       1.0000 0.76060  0.57950  0.10740  Biso   1.000  O
  O10      1.0000 0.76390  0.71920  0.16430  Biso   1.000  O
  O11      1.0000 0.64350  0.76440  0.21420  Biso   1.000  O
  O12      1.0000 0.75870  0.79600  0.34500  Biso   1.000  O
  C35      1.0000 0.75800  0.63520  0.16360  Biso   1.000  C
  C36      1.0000 0.70970  0.74120  0.28270  Biso   1.000  C
  C37      1.0000 0.74920  0.58490  0.23710  Biso   1.000  C
  C38      1.0000 0.73120  0.63910  0.29690  Biso   1.000  C
  C39      1.0000 0.73310  0.59030  0.36840  Biso   1.000  C
  H35      1.0000 0.72590  0.62190  0.41150  Biso   1.000  H
  C40      1.0000 0.74550  0.49600  0.37660  Biso   1.000  C
  H36      1.0000 0.74640  0.46460  0.42530  Biso   1.000  H
  C41      1.0000 0.75640  0.44700  0.31510  Biso   1.000  C
  H37      1.0000 0.76350  0.38270  0.32070  Biso   1.000  H
  C42      1.0000 0.89950  0.48770  0.12250  Biso   1.000  C
  H38      1.0000 0.88630  0.55050  0.11860  Biso   1.000  H
  C43      1.0000 0.89510  0.33920  0.12850  Biso   1.000  C
  H39      1.0000 0.87840  0.27900  0.13080  Biso   1.000  H
  C44      1.0000 0.96200  0.36050  0.12930  Biso   1.000  C
  H40      1.0000 0.99890  0.31890  0.13090  Biso   1.000  H
  C45      1.0000 0.02610  0.51380  0.12700  Biso   1.000  C
  H41      1.0000 0.07670  0.50110  0.18280  Biso   1.000  H
  H42      1.0000 0.01340  0.57890  0.12860  Biso   1.000  H
  C46      1.0000 0.03460  0.49830  0.04490  Biso   1.000  C
  H43      1.0000 0.07160  0.54450  0.04720  Biso   1.000  H
  H44      1.0000 0.05910  0.43760  0.05200  Biso   1.000  H
  C47      1.0000 0.60320  0.50700  0.97370  Biso   1.000  C
  H45      1.0000 0.62470  0.56660  0.98290  Biso   1.000  H
  C48      1.0000 0.59030  0.36230  0.98550  Biso   1.000  C
  H46      1.0000 0.60110  0.30110  0.00670  Biso   1.000  H
  C49      1.0000 0.51970  0.39260  0.91530  Biso   1.000  C
  H47      1.0000 0.47480  0.35680  0.87770  Biso   1.000  H
  C50      1.0000 0.46970  0.55080  0.84270  Biso   1.000  C
  H48      1.0000 0.48690  0.61430  0.86320  Biso   1.000  H
  H49      1.0000 0.41870  0.54180  0.83750  Biso   1.000  H
  C51      1.0000 0.46060  0.53650  0.74850  Biso   1.000  C
  H50      1.0000 0.42720  0.58570  0.70720  Biso   1.000  H
  H51      1.0000 0.43390  0.47750  0.72310  Biso   1.000  H
  Zn4      1.0000 0.25678  0.93239  0.13193  Biso   1.000  Zn
  N16      1.0000 0.25670  0.99470  0.24390  Biso   1.000  N
  N17      1.0000 0.46470  0.95560  0.12720  Biso   1.000  N
  N18      1.0000 0.35560  0.91840  0.12390  Biso   1.000  N
  N19      1.0000 0.02760  0.98560  0.91090  Biso   1.000  N
  N20      1.0000 0.14300  0.93290  0.02070  Biso   1.000  N
  O13      1.0000 0.26060  0.07950  0.10740  Biso   1.000  O
  O14      1.0000 0.26390  0.21920  0.16430  Biso   1.000  O
  O15      1.0000 0.14350  0.26440  0.21420  Biso   1.000  O
  O16      1.0000 0.25870  0.29600  0.34500  Biso   1.000  O
  C52      1.0000 0.25800  0.13520  0.16360  Biso   1.000  C
  C53      1.0000 0.20970  0.24120  0.28270  Biso   1.000  C
  C54      1.0000 0.24920  0.08490  0.23710  Biso   1.000  C
  C55      1.0000 0.23120  0.13910  0.29690  Biso   1.000  C
  C56      1.0000 0.23310  0.09030  0.36840  Biso   1.000  C
  H52      1.0000 0.22590  0.12190  0.41150  Biso   1.000  H
  C57      1.0000 0.24550  0.99600  0.37660  Biso   1.000  C
  H53      1.0000 0.24640  0.96460  0.42530  Biso   1.000  H
  C58      1.0000 0.25640  0.94700  0.31510  Biso   1.000  C
  H54      1.0000 0.26350  0.88270  0.32070  Biso   1.000  H
  C59      1.0000 0.39950  0.98770  0.12250  Biso   1.000  C
  H55      1.0000 0.38630  0.05050  0.11860  Biso   1.000  H
  C60      1.0000 0.39510  0.83920  0.12850  Biso   1.000  C
  H56      1.0000 0.37840  0.77900  0.13080  Biso   1.000  H
  C61      1.0000 0.46200  0.86050  0.12930  Biso   1.000  C
  H57      1.0000 0.49890  0.81890  0.13090  Biso   1.000  H
  C62      1.0000 0.52610  0.01380  0.12700  Biso   1.000  C
  H58      1.0000 0.57670  0.00110  0.18280  Biso   1.000  H
  H59      1.0000 0.51340  0.07890  0.12860  Biso   1.000  H
  C63      1.0000 0.53460  0.99830  0.04490  Biso   1.000  C
  H60      1.0000 0.57160  0.04450  0.04720  Biso   1.000  H
  H61      1.0000 0.55910  0.93760  0.05200  Biso   1.000  H
  C64      1.0000 0.10320  0.00700  0.97370  Biso   1.000  C
  H62      1.0000 0.12470  0.06660  0.98290  Biso   1.000  H
  C65      1.0000 0.09030  0.86230  0.98550  Biso   1.000  C
  H63      1.0000 0.10110  0.80110  0.00670  Biso   1.000  H
  C66      1.0000 0.01970  0.89260  0.91530  Biso   1.000  C
  H64      1.0000 0.97480  0.85680  0.87770  Biso   1.000  H
  C67      1.0000 0.96970  0.05080  0.84270  Biso   1.000  C
  H65      1.0000 0.98690  0.11430  0.86320  Biso   1.000  H
  H66      1.0000 0.91870  0.04180  0.83750  Biso   1.000  H
  C68      1.0000 0.96060  0.03650  0.74850  Biso   1.000  C
  H67      1.0000 0.92720  0.08570  0.70720  Biso   1.000  H
  H68      1.0000 0.93390  0.97750  0.72310  Biso   1.000  H
  Zn5      1.0000 0.75678  0.56761  0.63193  Biso   1.000  Zn
  N21      1.0000 0.75670  0.50530  0.74390  Biso   1.000  N
  N22      1.0000 0.96470  0.54440  0.62720  Biso   1.000  N
  N23      1.0000 0.85560  0.58160  0.62390  Biso   1.000  N
  N24      1.0000 0.52760  0.51440  0.41090  Biso   1.000  N
  N25      1.0000 0.64300  0.56710  0.52070  Biso   1.000  N
  O17      1.0000 0.76060  0.42050  0.60740  Biso   1.000  O
  O18      1.0000 0.76390  0.28080  0.66430  Biso   1.000  O
  O19      1.0000 0.64350  0.23560  0.71420  Biso   1.000  O
  O20      1.0000 0.75870  0.20400  0.84500  Biso   1.000  O
  C69      1.0000 0.75800  0.36480  0.66360  Biso   1.000  C
  C70      1.0000 0.70970  0.25880  0.78270  Biso   1.000  C
  C71      1.0000 0.74920  0.41510  0.73710  Biso   1.000  C
  C72      1.0000 0.73120  0.36090  0.79690  Biso   1.000  C
  C73      1.0000 0.73310  0.40970  0.86840  Biso   1.000  C
  H69      1.0000 0.72590  0.37810  0.91150  Biso   1.000  H
  C74      1.0000 0.74550  0.50400  0.87660  Biso   1.000  C
  H70      1.0000 0.74640  0.53540  0.92530  Biso   1.000  H
  C75      1.0000 0.75640  0.55300  0.81510  Biso   1.000  C
  H71      1.0000 0.76350  0.61730  0.82070  Biso   1.000  H
  C76      1.0000 0.89950  0.51230  0.62250  Biso   1.000  C
  H72      1.0000 0.88630  0.44950  0.61860  Biso   1.000  H
  C77      1.0000 0.89510  0.66080  0.62850  Biso   1.000  C
  H73      1.0000 0.87840  0.72100  0.63080  Biso   1.000  H
  C78      1.0000 0.96200  0.63950  0.62930  Biso   1.000  C
  H74      1.0000 0.99890  0.68110  0.63090  Biso   1.000  H
  C79      1.0000 0.02610  0.48620  0.62700  Biso   1.000  C
  H75      1.0000 0.07670  0.49890  0.68280  Biso   1.000  H
  H76      1.0000 0.01340  0.42110  0.62860  Biso   1.000  H
  C80      1.0000 0.03460  0.50170  0.54490  Biso   1.000  C
  H77      1.0000 0.07160  0.45550  0.54720  Biso   1.000  H
  H78      1.0000 0.05910  0.56240  0.55200  Biso   1.000  H
  C81      1.0000 0.60320  0.49300  0.47370  Biso   1.000  C
  H79      1.0000 0.62470  0.43340  0.48290  Biso   1.000  H
  C82      1.0000 0.59030  0.63770  0.48550  Biso   1.000  C
  H80      1.0000 0.60110  0.69890  0.50670  Biso   1.000  H
  C83      1.0000 0.51970  0.60740  0.41530  Biso   1.000  C
  H81      1.0000 0.47480  0.64320  0.37770  Biso   1.000  H
  C84      1.0000 0.46970  0.44920  0.34270  Biso   1.000  C
  H82      1.0000 0.48690  0.38570  0.36320  Biso   1.000  H
  H83      1.0000 0.41870  0.45820  0.33750  Biso   1.000  H
  C85      1.0000 0.46060  0.46350  0.24850  Biso   1.000  C
  H84      1.0000 0.42720  0.41430  0.20720  Biso   1.000  H
  H85      1.0000 0.43390  0.52250  0.22310  Biso   1.000  H
  Zn6      1.0000 0.25678  0.06761  0.63193  Biso   1.000  Zn
  N26      1.0000 0.25670  0.00530  0.74390  Biso   1.000  N
  N27      1.0000 0.46470  0.04440  0.62720  Biso   1.000  N
  N28      1.0000 0.35560  0.08160  0.62390  Biso   1.000  N
  N29      1.0000 0.02760  0.01440  0.41090  Biso   1.000  N
  N30      1.0000 0.14300  0.06710  0.52070  Biso   1.000  N
  O21      1.0000 0.26060  0.92050  0.60740  Biso   1.000  O
  O22      1.0000 0.26390  0.78080  0.66430  Biso   1.000  O
  O23      1.0000 0.14350  0.73560  0.71420  Biso   1.000  O
  O24      1.0000 0.25870  0.70400  0.84500  Biso   1.000  O
  C86      1.0000 0.25800  0.86480  0.66360  Biso   1.000  C
  C87      1.0000 0.20970  0.75880  0.78270  Biso   1.000  C
  C88      1.0000 0.24920  0.91510  0.73710  Biso   1.000  C
  C89      1.0000 0.23120  0.86090  0.79690  Biso   1.000  C
  C90      1.0000 0.23310  0.90970  0.86840  Biso   1.000  C
  H86      1.0000 0.22590  0.87810  0.91150  Biso   1.000  H
  C91      1.0000 0.24550  0.00400  0.87660  Biso   1.000  C
  H87      1.0000 0.24640  0.03540  0.92530  Biso   1.000  H
  C92      1.0000 0.25640  0.05300  0.81510  Biso   1.000  C
  H88      1.0000 0.26350  0.11730  0.82070  Biso   1.000  H
  C93      1.0000 0.39950  0.01230  0.62250  Biso   1.000  C
  H89      1.0000 0.38630  0.94950  0.61860  Biso   1.000  H
  C94      1.0000 0.39510  0.16080  0.62850  Biso   1.000  C
  H90      1.0000 0.37840  0.22100  0.63080  Biso   1.000  H
  C95      1.0000 0.46200  0.13950  0.62930  Biso   1.000  C
  H91      1.0000 0.49890  0.18110  0.63090  Biso   1.000  H
  C96      1.0000 0.52610  0.98620  0.62700  Biso   1.000  C
  H92      1.0000 0.57670  0.99890  0.68280  Biso   1.000  H
  H93      1.0000 0.51340  0.92110  0.62860  Biso   1.000  H
  C97      1.0000 0.53460  0.00170  0.54490  Biso   1.000  C
  H94      1.0000 0.57160  0.95550  0.54720  Biso   1.000  H
  H95      1.0000 0.55910  0.06240  0.55200  Biso   1.000  H
  C98      1.0000 0.10320  0.99300  0.47370  Biso   1.000  C
  H96      1.0000 0.12470  0.93340  0.48290  Biso   1.000  H
  C99      1.0000 0.09030  0.13770  0.48550  Biso   1.000  C
  H97      1.0000 0.10110  0.19890  0.50670  Biso   1.000  H
  C100     1.0000 0.01970  0.10740  0.41530  Biso   1.000  C
  H98      1.0000 0.97480  0.14320  0.37770  Biso   1.000  H
  C101     1.0000 0.96970  0.94920  0.34270  Biso   1.000  C
  H99      1.0000 0.98690  0.88570  0.36320  Biso   1.000  H
  H100     1.0000 0.91870  0.95820  0.33750  Biso   1.000  H
  C102     1.0000 0.96060  0.96350  0.24850  Biso   1.000  C
  H101     1.0000 0.92720  0.91430  0.20720  Biso   1.000  H
  H102     1.0000 0.93390  0.02250  0.22310  Biso   1.000  H
  Zn7      1.0000 0.24322  0.56761  0.86807  Biso   1.000  Zn
  N31      1.0000 0.24330  0.50530  0.75610  Biso   1.000  N
  N32      1.0000 0.03530  0.54440  0.87280  Biso   1.000  N
  N33      1.0000 0.14440  0.58160  0.87610  Biso   1.000  N
  N34      1.0000 0.47240  0.51440  0.08910  Biso   1.000  N
  N35      1.0000 0.35700  0.56710  0.97930  Biso   1.000  N
  O25      1.0000 0.23940  0.42050  0.89260  Biso   1.000  O
  O26      1.0000 0.23610  0.28080  0.83570  Biso   1.000  O
  O27      1.0000 0.35650  0.23560  0.78580  Biso   1.000  O
  O28      1.0000 0.24130  0.20400  0.65500  Biso   1.000  O
  C103     1.0000 0.24200  0.36480  0.83640  Biso   1.000  C
  C104     1.0000 0.29030  0.25880  0.71730  Biso   1.000  C
  C105     1.0000 0.25080  0.41510  0.76290  Biso   1.000  C
  C106     1.0000 0.26880  0.36090  0.70310  Biso   1.000  C
  C107     1.0000 0.26690  0.40970  0.63160  Biso   1.000  C
  H103     1.0000 0.27410  0.37810  0.58850  Biso   1.000  H
  C108     1.0000 0.25450  0.50400  0.62340  Biso   1.000  C
  H104     1.0000 0.25360  0.53540  0.57470  Biso   1.000  H
  C109     1.0000 0.24360  0.55300  0.68490  Biso   1.000  C
  H105     1.0000 0.23650  0.61730  0.67930  Biso   1.000  H
  C110     1.0000 0.10050  0.51230  0.87750  Biso   1.000  C
  H106     1.0000 0.11370  0.44950  0.88140  Biso   1.000  H
  C111     1.0000 0.10490  0.66080  0.87150  Biso   1.000  C
  H107     1.0000 0.12160  0.72100  0.86920  Biso   1.000  H
  C112     1.0000 0.03800  0.63950  0.87070  Biso   1.000  C
  H108     1.0000 0.00110  0.68110  0.86910  Biso   1.000  H
  C113     1.0000 0.97390  0.48620  0.87300  Biso   1.000  C
  H109     1.0000 0.92330  0.49890  0.81720  Biso   1.000  H
  H110     1.0000 0.98660  0.42110  0.87140  Biso   1.000  H
  C114     1.0000 0.96540  0.50170  0.95510  Biso   1.000  C
  H111     1.0000 0.92840  0.45550  0.95280  Biso   1.000  H
  H112     1.0000 0.94090  0.56240  0.94800  Biso   1.000  H
  C115     1.0000 0.39680  0.49300  0.02630  Biso   1.000  C
  H113     1.0000 0.37530  0.43340  0.01710  Biso   1.000  H
  C116     1.0000 0.40970  0.63770  0.01450  Biso   1.000  C
  H114     1.0000 0.39890  0.69890  0.99330  Biso   1.000  H
  C117     1.0000 0.48030  0.60740  0.08470  Biso   1.000  C
  H115     1.0000 0.52520  0.64320  0.12230  Biso   1.000  H
  C118     1.0000 0.53030  0.44920  0.15730  Biso   1.000  C
  H116     1.0000 0.51310  0.38570  0.13680  Biso   1.000  H
  H117     1.0000 0.58130  0.45820  0.16250  Biso   1.000  H
  C119     1.0000 0.53940  0.46350  0.25150  Biso   1.000  C
  H118     1.0000 0.57280  0.41430  0.29280  Biso   1.000  H
  H119     1.0000 0.56610  0.52250  0.27690  Biso   1.000  H
  Zn8      1.0000 0.74322  0.06761  0.86807  Biso   1.000  Zn
  N36      1.0000 0.74330  0.00530  0.75610  Biso   1.000  N
  N37      1.0000 0.53530  0.04440  0.87280  Biso   1.000  N
  N38      1.0000 0.64440  0.08160  0.87610  Biso   1.000  N
  N39      1.0000 0.97240  0.01440  0.08910  Biso   1.000  N
  N40      1.0000 0.85700  0.06710  0.97930  Biso   1.000  N
  O29      1.0000 0.73940  0.92050  0.89260  Biso   1.000  O
  O30      1.0000 0.73610  0.78080  0.83570  Biso   1.000  O
  O31      1.0000 0.85650  0.73560  0.78580  Biso   1.000  O
  O32      1.0000 0.74130  0.70400  0.65500  Biso   1.000  O
  C120     1.0000 0.74200  0.86480  0.83640  Biso   1.000  C
  C121     1.0000 0.79030  0.75880  0.71730  Biso   1.000  C
  C122     1.0000 0.75080  0.91510  0.76290  Biso   1.000  C
  C123     1.0000 0.76880  0.86090  0.70310  Biso   1.000  C
  C124     1.0000 0.76690  0.90970  0.63160  Biso   1.000  C
  H120     1.0000 0.77410  0.87810  0.58850  Biso   1.000  H
  C125     1.0000 0.75450  0.00400  0.62340  Biso   1.000  C
  H121     1.0000 0.75360  0.03540  0.57470  Biso   1.000  H
  C126     1.0000 0.74360  0.05300  0.68490  Biso   1.000  C
  H122     1.0000 0.73650  0.11730  0.67930  Biso   1.000  H
  C127     1.0000 0.60050  0.01230  0.87750  Biso   1.000  C
  H123     1.0000 0.61370  0.94950  0.88140  Biso   1.000  H
  C128     1.0000 0.60490  0.16080  0.87150  Biso   1.000  C
  H124     1.0000 0.62160  0.22100  0.86920  Biso   1.000  H
  C129     1.0000 0.53800  0.13950  0.87070  Biso   1.000  C
  H125     1.0000 0.50110  0.18110  0.86910  Biso   1.000  H
  C130     1.0000 0.47390  0.98620  0.87300  Biso   1.000  C
  H126     1.0000 0.42330  0.99890  0.81720  Biso   1.000  H
  H127     1.0000 0.48660  0.92110  0.87140  Biso   1.000  H
  C131     1.0000 0.46540  0.00170  0.95510  Biso   1.000  C
  H128     1.0000 0.42840  0.95550  0.95280  Biso   1.000  H
  H129     1.0000 0.44090  0.06240  0.94800  Biso   1.000  H
  C132     1.0000 0.89680  0.99300  0.02630  Biso   1.000  C
  H130     1.0000 0.87530  0.93340  0.01710  Biso   1.000  H
  C133     1.0000 0.90970  0.13770  0.01450  Biso   1.000  C
  H131     1.0000 0.89890  0.19890  0.99330  Biso   1.000  H
  C134     1.0000 0.98030  0.10740  0.08470  Biso   1.000  C
  H132     1.0000 0.02520  0.14320  0.12230  Biso   1.000  H
  C135     1.0000 0.03030  0.94920  0.15730  Biso   1.000  C
  H133     1.0000 0.01310  0.88570  0.13680  Biso   1.000  H
  H134     1.0000 0.08130  0.95820  0.16250  Biso   1.000  H
  C136     1.0000 0.03940  0.96350  0.25150  Biso   1.000  C
  H135     1.0000 0.07280  0.91430  0.29280  Biso   1.000  H
  H136     1.0000 0.06610  0.02250  0.27690  Biso   1.000  H
