data_image0
_cell_length_a       11.124
_cell_length_b       15.709
_cell_length_c       11.337
_cell_angle_alpha    90
_cell_angle_beta     106.48
_cell_angle_gamma    90

_symmetry_space_group_name_H-M    "P 1"
_symmetry_int_tables_number       1

loop_
  _symmetry_equiv_pos_as_xyz
  'x, y, z'

loop_
  _atom_site_label
  _atom_site_occupancy
  _atom_site_fract_x
  _atom_site_fract_y
  _atom_site_fract_z
  _atom_site_thermal_displace_type
  _atom_site_B_iso_or_equiv
  _atom_site_type_symbol
  Cu1      1.0000 0.76105  0.12696  0.03342  Biso   1.000  Cu
  N1       1.0000 0.75970  0.20714  0.89000  Biso   1.000  N
  N2       1.0000 0.76540  0.30509  0.68550  Biso   1.000  N
  N3       1.0000 0.90300  0.04938  0.02040  Biso   1.000  N
  N4       1.0000 0.60420  0.05176  0.00940  Biso   1.000  N
  C1       1.0000 0.84850  0.26390  0.89380  Biso   1.000  C
  H1       1.0000 0.91160  0.27130  0.96700  Biso   1.000  H
  C2       1.0000 0.67420  0.20080  0.78110  Biso   1.000  C
  H2       1.0000 0.60960  0.16160  0.77260  Biso   1.000  H
  C3       1.0000 0.85100  0.31220  0.79370  Biso   1.000  C
  H3       1.0000 0.91540  0.35160  0.80200  Biso   1.000  H
  C4       1.0000 0.67650  0.24880  0.68150  Biso   1.000  C
  H4       1.0000 0.61320  0.24160  0.60840  Biso   1.000  H
  C5       1.0000 0.02400  0.06680  0.07460  Biso   1.000  C
  H5       1.0000 0.04420  0.11320  0.12730  Biso   1.000  H
  C6       1.0000 0.88110  0.98160  0.94510  Biso   1.000  C
  H6       1.0000 0.79860  0.96700  0.90490  Biso   1.000  H
  C7       1.0000 0.61460  0.97210  0.05270  Biso   1.000  C
  H7       1.0000 0.69410  0.95050  0.09060  Biso   1.000  H
  C8       1.0000 0.48770  0.07880  0.95700  Biso   1.000  C
  H8       1.0000 0.47550  0.13390  0.92600  Biso   1.000  H
  Cu2      1.0000 0.23895  0.62696  0.46658  Biso   1.000  Cu
  N5       1.0000 0.24030  0.70714  0.61000  Biso   1.000  N
  N6       1.0000 0.23460  0.80509  0.81450  Biso   1.000  N
  N7       1.0000 0.09700  0.54938  0.47960  Biso   1.000  N
  N8       1.0000 0.39580  0.55176  0.49060  Biso   1.000  N
  C9       1.0000 0.15150  0.76390  0.60620  Biso   1.000  C
  H9       1.0000 0.08840  0.77130  0.53300  Biso   1.000  H
  C10      1.0000 0.32580  0.70080  0.71890  Biso   1.000  C
  H10      1.0000 0.39040  0.66160  0.72740  Biso   1.000  H
  C11      1.0000 0.14900  0.81220  0.70630  Biso   1.000  C
  H11      1.0000 0.08460  0.85160  0.69800  Biso   1.000  H
  C12      1.0000 0.32350  0.74880  0.81850  Biso   1.000  C
  H12      1.0000 0.38680  0.74160  0.89160  Biso   1.000  H
  C13      1.0000 0.97600  0.56680  0.42540  Biso   1.000  C
  H13      1.0000 0.95580  0.61320  0.37270  Biso   1.000  H
  C14      1.0000 0.11890  0.48160  0.55490  Biso   1.000  C
  H14      1.0000 0.20140  0.46700  0.59510  Biso   1.000  H
  C15      1.0000 0.38540  0.47210  0.44730  Biso   1.000  C
  H15      1.0000 0.30590  0.45050  0.40940  Biso   1.000  H
  C16      1.0000 0.51230  0.57880  0.54300  Biso   1.000  C
  H16      1.0000 0.52450  0.63390  0.57400  Biso   1.000  H
  Cu3      1.0000 0.23895  0.87304  0.96658  Biso   1.000  Cu
  N9       1.0000 0.24030  0.79286  0.11000  Biso   1.000  N
  N10      1.0000 0.23460  0.69491  0.31450  Biso   1.000  N
  N11      1.0000 0.09700  0.95062  0.97960  Biso   1.000  N
  N12      1.0000 0.39580  0.94824  0.99060  Biso   1.000  N
  C17      1.0000 0.15150  0.73610  0.10620  Biso   1.000  C
  H17      1.0000 0.08840  0.72870  0.03300  Biso   1.000  H
  C18      1.0000 0.32580  0.79920  0.21890  Biso   1.000  C
  H18      1.0000 0.39040  0.83840  0.22740  Biso   1.000  H
  C19      1.0000 0.14900  0.68780  0.20630  Biso   1.000  C
  H19      1.0000 0.08460  0.64840  0.19800  Biso   1.000  H
  C20      1.0000 0.32350  0.75120  0.31850  Biso   1.000  C
  H20      1.0000 0.38680  0.75840  0.39160  Biso   1.000  H
  C21      1.0000 0.97600  0.93320  0.92540  Biso   1.000  C
  H21      1.0000 0.95580  0.88680  0.87270  Biso   1.000  H
  C22      1.0000 0.11890  0.01840  0.05490  Biso   1.000  C
  H22      1.0000 0.20140  0.03300  0.09510  Biso   1.000  H
  C23      1.0000 0.38540  0.02790  0.94730  Biso   1.000  C
  H23      1.0000 0.30590  0.04950  0.90940  Biso   1.000  H
  C24      1.0000 0.51230  0.92120  0.04300  Biso   1.000  C
  H24      1.0000 0.52450  0.86610  0.07400  Biso   1.000  H
  Cu4      1.0000 0.76105  0.37304  0.53342  Biso   1.000  Cu
  N13      1.0000 0.75970  0.29286  0.39000  Biso   1.000  N
  N14      1.0000 0.76540  0.19491  0.18550  Biso   1.000  N
  N15      1.0000 0.90300  0.45062  0.52040  Biso   1.000  N
  N16      1.0000 0.60420  0.44824  0.50940  Biso   1.000  N
  C25      1.0000 0.84850  0.23610  0.39380  Biso   1.000  C
  H25      1.0000 0.91160  0.22870  0.46700  Biso   1.000  H
  C26      1.0000 0.67420  0.29920  0.28110  Biso   1.000  C
  H26      1.0000 0.60960  0.33840  0.27260  Biso   1.000  H
  C27      1.0000 0.85100  0.18780  0.29370  Biso   1.000  C
  H27      1.0000 0.91540  0.14840  0.30200  Biso   1.000  H
  C28      1.0000 0.67650  0.25120  0.18150  Biso   1.000  C
  H28      1.0000 0.61320  0.25840  0.10840  Biso   1.000  H
  C29      1.0000 0.02400  0.43320  0.57460  Biso   1.000  C
  H29      1.0000 0.04420  0.38680  0.62730  Biso   1.000  H
  C30      1.0000 0.88110  0.51840  0.44510  Biso   1.000  C
  H30      1.0000 0.79860  0.53300  0.40490  Biso   1.000  H
  C31      1.0000 0.61460  0.52790  0.55270  Biso   1.000  C
  H31      1.0000 0.69410  0.54950  0.59060  Biso   1.000  H
  C32      1.0000 0.48770  0.42120  0.45700  Biso   1.000  C
  H32      1.0000 0.47550  0.36610  0.42600  Biso   1.000  H
