data_image0
_cell_length_a       19.4253
_cell_length_b       19.4253
_cell_length_c       21.705
_cell_angle_alpha    64.1789
_cell_angle_beta     64.1789
_cell_angle_gamma    60.6199

_symmetry_space_group_name_H-M    P 1
_symmetry_int_tables_number       1

loop_
  _symmetry_equiv_pos_as_xyz
  'x, y, z'

loop_
  _atom_site_label
  _atom_site_occupancy
  _atom_site_fract_x
  _atom_site_fract_y
  _atom_site_fract_z
  _atom_site_thermal_displace_type
  _atom_site_B_iso_or_equiv
  _atom_site_type_symbol
  Zn1      1.0000 0.30204  0.18801  0.31260  Biso   1.000  Zn
  Zn2      1.0000 0.26091  0.27532  0.17311  Biso   1.000  Zn
  Zn3      1.0000 0.82041  0.26986  0.18076  Biso   1.000  Zn
  Zn4      1.0000 0.81199  0.69796  0.18740  Biso   1.000  Zn
  Zn5      1.0000 0.72468  0.73909  0.32689  Biso   1.000  Zn
  Zn6      1.0000 0.73014  0.17959  0.31924  Biso   1.000  Zn
  Zn7      1.0000 0.69796  0.81199  0.68740  Biso   1.000  Zn
  Zn8      1.0000 0.73909  0.72468  0.82689  Biso   1.000  Zn
  Zn9      1.0000 0.17959  0.73014  0.81924  Biso   1.000  Zn
  Zn10     1.0000 0.18801  0.30204  0.81260  Biso   1.000  Zn
  Zn11     1.0000 0.27532  0.26091  0.67311  Biso   1.000  Zn
  Zn12     1.0000 0.26986  0.82041  0.68076  Biso   1.000  Zn
  H1       1.0000 0.13290  0.37830  0.40850  Biso   1.000  H
  H2       1.0000 0.03970  0.48570  0.24010  Biso   1.000  H
  H3       1.0000 0.18640  0.13760  0.44280  Biso   1.000  H
  H4       1.0000 0.87280  0.24580  0.04130  Biso   1.000  H
  H5       1.0000 0.10970  0.11210  0.60490  Biso   1.000  H
  H6       1.0000 0.15940  0.01680  0.60810  Biso   1.000  H
  H7       1.0000 0.11500  0.07880  0.54670  Biso   1.000  H
  H8       1.0000 0.26370  0.04730  0.61270  Biso   1.000  H
  H9       1.0000 0.28680  0.12320  0.55160  Biso   1.000  H
  H10      1.0000 0.33320  0.03360  0.53960  Biso   1.000  H
  H11      1.0000 0.95000  0.42260  0.88710  Biso   1.000  H
  H12      1.0000 0.96930  0.39370  0.96100  Biso   1.000  H
  H13      1.0000 0.87720  0.44880  0.95500  Biso   1.000  H
  H14      1.0000 0.95140  0.33460  0.85580  Biso   1.000  H
  H15      1.0000 0.87980  0.29880  0.90380  Biso   1.000  H
  H16      1.0000 0.97200  0.24340  0.90910  Biso   1.000  H
  H17      1.0000 0.27090  0.41830  0.05000  Biso   1.000  H
  H18      1.0000 0.29650  0.48890  0.86360  Biso   1.000  H
  H19      1.0000 0.33960  0.48560  0.91360  Biso   1.000  H
  H20      1.0000 0.24190  0.53110  0.92720  Biso   1.000  H
  H21      1.0000 0.28860  0.38480  0.87840  Biso   1.000  H
  H22      1.0000 0.22880  0.34940  0.95130  Biso   1.000  H
  H23      1.0000 0.32660  0.30480  0.93740  Biso   1.000  H
  H24      1.0000 0.92020  0.57900  0.40990  Biso   1.000  H
  H25      1.0000 0.41410  0.41430  0.08550  Biso   1.000  H
  H26      1.0000 0.62570  0.40610  0.08910  Biso   1.000  H
  H27      1.0000 0.51520  0.25140  0.24870  Biso   1.000  H
  H28      1.0000 0.13620  0.07200  0.40140  Biso   1.000  H
  H29      1.0000 0.92470  0.07410  0.40670  Biso   1.000  H
  H30      1.0000 0.04660  0.20600  0.23030  Biso   1.000  H
  H31      1.0000 0.62170  0.86710  0.09150  Biso   1.000  H
  H32      1.0000 0.51430  0.96030  0.25990  Biso   1.000  H
  H33      1.0000 0.86240  0.81360  0.05720  Biso   1.000  H
  H34      1.0000 0.75420  0.12720  0.45870  Biso   1.000  H
  H35      1.0000 0.88790  0.89030  0.89510  Biso   1.000  H
  H36      1.0000 0.98320  0.84060  0.89190  Biso   1.000  H
  H37      1.0000 0.92120  0.88500  0.95330  Biso   1.000  H
  H38      1.0000 0.95270  0.73630  0.88730  Biso   1.000  H
  H39      1.0000 0.87680  0.71320  0.94840  Biso   1.000  H
  H40      1.0000 0.96640  0.66680  0.96040  Biso   1.000  H
  H41      1.0000 0.57740  0.05000  0.61290  Biso   1.000  H
  H42      1.0000 0.60630  0.03070  0.53900  Biso   1.000  H
  H43      1.0000 0.55120  0.12280  0.54500  Biso   1.000  H
  H44      1.0000 0.66540  0.04860  0.64420  Biso   1.000  H
  H45      1.0000 0.70120  0.12020  0.59620  Biso   1.000  H
  H46      1.0000 0.75660  0.02800  0.59090  Biso   1.000  H
  H47      1.0000 0.58170  0.72910  0.45000  Biso   1.000  H
  H48      1.0000 0.51110  0.70350  0.63640  Biso   1.000  H
  H49      1.0000 0.51440  0.66040  0.58640  Biso   1.000  H
  H50      1.0000 0.46890  0.75810  0.57280  Biso   1.000  H
  H51      1.0000 0.61520  0.71140  0.62160  Biso   1.000  H
  H52      1.0000 0.65060  0.77120  0.54870  Biso   1.000  H
  H53      1.0000 0.69520  0.67340  0.56260  Biso   1.000  H
  H54      1.0000 0.42100  0.07980  0.09010  Biso   1.000  H
  H55      1.0000 0.58570  0.58590  0.41450  Biso   1.000  H
  H56      1.0000 0.59390  0.37430  0.41090  Biso   1.000  H
  H57      1.0000 0.74860  0.48480  0.25130  Biso   1.000  H
  H58      1.0000 0.92800  0.86380  0.09860  Biso   1.000  H
  H59      1.0000 0.92590  0.07530  0.09330  Biso   1.000  H
  H60      1.0000 0.79400  0.95340  0.26970  Biso   1.000  H
  H61      1.0000 0.86710  0.62170  0.59150  Biso   1.000  H
  H62      1.0000 0.96030  0.51430  0.75990  Biso   1.000  H
  H63      1.0000 0.81360  0.86240  0.55720  Biso   1.000  H
  H64      1.0000 0.12720  0.75420  0.95870  Biso   1.000  H
  H65      1.0000 0.89030  0.88790  0.39510  Biso   1.000  H
  H66      1.0000 0.84060  0.98320  0.39190  Biso   1.000  H
  H67      1.0000 0.88500  0.92120  0.45330  Biso   1.000  H
  H68      1.0000 0.73630  0.95270  0.38730  Biso   1.000  H
  H69      1.0000 0.71320  0.87680  0.44840  Biso   1.000  H
  H70      1.0000 0.66680  0.96640  0.46040  Biso   1.000  H
  H71      1.0000 0.05000  0.57740  0.11290  Biso   1.000  H
  H72      1.0000 0.03070  0.60630  0.03900  Biso   1.000  H
  H73      1.0000 0.12280  0.55120  0.04500  Biso   1.000  H
  H74      1.0000 0.04860  0.66540  0.14420  Biso   1.000  H
  H75      1.0000 0.12020  0.70120  0.09620  Biso   1.000  H
  H76      1.0000 0.02800  0.75660  0.09090  Biso   1.000  H
  H77      1.0000 0.72910  0.58170  0.95000  Biso   1.000  H
  H78      1.0000 0.70350  0.51110  0.13640  Biso   1.000  H
  H79      1.0000 0.66040  0.51440  0.08640  Biso   1.000  H
  H80      1.0000 0.75810  0.46890  0.07280  Biso   1.000  H
  H81      1.0000 0.71140  0.61520  0.12160  Biso   1.000  H
  H82      1.0000 0.77120  0.65060  0.04870  Biso   1.000  H
  H83      1.0000 0.67340  0.69520  0.06260  Biso   1.000  H
  H84      1.0000 0.07980  0.42100  0.59010  Biso   1.000  H
  H85      1.0000 0.58590  0.58570  0.91450  Biso   1.000  H
  H86      1.0000 0.37430  0.59390  0.91090  Biso   1.000  H
  H87      1.0000 0.48480  0.74860  0.75130  Biso   1.000  H
  H88      1.0000 0.86380  0.92800  0.59860  Biso   1.000  H
  H89      1.0000 0.07530  0.92590  0.59330  Biso   1.000  H
  H90      1.0000 0.95340  0.79400  0.76970  Biso   1.000  H
  H91      1.0000 0.37830  0.13290  0.90850  Biso   1.000  H
  H92      1.0000 0.48570  0.03970  0.74010  Biso   1.000  H
  H93      1.0000 0.13760  0.18640  0.94280  Biso   1.000  H
  H94      1.0000 0.24580  0.87280  0.54130  Biso   1.000  H
  H95      1.0000 0.11210  0.10970  0.10490  Biso   1.000  H
  H96      1.0000 0.01680  0.15940  0.10810  Biso   1.000  H
  H97      1.0000 0.07880  0.11500  0.04670  Biso   1.000  H
  H98      1.0000 0.04730  0.26370  0.11270  Biso   1.000  H
  H99      1.0000 0.12320  0.28680  0.05160  Biso   1.000  H
  H100     1.0000 0.03360  0.33320  0.03960  Biso   1.000  H
  H101     1.0000 0.42260  0.95000  0.38710  Biso   1.000  H
  H102     1.0000 0.39370  0.96930  0.46100  Biso   1.000  H
  H103     1.0000 0.44880  0.87720  0.45500  Biso   1.000  H
  H104     1.0000 0.33460  0.95140  0.35580  Biso   1.000  H
  H105     1.0000 0.29880  0.87980  0.40380  Biso   1.000  H
  H106     1.0000 0.24340  0.97200  0.40910  Biso   1.000  H
  H107     1.0000 0.41830  0.27090  0.55000  Biso   1.000  H
  H108     1.0000 0.48890  0.29650  0.36360  Biso   1.000  H
  H109     1.0000 0.48560  0.33960  0.41360  Biso   1.000  H
  H110     1.0000 0.53110  0.24190  0.42720  Biso   1.000  H
  H111     1.0000 0.38480  0.28860  0.37840  Biso   1.000  H
  H112     1.0000 0.34940  0.22880  0.45130  Biso   1.000  H
  H113     1.0000 0.30480  0.32660  0.43740  Biso   1.000  H
  H114     1.0000 0.57900  0.92020  0.90990  Biso   1.000  H
  H115     1.0000 0.41430  0.41410  0.58550  Biso   1.000  H
  H116     1.0000 0.40610  0.62570  0.58910  Biso   1.000  H
  H117     1.0000 0.25140  0.51520  0.74870  Biso   1.000  H
  H118     1.0000 0.07200  0.13620  0.90140  Biso   1.000  H
  H119     1.0000 0.07410  0.92470  0.90670  Biso   1.000  H
  H120     1.0000 0.20600  0.04660  0.73030  Biso   1.000  H
  C1       1.0000 0.16580  0.35658  0.28566  Biso   1.000  C
  C2       1.0000 0.09561  0.42249  0.31958  Biso   1.000  C
  C3       1.0000 0.09144  0.42002  0.38580  Biso   1.000  C
  C4       1.0000 0.03562  0.48316  0.28619  Biso   1.000  C
  C5       1.0000 0.22950  0.12390  0.46090  Biso   1.000  C
  C6       1.0000 0.88330  0.29350  0.03010  Biso   1.000  C
  C7       1.0000 0.14480  0.07300  0.57630  Biso   1.000  C
  C8       1.0000 0.28050  0.07210  0.56100  Biso   1.000  C
  C9       1.0000 0.92860  0.40500  0.93920  Biso   1.000  C
  C10      1.0000 0.02608  0.47912  0.41910  Biso   1.000  C
  C11      1.0000 0.93060  0.29940  0.90220  Biso   1.000  C
  C12      1.0000 0.27000  0.38280  0.03120  Biso   1.000  C
  C13      1.0000 0.29030  0.48470  0.91230  Biso   1.000  C
  C14      1.0000 0.28100  0.35800  0.92970  Biso   1.000  C
  C15      1.0000 0.96472  0.53916  0.38680  Biso   1.000  C
  C16      1.0000 0.96827  0.54123  0.32113  Biso   1.000  C
  C17      1.0000 0.90077  0.60537  0.28805  Biso   1.000  C
  C18      1.0000 0.39031  0.29149  0.20124  Biso   1.000  C
  C19      1.0000 0.45643  0.32587  0.17049  Biso   1.000  C
  C20      1.0000 0.45651  0.39071  0.10770  Biso   1.000  C
  C21      1.0000 0.51995  0.42015  0.07850  Biso   1.000  C
  C22      1.0000 0.58240  0.38580  0.11020  Biso   1.000  C
  C23      1.0000 0.58176  0.32188  0.17251  Biso   1.000  C
  C24      1.0000 0.51751  0.29299  0.20436  Biso   1.000  C
  C25      1.0000 0.65068  0.28300  0.20563  Biso   1.000  C
  C26      1.0000 0.16922  0.17740  0.27622  Biso   1.000  C
  C27      1.0000 0.10081  0.14679  0.31051  Biso   1.000  C
  C28      1.0000 0.09488  0.09128  0.37920  Biso   1.000  C
  C29      1.0000 0.02985  0.06425  0.41500  Biso   1.000  C
  C30      1.0000 0.96993  0.09173  0.38201  Biso   1.000  C
  C31      1.0000 0.97579  0.14411  0.31387  Biso   1.000  C
  C32      1.0000 0.04189  0.17089  0.27781  Biso   1.000  C
  C33      1.0000 0.90818  0.17556  0.28120  Biso   1.000  C
  C34      1.0000 0.64342  0.83420  0.21434  Biso   1.000  C
  C35      1.0000 0.57751  0.90439  0.18042  Biso   1.000  C
  C36      1.0000 0.57998  0.90856  0.11420  Biso   1.000  C
  C37      1.0000 0.51684  0.96438  0.21381  Biso   1.000  C
  C38      1.0000 0.87610  0.77050  0.03910  Biso   1.000  C
  C39      1.0000 0.70650  0.11670  0.46990  Biso   1.000  C
  C40      1.0000 0.92700  0.85520  0.92370  Biso   1.000  C
  C41      1.0000 0.92790  0.71950  0.93900  Biso   1.000  C
  C42      1.0000 0.59500  0.07140  0.56080  Biso   1.000  C
  C43      1.0000 0.52088  0.97392  0.08090  Biso   1.000  C
  C44      1.0000 0.70060  0.06940  0.59780  Biso   1.000  C
  C45      1.0000 0.61720  0.73000  0.46880  Biso   1.000  C
  C46      1.0000 0.51530  0.70970  0.58770  Biso   1.000  C
  C47      1.0000 0.64200  0.71900  0.57030  Biso   1.000  C
  C48      1.0000 0.46084  0.03528  0.11320  Biso   1.000  C
  C49      1.0000 0.45877  0.03173  0.17887  Biso   1.000  C
  C50      1.0000 0.39463  0.09923  0.21195  Biso   1.000  C
  C51      1.0000 0.70851  0.60969  0.29876  Biso   1.000  C
  C52      1.0000 0.67413  0.54357  0.32951  Biso   1.000  C
  C53      1.0000 0.60929  0.54349  0.39230  Biso   1.000  C
  C54      1.0000 0.57985  0.48005  0.42150  Biso   1.000  C
  C55      1.0000 0.61420  0.41760  0.38980  Biso   1.000  C
  C56      1.0000 0.67812  0.41824  0.32749  Biso   1.000  C
  C57      1.0000 0.70701  0.48249  0.29564  Biso   1.000  C
  C58      1.0000 0.71700  0.34932  0.29437  Biso   1.000  C
  C59      1.0000 0.82260  0.83078  0.22378  Biso   1.000  C
  C60      1.0000 0.85321  0.89919  0.18949  Biso   1.000  C
  C61      1.0000 0.90872  0.90512  0.12080  Biso   1.000  C
  C62      1.0000 0.93575  0.97015  0.08500  Biso   1.000  C
  C63      1.0000 0.90827  0.03007  0.11799  Biso   1.000  C
  C64      1.0000 0.85589  0.02421  0.18613  Biso   1.000  C
  C65      1.0000 0.82911  0.95811  0.22219  Biso   1.000  C
  C66      1.0000 0.82444  0.09182  0.21880  Biso   1.000  C
  C67      1.0000 0.83420  0.64342  0.71434  Biso   1.000  C
  C68      1.0000 0.90439  0.57751  0.68042  Biso   1.000  C
  C69      1.0000 0.90856  0.57998  0.61420  Biso   1.000  C
  C70      1.0000 0.96438  0.51684  0.71381  Biso   1.000  C
  C71      1.0000 0.77050  0.87610  0.53910  Biso   1.000  C
  C72      1.0000 0.11670  0.70650  0.96990  Biso   1.000  C
  C73      1.0000 0.85520  0.92700  0.42370  Biso   1.000  C
  C74      1.0000 0.71950  0.92790  0.43900  Biso   1.000  C
  C75      1.0000 0.07140  0.59500  0.06080  Biso   1.000  C
  C76      1.0000 0.97392  0.52088  0.58090  Biso   1.000  C
  C77      1.0000 0.06940  0.70060  0.09780  Biso   1.000  C
  C78      1.0000 0.73000  0.61720  0.96880  Biso   1.000  C
  C79      1.0000 0.70970  0.51530  0.08770  Biso   1.000  C
  C80      1.0000 0.71900  0.64200  0.07030  Biso   1.000  C
  C81      1.0000 0.03528  0.46084  0.61320  Biso   1.000  C
  C82      1.0000 0.03173  0.45877  0.67887  Biso   1.000  C
  C83      1.0000 0.09923  0.39463  0.71195  Biso   1.000  C
  C84      1.0000 0.60969  0.70851  0.79876  Biso   1.000  C
  C85      1.0000 0.54357  0.67413  0.82951  Biso   1.000  C
  C86      1.0000 0.54349  0.60929  0.89230  Biso   1.000  C
  C87      1.0000 0.48005  0.57985  0.92150  Biso   1.000  C
  C88      1.0000 0.41760  0.61420  0.88980  Biso   1.000  C
  C89      1.0000 0.41824  0.67812  0.82749  Biso   1.000  C
  C90      1.0000 0.48249  0.70701  0.79564  Biso   1.000  C
  C91      1.0000 0.34932  0.71700  0.79437  Biso   1.000  C
  C92      1.0000 0.83078  0.82260  0.72378  Biso   1.000  C
  C93      1.0000 0.89919  0.85321  0.68949  Biso   1.000  C
  C94      1.0000 0.90512  0.90872  0.62080  Biso   1.000  C
  C95      1.0000 0.97015  0.93575  0.58500  Biso   1.000  C
  C96      1.0000 0.03007  0.90827  0.61799  Biso   1.000  C
  C97      1.0000 0.02421  0.85589  0.68613  Biso   1.000  C
  C98      1.0000 0.95811  0.82911  0.72219  Biso   1.000  C
  C99      1.0000 0.09182  0.82444  0.71880  Biso   1.000  C
  C100     1.0000 0.35658  0.16580  0.78566  Biso   1.000  C
  C101     1.0000 0.42249  0.09561  0.81958  Biso   1.000  C
  C102     1.0000 0.42002  0.09144  0.88580  Biso   1.000  C
  C103     1.0000 0.48316  0.03562  0.78619  Biso   1.000  C
  C104     1.0000 0.12390  0.22950  0.96090  Biso   1.000  C
  C105     1.0000 0.29350  0.88330  0.53010  Biso   1.000  C
  C106     1.0000 0.07300  0.14480  0.07630  Biso   1.000  C
  C107     1.0000 0.07210  0.28050  0.06100  Biso   1.000  C
  C108     1.0000 0.40500  0.92860  0.43920  Biso   1.000  C
  C109     1.0000 0.47912  0.02608  0.91910  Biso   1.000  C
  C110     1.0000 0.29940  0.93060  0.40220  Biso   1.000  C
  C111     1.0000 0.38280  0.27000  0.53120  Biso   1.000  C
  C112     1.0000 0.48470  0.29030  0.41230  Biso   1.000  C
  C113     1.0000 0.35800  0.28100  0.42970  Biso   1.000  C
  C114     1.0000 0.53916  0.96472  0.88680  Biso   1.000  C
  C115     1.0000 0.54123  0.96827  0.82113  Biso   1.000  C
  C116     1.0000 0.60537  0.90077  0.78805  Biso   1.000  C
  C117     1.0000 0.29149  0.39031  0.70124  Biso   1.000  C
  C118     1.0000 0.32587  0.45643  0.67049  Biso   1.000  C
  C119     1.0000 0.39071  0.45651  0.60770  Biso   1.000  C
  C120     1.0000 0.42015  0.51995  0.57850  Biso   1.000  C
  C121     1.0000 0.38580  0.58240  0.61020  Biso   1.000  C
  C122     1.0000 0.32188  0.58176  0.67251  Biso   1.000  C
  C123     1.0000 0.29299  0.51751  0.70436  Biso   1.000  C
  C124     1.0000 0.28300  0.65068  0.70563  Biso   1.000  C
  C125     1.0000 0.17740  0.16922  0.77622  Biso   1.000  C
  C126     1.0000 0.14679  0.10081  0.81051  Biso   1.000  C
  C127     1.0000 0.09128  0.09488  0.87920  Biso   1.000  C
  C128     1.0000 0.06425  0.02985  0.91500  Biso   1.000  C
  C129     1.0000 0.09173  0.96993  0.88201  Biso   1.000  C
  C130     1.0000 0.14411  0.97579  0.81387  Biso   1.000  C
  C131     1.0000 0.17089  0.04189  0.77781  Biso   1.000  C
  C132     1.0000 0.17556  0.90818  0.78120  Biso   1.000  C
  N1       1.0000 0.21942  0.08982  0.53080  Biso   1.000  N
  N2       1.0000 0.91322  0.33262  0.96000  Biso   1.000  N
  N3       1.0000 0.02841  0.47321  0.48630  Biso   1.000  N
  N4       1.0000 0.27960  0.40740  0.96060  Biso   1.000  N
  N5       1.0000 0.52597  0.48697  0.01440  Biso   1.000  N
  N6       1.0000 0.02991  0.00951  0.48479  Biso   1.000  N
  N7       1.0000 0.91018  0.78058  0.96920  Biso   1.000  N
  N8       1.0000 0.66738  0.08678  0.54000  Biso   1.000  N
  N9       1.0000 0.52679  0.97159  0.01370  Biso   1.000  N
  N10      1.0000 0.59260  0.72040  0.53940  Biso   1.000  N
  N11      1.0000 0.51303  0.47403  0.48560  Biso   1.000  N
  N12      1.0000 0.99049  0.97009  0.01521  Biso   1.000  N
  N13      1.0000 0.78058  0.91018  0.46920  Biso   1.000  N
  N14      1.0000 0.08678  0.66738  0.04000  Biso   1.000  N
  N15      1.0000 0.97159  0.52679  0.51370  Biso   1.000  N
  N16      1.0000 0.72040  0.59260  0.03940  Biso   1.000  N
  N17      1.0000 0.47403  0.51303  0.98560  Biso   1.000  N
  N18      1.0000 0.97009  0.99049  0.51521  Biso   1.000  N
  N19      1.0000 0.08982  0.21942  0.03080  Biso   1.000  N
  N20      1.0000 0.33262  0.91322  0.46000  Biso   1.000  N
  N21      1.0000 0.47321  0.02841  0.98630  Biso   1.000  N
  N22      1.0000 0.40740  0.27960  0.46060  Biso   1.000  N
  N23      1.0000 0.48697  0.52597  0.51440  Biso   1.000  N
  N24      1.0000 0.00951  0.02991  0.98479  Biso   1.000  N
  O1       1.0000 0.21384  0.30038  0.32225  Biso   1.000  O
  O2       1.0000 0.17008  0.36142  0.22461  Biso   1.000  O
  O3       1.0000 0.91083  0.61267  0.22442  Biso   1.000  O
  O4       1.0000 0.83751  0.64577  0.32779  Biso   1.000  O
  O5       1.0000 0.38769  0.23879  0.26237  Biso   1.000  O
  O6       1.0000 0.34375  0.31701  0.16359  Biso   1.000  O
  O7       1.0000 0.21094  0.16090  0.31510  Biso   1.000  O
  O8       1.0000 0.17786  0.22120  0.21148  Biso   1.000  O
  O9       1.0000 0.26019  0.32025  0.07287  Biso   1.000  O
  O10      1.0000 0.29415  0.13963  0.41608  Biso   1.000  O
  O11      1.0000 0.70829  0.30947  0.17070  Biso   1.000  O
  O12      1.0000 0.64636  0.22726  0.26408  Biso   1.000  O
  O13      1.0000 0.91975  0.21669  0.21621  Biso   1.000  O
  O14      1.0000 0.84467  0.15943  0.32134  Biso   1.000  O
  O15      1.0000 0.86951  0.31923  0.07910  Biso   1.000  O
  O16      1.0000 0.69962  0.78616  0.17775  Biso   1.000  O
  O17      1.0000 0.63858  0.82992  0.27539  Biso   1.000  O
  O18      1.0000 0.38733  0.08917  0.27558  Biso   1.000  O
  O19      1.0000 0.35423  0.16249  0.17221  Biso   1.000  O
  O20      1.0000 0.76121  0.61231  0.23763  Biso   1.000  O
  O21      1.0000 0.68299  0.65625  0.33641  Biso   1.000  O
  O22      1.0000 0.83910  0.78906  0.18490  Biso   1.000  O
  O23      1.0000 0.77880  0.82214  0.28852  Biso   1.000  O
  O24      1.0000 0.67975  0.73981  0.42713  Biso   1.000  O
  O25      1.0000 0.86037  0.70585  0.08392  Biso   1.000  O
  O26      1.0000 0.69053  0.29171  0.32930  Biso   1.000  O
  O27      1.0000 0.77274  0.35364  0.23592  Biso   1.000  O
  O28      1.0000 0.78331  0.08025  0.28379  Biso   1.000  O
  O29      1.0000 0.84057  0.15533  0.17866  Biso   1.000  O
  O30      1.0000 0.68077  0.13049  0.42090  Biso   1.000  O
  O31      1.0000 0.78616  0.69962  0.67775  Biso   1.000  O
  O32      1.0000 0.82992  0.63858  0.77539  Biso   1.000  O
  O33      1.0000 0.08917  0.38733  0.77558  Biso   1.000  O
  O34      1.0000 0.16249  0.35423  0.67221  Biso   1.000  O
  O35      1.0000 0.61231  0.76121  0.73763  Biso   1.000  O
  O36      1.0000 0.65625  0.68299  0.83641  Biso   1.000  O
  O37      1.0000 0.78906  0.83910  0.68490  Biso   1.000  O
  O38      1.0000 0.82214  0.77880  0.78852  Biso   1.000  O
  O39      1.0000 0.73981  0.67975  0.92713  Biso   1.000  O
  O40      1.0000 0.70585  0.86037  0.58392  Biso   1.000  O
  O41      1.0000 0.29171  0.69053  0.82930  Biso   1.000  O
  O42      1.0000 0.35364  0.77274  0.73592  Biso   1.000  O
  O43      1.0000 0.08025  0.78331  0.78379  Biso   1.000  O
  O44      1.0000 0.15533  0.84057  0.67866  Biso   1.000  O
  O45      1.0000 0.13049  0.68077  0.92090  Biso   1.000  O
  O46      1.0000 0.30038  0.21384  0.82225  Biso   1.000  O
  O47      1.0000 0.36142  0.17008  0.72461  Biso   1.000  O
  O48      1.0000 0.61267  0.91083  0.72442  Biso   1.000  O
  O49      1.0000 0.64577  0.83751  0.82779  Biso   1.000  O
  O50      1.0000 0.23879  0.38769  0.76237  Biso   1.000  O
  O51      1.0000 0.31701  0.34375  0.66359  Biso   1.000  O
  O52      1.0000 0.16090  0.21094  0.81510  Biso   1.000  O
  O53      1.0000 0.22120  0.17786  0.71148  Biso   1.000  O
  O54      1.0000 0.32025  0.26019  0.57287  Biso   1.000  O
  O55      1.0000 0.13963  0.29415  0.91608  Biso   1.000  O
  O56      1.0000 0.30947  0.70829  0.67070  Biso   1.000  O
  O57      1.0000 0.22726  0.64636  0.76408  Biso   1.000  O
  O58      1.0000 0.21669  0.91975  0.71621  Biso   1.000  O
  O59      1.0000 0.15943  0.84467  0.82134  Biso   1.000  O
  O60      1.0000 0.31923  0.86951  0.57910  Biso   1.000  O
