data_image0
_cell_length_a       7.602
_cell_length_b       14.251
_cell_length_c       14.251
_cell_angle_alpha    97.9523
_cell_angle_beta     101.47
_cell_angle_gamma    101.47

_symmetry_space_group_name_H-M    P 1
_symmetry_int_tables_number       1

loop_
  _symmetry_equiv_pos_as_xyz
  'x, y, z'

loop_
  _atom_site_label
  _atom_site_occupancy
  _atom_site_fract_x
  _atom_site_fract_y
  _atom_site_fract_z
  _atom_site_thermal_displace_type
  _atom_site_B_iso_or_equiv
  _atom_site_type_symbol
  Ni1      1.0000 0.75000  0.58943  0.41057  Biso   1.000  Ni
  Ni2      1.0000 0.25000  0.41057  0.58943  Biso   1.000  Ni
  Ni3      1.0000 0.50000  0.00000  0.00000  Biso   1.000  Ni
  Ni4      1.0000 0.00000  0.00000  0.00000  Biso   1.000  Ni
  H1       1.0000 0.07960  0.59830  0.47830  Biso   1.000  H
  H2       1.0000 0.05140  0.53360  0.40680  Biso   1.000  H
  H3       1.0000 0.95720  0.78300  0.93680  Biso   1.000  H
  H4       1.0000 0.90420  0.66250  0.80170  Biso   1.000  H
  H5       1.0000 0.86330  0.86470  0.63210  Biso   1.000  H
  H6       1.0000 0.91260  0.97970  0.77170  Biso   1.000  H
  H7       1.0000 0.62880  0.77430  0.38250  Biso   1.000  H
  H8       1.0000 0.62050  0.88240  0.27600  Biso   1.000  H
  H9       1.0000 0.42040  0.52170  0.40170  Biso   1.000  H
  H10      1.0000 0.44860  0.59320  0.46640  Biso   1.000  H
  H11      1.0000 0.54280  0.06320  0.21700  Biso   1.000  H
  H12      1.0000 0.59580  0.19830  0.33750  Biso   1.000  H
  H13      1.0000 0.63670  0.36790  0.13530  Biso   1.000  H
  H14      1.0000 0.58740  0.22830  0.02030  Biso   1.000  H
  H15      1.0000 0.87120  0.61750  0.22570  Biso   1.000  H
  H16      1.0000 0.87950  0.72400  0.11760  Biso   1.000  H
  H17      1.0000 0.92040  0.40170  0.52170  Biso   1.000  H
  H18      1.0000 0.94860  0.46640  0.59320  Biso   1.000  H
  H19      1.0000 0.04280  0.21700  0.06320  Biso   1.000  H
  H20      1.0000 0.09580  0.33750  0.19830  Biso   1.000  H
  H21      1.0000 0.13670  0.13530  0.36790  Biso   1.000  H
  H22      1.0000 0.08740  0.02030  0.22830  Biso   1.000  H
  H23      1.0000 0.37120  0.22570  0.61750  Biso   1.000  H
  H24      1.0000 0.37950  0.11760  0.72400  Biso   1.000  H
  H25      1.0000 0.57960  0.47830  0.59830  Biso   1.000  H
  H26      1.0000 0.55140  0.40680  0.53360  Biso   1.000  H
  H27      1.0000 0.45720  0.93680  0.78300  Biso   1.000  H
  H28      1.0000 0.40420  0.80170  0.66250  Biso   1.000  H
  H29      1.0000 0.36330  0.63210  0.86470  Biso   1.000  H
  H30      1.0000 0.41260  0.77170  0.97970  Biso   1.000  H
  H31      1.0000 0.12880  0.38250  0.77430  Biso   1.000  H
  H32      1.0000 0.12050  0.27600  0.88240  Biso   1.000  H
  C1       1.0000 0.93810  0.79970  0.87530  Biso   1.000  C
  C2       1.0000 0.90660  0.72640  0.79400  Biso   1.000  C
  C3       1.0000 0.87850  0.74970  0.70050  Biso   1.000  C
  C4       1.0000 0.88150  0.84640  0.69280  Biso   1.000  C
  C5       1.0000 0.91250  0.91550  0.77790  Biso   1.000  C
  C6       1.0000 0.84170  0.67000  0.61000  Biso   1.000  C
  C7       1.0000 0.67810  0.76350  0.32830  Biso   1.000  C
  C8       1.0000 0.67370  0.82980  0.26460  Biso   1.000  C
  C9       1.0000 0.56190  0.12470  0.20030  Biso   1.000  C
  C10      1.0000 0.59340  0.20600  0.27360  Biso   1.000  C
  C11      1.0000 0.62150  0.29950  0.25030  Biso   1.000  C
  C12      1.0000 0.61850  0.30720  0.15360  Biso   1.000  C
  C13      1.0000 0.58750  0.22210  0.08450  Biso   1.000  C
  C14      1.0000 0.65830  0.39000  0.33000  Biso   1.000  C
  C15      1.0000 0.82190  0.67170  0.23650  Biso   1.000  C
  C16      1.0000 0.82630  0.73540  0.17020  Biso   1.000  C
  C17      1.0000 0.06190  0.20030  0.12470  Biso   1.000  C
  C18      1.0000 0.09340  0.27360  0.20600  Biso   1.000  C
  C19      1.0000 0.12150  0.25030  0.29950  Biso   1.000  C
  C20      1.0000 0.11850  0.15360  0.30720  Biso   1.000  C
  C21      1.0000 0.08750  0.08450  0.22210  Biso   1.000  C
  C22      1.0000 0.15830  0.33000  0.39000  Biso   1.000  C
  C23      1.0000 0.32190  0.23650  0.67170  Biso   1.000  C
  C24      1.0000 0.32630  0.17020  0.73540  Biso   1.000  C
  C25      1.0000 0.43810  0.87530  0.79970  Biso   1.000  C
  C26      1.0000 0.40660  0.79400  0.72640  Biso   1.000  C
  C27      1.0000 0.37850  0.70050  0.74970  Biso   1.000  C
  C28      1.0000 0.38150  0.69280  0.84640  Biso   1.000  C
  C29      1.0000 0.41250  0.77790  0.91550  Biso   1.000  C
  C30      1.0000 0.34170  0.61000  0.67000  Biso   1.000  C
  C31      1.0000 0.17810  0.32830  0.76350  Biso   1.000  C
  C32      1.0000 0.17370  0.26460  0.82980  Biso   1.000  C
  C33      1.0000 0.75000  0.81620  0.18380  Biso   1.000  C
  C34      1.0000 0.75000  0.88720  0.11280  Biso   1.000  C
  C35      1.0000 0.25000  0.18380  0.81620  Biso   1.000  C
  C36      1.0000 0.25000  0.11280  0.88720  Biso   1.000  C
  N1       1.0000 0.94210  0.89449  0.86851  Biso   1.000  N
  N2       1.0000 0.55790  0.13149  0.10551  Biso   1.000  N
  N3       1.0000 0.05790  0.10551  0.13149  Biso   1.000  N
  N4       1.0000 0.44210  0.86851  0.89449  Biso   1.000  N
  N5       1.0000 0.75000  0.68450  0.31550  Biso   1.000  N
  N6       1.0000 0.25000  0.31550  0.68450  Biso   1.000  N
  N7       1.0000 0.25000  0.95250  0.04750  Biso   1.000  N
  N8       1.0000 0.25000  0.89690  0.10310  Biso   1.000  N
  N9       1.0000 0.25000  0.84320  0.15680  Biso   1.000  N
  N10      1.0000 0.75000  0.04750  0.95250  Biso   1.000  N
  N11      1.0000 0.75000  0.10310  0.89690  Biso   1.000  N
  N12      1.0000 0.75000  0.15680  0.84320  Biso   1.000  N
  O1       1.0000 0.02220  0.58088  0.42122  Biso   1.000  O
  O2       1.0000 0.82490  0.69800  0.52882  Biso   1.000  O
  O3       1.0000 0.82930  0.58200  0.62220  Biso   1.000  O
  O4       1.0000 0.62790  0.93659  0.10969  Biso   1.000  O
  O5       1.0000 0.47780  0.57878  0.41912  Biso   1.000  O
  O6       1.0000 0.67510  0.47118  0.30200  Biso   1.000  O
  O7       1.0000 0.67070  0.37780  0.41800  Biso   1.000  O
  O8       1.0000 0.87210  0.89031  0.06341  Biso   1.000  O
  O9       1.0000 0.97780  0.41912  0.57878  Biso   1.000  O
  O10      1.0000 0.17510  0.30200  0.47118  Biso   1.000  O
  O11      1.0000 0.17070  0.41800  0.37780  Biso   1.000  O
  O12      1.0000 0.37210  0.06341  0.89031  Biso   1.000  O
  O13      1.0000 0.52220  0.42122  0.58088  Biso   1.000  O
  O14      1.0000 0.32490  0.52882  0.69800  Biso   1.000  O
  O15      1.0000 0.32930  0.62220  0.58200  Biso   1.000  O
  O16      1.0000 0.12790  0.10969  0.93659  Biso   1.000  O
