data_image0
_cell_length_a       10.4839
_cell_length_b       11.84
_cell_length_c       14.034
_cell_angle_alpha    105.645
_cell_angle_beta     101.222
_cell_angle_gamma    112.358

_symmetry_space_group_name_H-M    "P 1"
_symmetry_int_tables_number       1

loop_
  _symmetry_equiv_pos_as_xyz
  'x, y, z'

loop_
  _atom_site_label
  _atom_site_occupancy
  _atom_site_fract_x
  _atom_site_fract_y
  _atom_site_fract_z
  _atom_site_thermal_displace_type
  _atom_site_B_iso_or_equiv
  _atom_site_type_symbol
  Fe1      1.0000 0.81388  0.00651  0.78586  Biso   1.000  Fe
  Fe2      1.0000 0.44780  0.72517  0.69138  Biso   1.000  Fe
  N1       1.0000 0.04902  0.06856  0.84100  Biso   1.000  N
  C1       1.0000 0.11110  0.10811  0.94487  Biso   1.000  C
  H1       1.0000 0.05130  0.10430  0.98620  Biso   1.000  H
  C2       1.0000 0.25960  0.15451  0.99427  Biso   1.000  C
  C3       1.0000 0.34930  0.15900  0.93286  Biso   1.000  C
  H2       1.0000 0.44980  0.19230  0.96330  Biso   1.000  H
  C4       1.0000 0.13570  0.06920  0.78213  Biso   1.000  C
  H3       1.0000 0.09390  0.03960  0.70970  Biso   1.000  H
  C5       1.0000 0.28430  0.11190  0.82397  Biso   1.000  C
  H4       1.0000 0.34030  0.10930  0.78030  Biso   1.000  H
  O1       1.0000 0.44759  0.25845  0.16001  Biso   1.000  O
  O2       1.0000 0.21583  0.14511  0.15080  Biso   1.000  O
  N2       1.0000 0.27412  0.74846  0.75216  Biso   1.000  N
  C6       1.0000 0.31200  0.18928  0.11118  Biso   1.000  C
  C7       1.0000 0.30550  0.79991  0.85627  Biso   1.000  C
  H5       1.0000 0.40040  0.82920  0.89910  Biso   1.000  H
  C8       1.0000 0.20440  0.81208  0.90405  Biso   1.000  C
  C9       1.0000 0.06390  0.77301  0.84083  Biso   1.000  C
  H6       1.0000 0.99370  0.78020  0.87010  Biso   1.000  H
  N3       1.0000 0.83664  0.16589  0.72951  Biso   1.000  N
  C10      1.0000 0.76000  0.13734  0.63036  Biso   1.000  C
  H7       1.0000 0.70470  0.04910  0.58560  Biso   1.000  H
  C11      1.0000 0.92360  0.39480  0.75988  Biso   1.000  C
  H8       1.0000 0.98140  0.48220  0.80570  Biso   1.000  H
  C12      1.0000 0.91730  0.29360  0.79299  Biso   1.000  C
  H9       1.0000 0.97090  0.31480  0.86190  Biso   1.000  H
  C13      1.0000 0.75950  0.23289  0.59158  Biso   1.000  C
  C14      1.0000 0.84350  0.36490  0.65822  Biso   1.000  C
  H10      1.0000 0.84560  0.43170  0.63470  Biso   1.000  H
  O3       1.0000 0.57459  0.94110  0.74247  Biso   1.000  O
  O4       1.0000 0.39677  0.30250  0.38165  Biso   1.000  O
  O5       1.0000 0.15885  0.87205  0.06435  Biso   1.000  O
  O6       1.0000 0.21066  0.11131  0.36027  Biso   1.000  O
  O7       1.0000 0.66502  0.28485  0.45179  Biso   1.000  O
  O8       1.0000 0.60069  0.07212  0.42347  Biso   1.000  O
  N4       1.0000 0.32698  0.51021  0.63441  Biso   1.000  N
  O9       1.0000 0.38789  0.91699  0.07018  Biso   1.000  O
  C15      1.0000 0.33470  0.43986  0.54515  Biso   1.000  C
  H11      1.0000 0.38580  0.48530  0.50910  Biso   1.000  H
  C16      1.0000 0.25490  0.87117  0.02246  Biso   1.000  C
  C17      1.0000 0.29500  0.23382  0.40689  Biso   1.000  C
  C18      1.0000 0.13730  0.71060  0.69151  Biso   1.000  C
  H12      1.0000 0.11320  0.67480  0.61900  Biso   1.000  H
  C19      1.0000 0.03070  0.72270  0.73231  Biso   1.000  C
  H13      1.0000 0.93810  0.69750  0.68780  Biso   1.000  H
  C20      1.0000 0.66740  0.19203  0.47942  Biso   1.000  C
  C21      1.0000 0.27080  0.30341  0.50364  Biso   1.000  C
  C22      1.0000 0.25150  0.44380  0.68472  Biso   1.000  C
  H14      1.0000 0.24540  0.49110  0.74690  Biso   1.000  H
  C23      1.0000 0.19040  0.23550  0.55567  Biso   1.000  C
  H15      1.0000 0.14330  0.14370  0.52910  Biso   1.000  H
  C24      1.0000 0.18190  0.30710  0.64770  Biso   1.000  C
  H16      1.0000 0.12980  0.26400  0.68450  Biso   1.000  H
  Fe3      1.0000 0.18612  0.99349  0.21414  Biso   1.000  Fe
  Fe4      1.0000 0.55220  0.27483  0.30861  Biso   1.000  Fe
  N5       1.0000 0.95098  0.93144  0.15900  Biso   1.000  N
  C25      1.0000 0.88890  0.89189  0.05513  Biso   1.000  C
  H17      1.0000 0.94870  0.89570  0.01380  Biso   1.000  H
  C26      1.0000 0.74040  0.84549  0.00573  Biso   1.000  C
  C27      1.0000 0.65070  0.84100  0.06714  Biso   1.000  C
  H18      1.0000 0.55020  0.80770  0.03670  Biso   1.000  H
  C28      1.0000 0.86430  0.93080  0.21787  Biso   1.000  C
  H19      1.0000 0.90610  0.96040  0.29030  Biso   1.000  H
  C29      1.0000 0.71570  0.88810  0.17603  Biso   1.000  C
  H20      1.0000 0.65970  0.89070  0.21970  Biso   1.000  H
  O10      1.0000 0.55241  0.74155  0.83999  Biso   1.000  O
  O11      1.0000 0.78417  0.85489  0.84920  Biso   1.000  O
  N6       1.0000 0.72588  0.25154  0.24784  Biso   1.000  N
  C30      1.0000 0.68800  0.81072  0.88882  Biso   1.000  C
  C31      1.0000 0.69450  0.20009  0.14373  Biso   1.000  C
  H21      1.0000 0.59960  0.17080  0.10090  Biso   1.000  H
  C32      1.0000 0.79560  0.18792  0.09595  Biso   1.000  C
  C33      1.0000 0.93610  0.22699  0.15917  Biso   1.000  C
  H22      1.0000 0.00630  0.21980  0.12990  Biso   1.000  H
  N7       1.0000 0.16336  0.83411  0.27049  Biso   1.000  N
  C34      1.0000 0.24000  0.86266  0.36964  Biso   1.000  C
  H23      1.0000 0.29530  0.95090  0.41440  Biso   1.000  H
  C35      1.0000 0.07640  0.60520  0.24012  Biso   1.000  C
  H24      1.0000 0.01860  0.51780  0.19430  Biso   1.000  H
  C36      1.0000 0.08270  0.70640  0.20701  Biso   1.000  C
  H25      1.0000 0.02910  0.68520  0.13810  Biso   1.000  H
  C37      1.0000 0.24050  0.76711  0.40842  Biso   1.000  C
  C38      1.0000 0.15650  0.63510  0.34178  Biso   1.000  C
  H26      1.0000 0.15440  0.56830  0.36530  Biso   1.000  H
  O12      1.0000 0.42541  0.05890  0.25753  Biso   1.000  O
  O13      1.0000 0.60323  0.69750  0.61835  Biso   1.000  O
  O14      1.0000 0.84115  0.12795  0.93565  Biso   1.000  O
  O15      1.0000 0.78934  0.88869  0.63973  Biso   1.000  O
  O16      1.0000 0.33498  0.71515  0.54821  Biso   1.000  O
  O17      1.0000 0.39931  0.92788  0.57653  Biso   1.000  O
  N8       1.0000 0.67302  0.48979  0.36559  Biso   1.000  N
  O18      1.0000 0.61211  0.08301  0.92982  Biso   1.000  O
  C39      1.0000 0.66530  0.56014  0.45485  Biso   1.000  C
  H27      1.0000 0.61420  0.51470  0.49090  Biso   1.000  H
  C40      1.0000 0.74510  0.12883  0.97754  Biso   1.000  C
  C41      1.0000 0.70500  0.76618  0.59311  Biso   1.000  C
  C42      1.0000 0.86270  0.28940  0.30849  Biso   1.000  C
  H28      1.0000 0.88680  0.32520  0.38100  Biso   1.000  H
  C43      1.0000 0.96930  0.27730  0.26769  Biso   1.000  C
  H29      1.0000 0.06190  0.30250  0.31220  Biso   1.000  H
  C44      1.0000 0.33260  0.80797  0.52058  Biso   1.000  C
  C45      1.0000 0.72920  0.69659  0.49636  Biso   1.000  C
  C46      1.0000 0.74850  0.55620  0.31528  Biso   1.000  C
  H30      1.0000 0.75460  0.50890  0.25310  Biso   1.000  H
  C47      1.0000 0.80960  0.76450  0.44433  Biso   1.000  C
  H31      1.0000 0.85670  0.85630  0.47090  Biso   1.000  H
  C48      1.0000 0.81810  0.69290  0.35230  Biso   1.000  C
  H32      1.0000 0.87020  0.73600  0.31550  Biso   1.000  H
