data_image0
_cell_length_a       8.713
_cell_length_b       13.054
_cell_length_c       13.568
_cell_angle_alpha    90
_cell_angle_beta     90
_cell_angle_gamma    90.184

_symmetry_space_group_name_H-M    P 1
_symmetry_int_tables_number       1

loop_
  _symmetry_equiv_pos_as_xyz
  'x, y, z'

loop_
  _atom_site_label
  _atom_site_occupancy
  _atom_site_fract_x
  _atom_site_fract_y
  _atom_site_fract_z
  _atom_site_thermal_displace_type
  _atom_site_B_iso_or_equiv
  _atom_site_type_symbol
  Cu1      1.0000 0.95483  0.41238  0.95983  Biso   1.000  Cu
  Cu2      1.0000 0.54517  0.58762  0.45983  Biso   1.000  Cu
  Cu3      1.0000 0.04517  0.58762  0.04017  Biso   1.000  Cu
  Cu4      1.0000 0.45483  0.41238  0.54017  Biso   1.000  Cu
  H1       1.0000 0.78570  0.37810  0.77210  Biso   1.000  H
  H2       1.0000 0.73710  0.26200  0.65020  Biso   1.000  H
  H3       1.0000 0.91400  0.04370  0.82290  Biso   1.000  H
  H4       1.0000 0.95980  0.16630  0.93980  Biso   1.000  H
  H5       1.0000 0.71670  0.09130  0.59420  Biso   1.000  H
  H6       1.0000 0.72700  0.00370  0.67280  Biso   1.000  H
  H7       1.0000 0.81300  0.88730  0.55290  Biso   1.000  H
  H8       1.0000 0.79340  0.97510  0.47490  Biso   1.000  H
  H9       1.0000 0.93230  0.13520  0.49550  Biso   1.000  H
  H10      1.0000 0.04140  0.14990  0.58650  Biso   1.000  H
  H11      1.0000 0.40970  0.30340  0.05370  Biso   1.000  H
  H12      1.0000 0.49050  0.39620  0.00150  Biso   1.000  H
  H13      1.0000 0.57900  0.38250  0.16360  Biso   1.000  H
  H14      1.0000 0.49440  0.48750  0.14990  Biso   1.000  H
  H15      1.0000 0.36030  0.31200  0.23800  Biso   1.000  H
  H16      1.0000 0.26980  0.41370  0.22000  Biso   1.000  H
  H17      1.0000 0.71430  0.62190  0.27210  Biso   1.000  H
  H18      1.0000 0.76290  0.73800  0.15020  Biso   1.000  H
  H19      1.0000 0.58600  0.95630  0.32290  Biso   1.000  H
  H20      1.0000 0.54020  0.83370  0.43980  Biso   1.000  H
  H21      1.0000 0.78330  0.90870  0.09420  Biso   1.000  H
  H22      1.0000 0.77300  0.99630  0.17280  Biso   1.000  H
  H23      1.0000 0.68700  0.11270  0.05290  Biso   1.000  H
  H24      1.0000 0.70660  0.02490  0.97490  Biso   1.000  H
  H25      1.0000 0.56770  0.86480  0.99550  Biso   1.000  H
  H26      1.0000 0.45860  0.85010  0.08650  Biso   1.000  H
  H27      1.0000 0.09030  0.69660  0.55370  Biso   1.000  H
  H28      1.0000 0.00950  0.60380  0.50150  Biso   1.000  H
  H29      1.0000 0.92100  0.61750  0.66360  Biso   1.000  H
  H30      1.0000 0.00560  0.51250  0.64990  Biso   1.000  H
  H31      1.0000 0.13970  0.68800  0.73800  Biso   1.000  H
  H32      1.0000 0.23020  0.58630  0.72000  Biso   1.000  H
  H33      1.0000 0.21430  0.62190  0.22790  Biso   1.000  H
  H34      1.0000 0.26290  0.73800  0.34980  Biso   1.000  H
  H35      1.0000 0.08600  0.95630  0.17710  Biso   1.000  H
  H36      1.0000 0.04020  0.83370  0.06020  Biso   1.000  H
  H37      1.0000 0.28330  0.90870  0.40580  Biso   1.000  H
  H38      1.0000 0.27300  0.99630  0.32720  Biso   1.000  H
  H39      1.0000 0.18700  0.11270  0.44710  Biso   1.000  H
  H40      1.0000 0.20660  0.02490  0.52510  Biso   1.000  H
  H41      1.0000 0.06770  0.86480  0.50450  Biso   1.000  H
  H42      1.0000 0.95860  0.85010  0.41350  Biso   1.000  H
  H43      1.0000 0.59030  0.69660  0.94630  Biso   1.000  H
  H44      1.0000 0.50950  0.60380  0.99850  Biso   1.000  H
  H45      1.0000 0.42100  0.61750  0.83640  Biso   1.000  H
  H46      1.0000 0.50560  0.51250  0.85010  Biso   1.000  H
  H47      1.0000 0.63970  0.68800  0.76200  Biso   1.000  H
  H48      1.0000 0.73020  0.58630  0.78000  Biso   1.000  H
  H49      1.0000 0.28570  0.37810  0.72790  Biso   1.000  H
  H50      1.0000 0.23710  0.26200  0.84980  Biso   1.000  H
  H51      1.0000 0.41400  0.04370  0.67710  Biso   1.000  H
  H52      1.0000 0.45980  0.16630  0.56020  Biso   1.000  H
  H53      1.0000 0.21670  0.09130  0.90580  Biso   1.000  H
  H54      1.0000 0.22700  0.00370  0.82720  Biso   1.000  H
  H55      1.0000 0.31300  0.88730  0.94710  Biso   1.000  H
  H56      1.0000 0.29340  0.97510  0.02510  Biso   1.000  H
  H57      1.0000 0.43230  0.13520  0.00450  Biso   1.000  H
  H58      1.0000 0.54140  0.14990  0.91350  Biso   1.000  H
  H59      1.0000 0.90970  0.30340  0.44630  Biso   1.000  H
  H60      1.0000 0.99050  0.39620  0.49850  Biso   1.000  H
  H61      1.0000 0.07900  0.38250  0.33640  Biso   1.000  H
  H62      1.0000 0.99440  0.48750  0.35010  Biso   1.000  H
  H63      1.0000 0.86030  0.31200  0.26200  Biso   1.000  H
  H64      1.0000 0.76980  0.41370  0.28000  Biso   1.000  H
  C1       1.0000 0.81300  0.31000  0.78230  Biso   1.000  C
  C2       1.0000 0.78270  0.24050  0.70860  Biso   1.000  C
  C3       1.0000 0.82020  0.13820  0.72167  Biso   1.000  C
  C4       1.0000 0.88750  0.11140  0.81059  Biso   1.000  C
  C5       1.0000 0.91480  0.18580  0.88061  Biso   1.000  C
  C6       1.0000 0.78320  0.06000  0.64290  Biso   1.000  C
  C7       1.0000 0.86580  0.94270  0.51920  Biso   1.000  C
  C8       1.0000 0.00260  0.10028  0.53950  Biso   1.000  C
  C9       1.0000 0.26280  0.42260  0.02817  Biso   1.000  C
  C10      1.0000 0.41810  0.37760  0.05281  Biso   1.000  C
  C11      1.0000 0.48000  0.41380  0.15162  Biso   1.000  C
  C12      1.0000 0.37020  0.38600  0.23520  Biso   1.000  C
  C13      1.0000 0.41860  0.42430  0.33539  Biso   1.000  C
  C14      1.0000 0.68700  0.69000  0.28230  Biso   1.000  C
  C15      1.0000 0.71730  0.75950  0.20860  Biso   1.000  C
  C16      1.0000 0.67980  0.86180  0.22167  Biso   1.000  C
  C17      1.0000 0.61250  0.88860  0.31059  Biso   1.000  C
  C18      1.0000 0.58520  0.81420  0.38061  Biso   1.000  C
  C19      1.0000 0.71680  0.94000  0.14290  Biso   1.000  C
  C20      1.0000 0.63420  0.05730  0.01920  Biso   1.000  C
  C21      1.0000 0.49740  0.89972  0.03950  Biso   1.000  C
  C22      1.0000 0.23720  0.57740  0.52817  Biso   1.000  C
  C23      1.0000 0.08190  0.62240  0.55281  Biso   1.000  C
  C24      1.0000 0.02000  0.58620  0.65162  Biso   1.000  C
  C25      1.0000 0.12980  0.61400  0.73520  Biso   1.000  C
  C26      1.0000 0.08140  0.57570  0.83539  Biso   1.000  C
  C27      1.0000 0.18700  0.69000  0.21770  Biso   1.000  C
  C28      1.0000 0.21730  0.75950  0.29140  Biso   1.000  C
  C29      1.0000 0.17980  0.86180  0.27833  Biso   1.000  C
  C30      1.0000 0.11250  0.88860  0.18941  Biso   1.000  C
  C31      1.0000 0.08520  0.81420  0.11939  Biso   1.000  C
  C32      1.0000 0.21680  0.94000  0.35710  Biso   1.000  C
  C33      1.0000 0.13420  0.05730  0.48080  Biso   1.000  C
  C34      1.0000 0.99740  0.89972  0.46050  Biso   1.000  C
  C35      1.0000 0.73720  0.57740  0.97183  Biso   1.000  C
  C36      1.0000 0.58190  0.62240  0.94719  Biso   1.000  C
  C37      1.0000 0.52000  0.58620  0.84838  Biso   1.000  C
  C38      1.0000 0.62980  0.61400  0.76480  Biso   1.000  C
  C39      1.0000 0.58140  0.57570  0.66461  Biso   1.000  C
  C40      1.0000 0.31300  0.31000  0.71770  Biso   1.000  C
  C41      1.0000 0.28270  0.24050  0.79140  Biso   1.000  C
  C42      1.0000 0.32020  0.13820  0.77833  Biso   1.000  C
  C43      1.0000 0.38750  0.11140  0.68941  Biso   1.000  C
  C44      1.0000 0.41480  0.18580  0.61939  Biso   1.000  C
  C45      1.0000 0.28320  0.06000  0.85710  Biso   1.000  C
  C46      1.0000 0.36580  0.94270  0.98080  Biso   1.000  C
  C47      1.0000 0.50260  0.10028  0.96050  Biso   1.000  C
  C48      1.0000 0.76280  0.42260  0.47183  Biso   1.000  C
  C49      1.0000 0.91810  0.37760  0.44719  Biso   1.000  C
  C50      1.0000 0.98000  0.41380  0.34838  Biso   1.000  C
  C51      1.0000 0.87020  0.38600  0.26480  Biso   1.000  C
  C52      1.0000 0.91860  0.42430  0.16461  Biso   1.000  C
  N1       1.0000 0.87970  0.28494  0.86774  Biso   1.000  N
  N2       1.0000 0.91990  0.01846  0.59237  Biso   1.000  N
  N3       1.0000 0.62030  0.71506  0.36774  Biso   1.000  N
  N4       1.0000 0.58010  0.98154  0.09237  Biso   1.000  N
  N5       1.0000 0.12030  0.71506  0.13226  Biso   1.000  N
  N6       1.0000 0.08010  0.98154  0.40763  Biso   1.000  N
  N7       1.0000 0.37970  0.28494  0.63226  Biso   1.000  N
  N8       1.0000 0.41990  0.01846  0.90763  Biso   1.000  N
  O1       1.0000 0.16430  0.36451  0.98947  Biso   1.000  O
  O2       1.0000 0.24210  0.51502  0.04939  Biso   1.000  O
  O3       1.0000 0.40000  0.36478  0.40791  Biso   1.000  O
  O4       1.0000 0.47160  0.51367  0.34126  Biso   1.000  O
  O5       1.0000 0.33570  0.63549  0.48947  Biso   1.000  O
  O6       1.0000 0.25790  0.48498  0.54939  Biso   1.000  O
  O7       1.0000 0.10000  0.63522  0.90791  Biso   1.000  O
  O8       1.0000 0.02840  0.48633  0.84126  Biso   1.000  O
  O9       1.0000 0.83570  0.63549  0.01053  Biso   1.000  O
  O10      1.0000 0.75790  0.48498  0.95061  Biso   1.000  O
  O11      1.0000 0.60000  0.63522  0.59209  Biso   1.000  O
  O12      1.0000 0.52840  0.48633  0.65874  Biso   1.000  O
  O13      1.0000 0.66430  0.36451  0.51053  Biso   1.000  O
  O14      1.0000 0.74210  0.51502  0.45061  Biso   1.000  O
  O15      1.0000 0.90000  0.36478  0.09209  Biso   1.000  O
  O16      1.0000 0.97160  0.51367  0.15874  Biso   1.000  O
