data_image0
_cell_length_a       8.8641
_cell_length_b       20.698
_cell_length_c       34.229
_cell_angle_alpha    90
_cell_angle_beta     90
_cell_angle_gamma    90

_symmetry_space_group_name_H-M    "P 1"
_symmetry_int_tables_number       1

loop_
  _symmetry_equiv_pos_as_xyz
  'x, y, z'

loop_
  _atom_site_label
  _atom_site_occupancy
  _atom_site_fract_x
  _atom_site_fract_y
  _atom_site_fract_z
  _atom_site_thermal_displace_type
  _atom_site_B_iso_or_equiv
  _atom_site_type_symbol
  O1       1.0000 0.24100  0.33310  0.67910  Biso   1.000  O
  C1       1.0000 0.10250  0.32040  0.68220  Biso   1.000  C
  O2       1.0000 0.00720  0.33610  0.65750  Biso   1.000  O
  C2       1.0000 0.04970  0.28300  0.71720  Biso   1.000  C
  C3       1.0000 0.14930  0.26510  0.74580  Biso   1.000  C
  C4       1.0000 0.10070  0.23120  0.77820  Biso   1.000  C
  O3       1.0000 0.24460  0.45760  0.63450  Biso   1.000  O
  C5       1.0000 0.25850  0.59150  0.62560  Biso   1.000  C
  H1       1.0000 0.25300  0.27580  0.74320  Biso   1.000  H
  H2       1.0000 0.17180  0.21680  0.79700  Biso   1.000  H
  H3       1.0000 0.35140  0.56880  0.62690  Biso   1.000  H
  O4       1.0000 0.24100  0.83310  0.17910  Biso   1.000  O
  C6       1.0000 0.10250  0.82040  0.18220  Biso   1.000  C
  O5       1.0000 0.00720  0.83610  0.15750  Biso   1.000  O
  C7       1.0000 0.04970  0.78300  0.21720  Biso   1.000  C
  C8       1.0000 0.14930  0.76510  0.24580  Biso   1.000  C
  C9       1.0000 0.10070  0.73120  0.27820  Biso   1.000  C
  O6       1.0000 0.24460  0.95760  0.13450  Biso   1.000  O
  C10      1.0000 0.25850  0.09150  0.12560  Biso   1.000  C
  H4       1.0000 0.25300  0.77580  0.24320  Biso   1.000  H
  H5       1.0000 0.17180  0.71680  0.29700  Biso   1.000  H
  H6       1.0000 0.35140  0.06880  0.12690  Biso   1.000  H
  O7       1.0000 0.74100  0.33310  0.17910  Biso   1.000  O
  C11      1.0000 0.60250  0.32040  0.18220  Biso   1.000  C
  O8       1.0000 0.50720  0.33610  0.15750  Biso   1.000  O
  C12      1.0000 0.54970  0.28300  0.21720  Biso   1.000  C
  C13      1.0000 0.64930  0.26510  0.24580  Biso   1.000  C
  C14      1.0000 0.60070  0.23120  0.27820  Biso   1.000  C
  O9       1.0000 0.74460  0.45760  0.13450  Biso   1.000  O
  C15      1.0000 0.75850  0.59150  0.12560  Biso   1.000  C
  H7       1.0000 0.75300  0.27580  0.24320  Biso   1.000  H
  H8       1.0000 0.67180  0.21680  0.29700  Biso   1.000  H
  H9       1.0000 0.85140  0.56880  0.12690  Biso   1.000  H
  O10      1.0000 0.74100  0.83310  0.67910  Biso   1.000  O
  C16      1.0000 0.60250  0.82040  0.68220  Biso   1.000  C
  O11      1.0000 0.50720  0.83610  0.65750  Biso   1.000  O
  C17      1.0000 0.54970  0.78300  0.71720  Biso   1.000  C
  C18      1.0000 0.64930  0.76510  0.74580  Biso   1.000  C
  C19      1.0000 0.60070  0.73120  0.77820  Biso   1.000  C
  O12      1.0000 0.74460  0.95760  0.63450  Biso   1.000  O
  C20      1.0000 0.75850  0.09150  0.62560  Biso   1.000  C
  H10      1.0000 0.75300  0.77580  0.74320  Biso   1.000  H
  H11      1.0000 0.67180  0.71680  0.79700  Biso   1.000  H
  H12      1.0000 0.85140  0.06880  0.62690  Biso   1.000  H
  O13      1.0000 0.50900  0.41690  0.67910  Biso   1.000  O
  C21      1.0000 0.64750  0.42960  0.68220  Biso   1.000  C
  O14      1.0000 0.74280  0.41390  0.65750  Biso   1.000  O
  C22      1.0000 0.70030  0.46700  0.71720  Biso   1.000  C
  C23      1.0000 0.60070  0.48490  0.74580  Biso   1.000  C
  C24      1.0000 0.64930  0.51880  0.77820  Biso   1.000  C
  O15      1.0000 0.50540  0.29240  0.63450  Biso   1.000  O
  C25      1.0000 0.49150  0.15850  0.62560  Biso   1.000  C
  H13      1.0000 0.49700  0.47420  0.74320  Biso   1.000  H
  H14      1.0000 0.57820  0.53320  0.79700  Biso   1.000  H
  H15      1.0000 0.39860  0.18120  0.62690  Biso   1.000  H
  O16      1.0000 0.50900  0.91690  0.17910  Biso   1.000  O
  C26      1.0000 0.64750  0.92960  0.18220  Biso   1.000  C
  O17      1.0000 0.74280  0.91390  0.15750  Biso   1.000  O
  C27      1.0000 0.70030  0.96700  0.21720  Biso   1.000  C
  C28      1.0000 0.60070  0.98490  0.24580  Biso   1.000  C
  C29      1.0000 0.64930  0.01880  0.27820  Biso   1.000  C
  O18      1.0000 0.50540  0.79240  0.13450  Biso   1.000  O
  C30      1.0000 0.49150  0.65850  0.12560  Biso   1.000  C
  H16      1.0000 0.49700  0.97420  0.24320  Biso   1.000  H
  H17      1.0000 0.57820  0.03320  0.29700  Biso   1.000  H
  H18      1.0000 0.39860  0.68120  0.12690  Biso   1.000  H
  O19      1.0000 0.00900  0.41690  0.17910  Biso   1.000  O
  C31      1.0000 0.14750  0.42960  0.18220  Biso   1.000  C
  O20      1.0000 0.24280  0.41390  0.15750  Biso   1.000  O
  C32      1.0000 0.20030  0.46700  0.21720  Biso   1.000  C
  C33      1.0000 0.10070  0.48490  0.24580  Biso   1.000  C
  C34      1.0000 0.14930  0.51880  0.27820  Biso   1.000  C
  O21      1.0000 0.00540  0.29240  0.13450  Biso   1.000  O
  C35      1.0000 0.99150  0.15850  0.12560  Biso   1.000  C
  H19      1.0000 0.99700  0.47420  0.24320  Biso   1.000  H
  H20      1.0000 0.07820  0.53320  0.29700  Biso   1.000  H
  H21      1.0000 0.89860  0.18120  0.12690  Biso   1.000  H
  O22      1.0000 0.00900  0.91690  0.67910  Biso   1.000  O
  C36      1.0000 0.14750  0.92960  0.68220  Biso   1.000  C
  O23      1.0000 0.24280  0.91390  0.65750  Biso   1.000  O
  C37      1.0000 0.20030  0.96700  0.71720  Biso   1.000  C
  C38      1.0000 0.10070  0.98490  0.74580  Biso   1.000  C
  C39      1.0000 0.14930  0.01880  0.77820  Biso   1.000  C
  O24      1.0000 0.00540  0.79240  0.63450  Biso   1.000  O
  C40      1.0000 0.99150  0.65850  0.62560  Biso   1.000  C
  H22      1.0000 0.99700  0.97420  0.74320  Biso   1.000  H
  H23      1.0000 0.07820  0.03320  0.79700  Biso   1.000  H
  H24      1.0000 0.89860  0.68120  0.62690  Biso   1.000  H
  O25      1.0000 0.50900  0.33310  0.07090  Biso   1.000  O
  C41      1.0000 0.64750  0.32040  0.06780  Biso   1.000  C
  O26      1.0000 0.74280  0.33610  0.09250  Biso   1.000  O
  C42      1.0000 0.70030  0.28300  0.03280  Biso   1.000  C
  C43      1.0000 0.60070  0.26510  0.00420  Biso   1.000  C
  C44      1.0000 0.64930  0.23120  0.97180  Biso   1.000  C
  O27      1.0000 0.50540  0.45760  0.11550  Biso   1.000  O
  C45      1.0000 0.49150  0.59150  0.12440  Biso   1.000  C
  H25      1.0000 0.49700  0.27580  0.00680  Biso   1.000  H
  H26      1.0000 0.57820  0.21680  0.95300  Biso   1.000  H
  H27      1.0000 0.39860  0.56880  0.12310  Biso   1.000  H
  O28      1.0000 0.50900  0.83310  0.57090  Biso   1.000  O
  C46      1.0000 0.64750  0.82040  0.56780  Biso   1.000  C
  O29      1.0000 0.74280  0.83610  0.59250  Biso   1.000  O
  C47      1.0000 0.70030  0.78300  0.53280  Biso   1.000  C
  C48      1.0000 0.60070  0.76510  0.50420  Biso   1.000  C
  C49      1.0000 0.64930  0.73120  0.47180  Biso   1.000  C
  O30      1.0000 0.50540  0.95760  0.61550  Biso   1.000  O
  C50      1.0000 0.49150  0.09150  0.62440  Biso   1.000  C
  H28      1.0000 0.49700  0.77580  0.50680  Biso   1.000  H
  H29      1.0000 0.57820  0.71680  0.45300  Biso   1.000  H
  H30      1.0000 0.39860  0.06880  0.62310  Biso   1.000  H
  O31      1.0000 0.00900  0.33310  0.57090  Biso   1.000  O
  C51      1.0000 0.14750  0.32040  0.56780  Biso   1.000  C
  O32      1.0000 0.24280  0.33610  0.59250  Biso   1.000  O
  C52      1.0000 0.20030  0.28300  0.53280  Biso   1.000  C
  C53      1.0000 0.10070  0.26510  0.50420  Biso   1.000  C
  C54      1.0000 0.14930  0.23120  0.47180  Biso   1.000  C
  O33      1.0000 0.00540  0.45760  0.61550  Biso   1.000  O
  C55      1.0000 0.99150  0.59150  0.62440  Biso   1.000  C
  H31      1.0000 0.99700  0.27580  0.50680  Biso   1.000  H
  H32      1.0000 0.07820  0.21680  0.45300  Biso   1.000  H
  H33      1.0000 0.89860  0.56880  0.62310  Biso   1.000  H
  O34      1.0000 0.00900  0.83310  0.07090  Biso   1.000  O
  C56      1.0000 0.14750  0.82040  0.06780  Biso   1.000  C
  O35      1.0000 0.24280  0.83610  0.09250  Biso   1.000  O
  C57      1.0000 0.20030  0.78300  0.03280  Biso   1.000  C
  C58      1.0000 0.10070  0.76510  0.00420  Biso   1.000  C
  C59      1.0000 0.14930  0.73120  0.97180  Biso   1.000  C
  O36      1.0000 0.00540  0.95760  0.11550  Biso   1.000  O
  C60      1.0000 0.99150  0.09150  0.12440  Biso   1.000  C
  H34      1.0000 0.99700  0.77580  0.00680  Biso   1.000  H
  H35      1.0000 0.07820  0.71680  0.95300  Biso   1.000  H
  H36      1.0000 0.89860  0.06880  0.12310  Biso   1.000  H
  O37      1.0000 0.24100  0.41690  0.07090  Biso   1.000  O
  C61      1.0000 0.10250  0.42960  0.06780  Biso   1.000  C
  O38      1.0000 0.00720  0.41390  0.09250  Biso   1.000  O
  C62      1.0000 0.04970  0.46700  0.03280  Biso   1.000  C
  C63      1.0000 0.14930  0.48490  0.00420  Biso   1.000  C
  C64      1.0000 0.10070  0.51880  0.97180  Biso   1.000  C
  O39      1.0000 0.24460  0.29240  0.11550  Biso   1.000  O
  C65      1.0000 0.25850  0.15850  0.12440  Biso   1.000  C
  H37      1.0000 0.25300  0.47420  0.00680  Biso   1.000  H
  H38      1.0000 0.17180  0.53320  0.95300  Biso   1.000  H
  H39      1.0000 0.35140  0.18120  0.12310  Biso   1.000  H
  O40      1.0000 0.24100  0.91690  0.57090  Biso   1.000  O
  C66      1.0000 0.10250  0.92960  0.56780  Biso   1.000  C
  O41      1.0000 0.00720  0.91390  0.59250  Biso   1.000  O
  C67      1.0000 0.04970  0.96700  0.53280  Biso   1.000  C
  C68      1.0000 0.14930  0.98490  0.50420  Biso   1.000  C
  C69      1.0000 0.10070  0.01880  0.47180  Biso   1.000  C
  O42      1.0000 0.24460  0.79240  0.61550  Biso   1.000  O
  C70      1.0000 0.25850  0.65850  0.62440  Biso   1.000  C
  H40      1.0000 0.25300  0.97420  0.50680  Biso   1.000  H
  H41      1.0000 0.17180  0.03320  0.45300  Biso   1.000  H
  H42      1.0000 0.35140  0.68120  0.62310  Biso   1.000  H
  O43      1.0000 0.74100  0.41690  0.57090  Biso   1.000  O
  C71      1.0000 0.60250  0.42960  0.56780  Biso   1.000  C
  O44      1.0000 0.50720  0.41390  0.59250  Biso   1.000  O
  C72      1.0000 0.54970  0.46700  0.53280  Biso   1.000  C
  C73      1.0000 0.64930  0.48490  0.50420  Biso   1.000  C
  C74      1.0000 0.60070  0.51880  0.47180  Biso   1.000  C
  O45      1.0000 0.74460  0.29240  0.61550  Biso   1.000  O
  C75      1.0000 0.75850  0.15850  0.62440  Biso   1.000  C
  H43      1.0000 0.75300  0.47420  0.50680  Biso   1.000  H
  H44      1.0000 0.67180  0.53320  0.45300  Biso   1.000  H
  H45      1.0000 0.85140  0.18120  0.62310  Biso   1.000  H
  O46      1.0000 0.74100  0.91690  0.07090  Biso   1.000  O
  C76      1.0000 0.60250  0.92960  0.06780  Biso   1.000  C
  O47      1.0000 0.50720  0.91390  0.09250  Biso   1.000  O
  C77      1.0000 0.54970  0.96700  0.03280  Biso   1.000  C
  C78      1.0000 0.64930  0.98490  0.00420  Biso   1.000  C
  C79      1.0000 0.60070  0.01880  0.97180  Biso   1.000  C
  O48      1.0000 0.74460  0.79240  0.11550  Biso   1.000  O
  C80      1.0000 0.75850  0.65850  0.12440  Biso   1.000  C
  H46      1.0000 0.75300  0.97420  0.00680  Biso   1.000  H
  H47      1.0000 0.67180  0.03320  0.95300  Biso   1.000  H
  H48      1.0000 0.85140  0.68120  0.12310  Biso   1.000  H
  O49      1.0000 0.75900  0.66690  0.32090  Biso   1.000  O
  C81      1.0000 0.89750  0.67960  0.31780  Biso   1.000  C
  O50      1.0000 0.99280  0.66390  0.34250  Biso   1.000  O
  C82      1.0000 0.95030  0.71700  0.28280  Biso   1.000  C
  C83      1.0000 0.85070  0.73490  0.25420  Biso   1.000  C
  C84      1.0000 0.89930  0.76880  0.22180  Biso   1.000  C
  O51      1.0000 0.75540  0.54240  0.36550  Biso   1.000  O
  C85      1.0000 0.74150  0.40850  0.37440  Biso   1.000  C
  H49      1.0000 0.74700  0.72420  0.25680  Biso   1.000  H
  H50      1.0000 0.82820  0.78320  0.20300  Biso   1.000  H
  H51      1.0000 0.64860  0.43120  0.37310  Biso   1.000  H
  O52      1.0000 0.75900  0.16690  0.82090  Biso   1.000  O
  C86      1.0000 0.89750  0.17960  0.81780  Biso   1.000  C
  O53      1.0000 0.99280  0.16390  0.84250  Biso   1.000  O
  C87      1.0000 0.95030  0.21700  0.78280  Biso   1.000  C
  C88      1.0000 0.85070  0.23490  0.75420  Biso   1.000  C
  C89      1.0000 0.89930  0.26880  0.72180  Biso   1.000  C
  O54      1.0000 0.75540  0.04240  0.86550  Biso   1.000  O
  C90      1.0000 0.74150  0.90850  0.87440  Biso   1.000  C
  H52      1.0000 0.74700  0.22420  0.75680  Biso   1.000  H
  H53      1.0000 0.82820  0.28320  0.70300  Biso   1.000  H
  H54      1.0000 0.64860  0.93120  0.87310  Biso   1.000  H
  O55      1.0000 0.25900  0.66690  0.82090  Biso   1.000  O
  C91      1.0000 0.39750  0.67960  0.81780  Biso   1.000  C
  O56      1.0000 0.49280  0.66390  0.84250  Biso   1.000  O
  C92      1.0000 0.45030  0.71700  0.78280  Biso   1.000  C
  C93      1.0000 0.35070  0.73490  0.75420  Biso   1.000  C
  C94      1.0000 0.39930  0.76880  0.72180  Biso   1.000  C
  O57      1.0000 0.25540  0.54240  0.86550  Biso   1.000  O
  C95      1.0000 0.24150  0.40850  0.87440  Biso   1.000  C
  H55      1.0000 0.24700  0.72420  0.75680  Biso   1.000  H
  H56      1.0000 0.32820  0.78320  0.70300  Biso   1.000  H
  H57      1.0000 0.14860  0.43120  0.87310  Biso   1.000  H
  O58      1.0000 0.25900  0.16690  0.32090  Biso   1.000  O
  C96      1.0000 0.39750  0.17960  0.31780  Biso   1.000  C
  O59      1.0000 0.49280  0.16390  0.34250  Biso   1.000  O
  C97      1.0000 0.45030  0.21700  0.28280  Biso   1.000  C
  C98      1.0000 0.35070  0.23490  0.25420  Biso   1.000  C
  C99      1.0000 0.39930  0.26880  0.22180  Biso   1.000  C
  O60      1.0000 0.25540  0.04240  0.36550  Biso   1.000  O
  C100     1.0000 0.24150  0.90850  0.37440  Biso   1.000  C
  H58      1.0000 0.24700  0.22420  0.25680  Biso   1.000  H
  H59      1.0000 0.32820  0.28320  0.20300  Biso   1.000  H
  H60      1.0000 0.14860  0.93120  0.37310  Biso   1.000  H
  O61      1.0000 0.49100  0.58310  0.32090  Biso   1.000  O
  C101     1.0000 0.35250  0.57040  0.31780  Biso   1.000  C
  O62      1.0000 0.25720  0.58610  0.34250  Biso   1.000  O
  C102     1.0000 0.29970  0.53300  0.28280  Biso   1.000  C
  C103     1.0000 0.39930  0.51510  0.25420  Biso   1.000  C
  C104     1.0000 0.35070  0.48120  0.22180  Biso   1.000  C
  O63      1.0000 0.49460  0.70760  0.36550  Biso   1.000  O
  C105     1.0000 0.50850  0.84150  0.37440  Biso   1.000  C
  H61      1.0000 0.50300  0.52580  0.25680  Biso   1.000  H
  H62      1.0000 0.42180  0.46680  0.20300  Biso   1.000  H
  H63      1.0000 0.60140  0.81880  0.37310  Biso   1.000  H
  O64      1.0000 0.49100  0.08310  0.82090  Biso   1.000  O
  C106     1.0000 0.35250  0.07040  0.81780  Biso   1.000  C
  O65      1.0000 0.25720  0.08610  0.84250  Biso   1.000  O
  C107     1.0000 0.29970  0.03300  0.78280  Biso   1.000  C
  C108     1.0000 0.39930  0.01510  0.75420  Biso   1.000  C
  C109     1.0000 0.35070  0.98120  0.72180  Biso   1.000  C
  O66      1.0000 0.49460  0.20760  0.86550  Biso   1.000  O
  C110     1.0000 0.50850  0.34150  0.87440  Biso   1.000  C
  H64      1.0000 0.50300  0.02580  0.75680  Biso   1.000  H
  H65      1.0000 0.42180  0.96680  0.70300  Biso   1.000  H
  H66      1.0000 0.60140  0.31880  0.87310  Biso   1.000  H
  O67      1.0000 0.99100  0.58310  0.82090  Biso   1.000  O
  C111     1.0000 0.85250  0.57040  0.81780  Biso   1.000  C
  O68      1.0000 0.75720  0.58610  0.84250  Biso   1.000  O
  C112     1.0000 0.79970  0.53300  0.78280  Biso   1.000  C
  C113     1.0000 0.89930  0.51510  0.75420  Biso   1.000  C
  C114     1.0000 0.85070  0.48120  0.72180  Biso   1.000  C
  O69      1.0000 0.99460  0.70760  0.86550  Biso   1.000  O
  C115     1.0000 0.00850  0.84150  0.87440  Biso   1.000  C
  H67      1.0000 0.00300  0.52580  0.75680  Biso   1.000  H
  H68      1.0000 0.92180  0.46680  0.70300  Biso   1.000  H
  H69      1.0000 0.10140  0.81880  0.87310  Biso   1.000  H
  O70      1.0000 0.99100  0.08310  0.32090  Biso   1.000  O
  C116     1.0000 0.85250  0.07040  0.31780  Biso   1.000  C
  O71      1.0000 0.75720  0.08610  0.34250  Biso   1.000  O
  C117     1.0000 0.79970  0.03300  0.28280  Biso   1.000  C
  C118     1.0000 0.89930  0.01510  0.25420  Biso   1.000  C
  C119     1.0000 0.85070  0.98120  0.22180  Biso   1.000  C
  O72      1.0000 0.99460  0.20760  0.36550  Biso   1.000  O
  C120     1.0000 0.00850  0.34150  0.37440  Biso   1.000  C
  H70      1.0000 0.00300  0.02580  0.25680  Biso   1.000  H
  H71      1.0000 0.92180  0.96680  0.20300  Biso   1.000  H
  H72      1.0000 0.10140  0.31880  0.37310  Biso   1.000  H
  O73      1.0000 0.49100  0.66690  0.92910  Biso   1.000  O
  C121     1.0000 0.35250  0.67960  0.93220  Biso   1.000  C
  O74      1.0000 0.25720  0.66390  0.90750  Biso   1.000  O
  C122     1.0000 0.29970  0.71700  0.96720  Biso   1.000  C
  C123     1.0000 0.39930  0.73490  0.99580  Biso   1.000  C
  C124     1.0000 0.35070  0.76880  0.02820  Biso   1.000  C
  O75      1.0000 0.49460  0.54240  0.88450  Biso   1.000  O
  C125     1.0000 0.50850  0.40850  0.87560  Biso   1.000  C
  H73      1.0000 0.50300  0.72420  0.99320  Biso   1.000  H
  H74      1.0000 0.42180  0.78320  0.04700  Biso   1.000  H
  H75      1.0000 0.60140  0.43120  0.87690  Biso   1.000  H
  O76      1.0000 0.49100  0.16690  0.42910  Biso   1.000  O
  C126     1.0000 0.35250  0.17960  0.43220  Biso   1.000  C
  O77      1.0000 0.25720  0.16390  0.40750  Biso   1.000  O
  C127     1.0000 0.29970  0.21700  0.46720  Biso   1.000  C
  C128     1.0000 0.39930  0.23490  0.49580  Biso   1.000  C
  C129     1.0000 0.35070  0.26880  0.52820  Biso   1.000  C
  O78      1.0000 0.49460  0.04240  0.38450  Biso   1.000  O
  C130     1.0000 0.50850  0.90850  0.37560  Biso   1.000  C
  H76      1.0000 0.50300  0.22420  0.49320  Biso   1.000  H
  H77      1.0000 0.42180  0.28320  0.54700  Biso   1.000  H
  H78      1.0000 0.60140  0.93120  0.37690  Biso   1.000  H
  O79      1.0000 0.99100  0.66690  0.42910  Biso   1.000  O
  C131     1.0000 0.85250  0.67960  0.43220  Biso   1.000  C
  O80      1.0000 0.75720  0.66390  0.40750  Biso   1.000  O
  C132     1.0000 0.79970  0.71700  0.46720  Biso   1.000  C
  C133     1.0000 0.89930  0.73490  0.49580  Biso   1.000  C
  C134     1.0000 0.85070  0.76880  0.52820  Biso   1.000  C
  O81      1.0000 0.99460  0.54240  0.38450  Biso   1.000  O
  C135     1.0000 0.00850  0.40850  0.37560  Biso   1.000  C
  H79      1.0000 0.00300  0.72420  0.49320  Biso   1.000  H
  H80      1.0000 0.92180  0.78320  0.54700  Biso   1.000  H
  H81      1.0000 0.10140  0.43120  0.37690  Biso   1.000  H
  O82      1.0000 0.99100  0.16690  0.92910  Biso   1.000  O
  C136     1.0000 0.85250  0.17960  0.93220  Biso   1.000  C
  O83      1.0000 0.75720  0.16390  0.90750  Biso   1.000  O
  C137     1.0000 0.79970  0.21700  0.96720  Biso   1.000  C
  C138     1.0000 0.89930  0.23490  0.99580  Biso   1.000  C
  C139     1.0000 0.85070  0.26880  0.02820  Biso   1.000  C
  O84      1.0000 0.99460  0.04240  0.88450  Biso   1.000  O
  C140     1.0000 0.00850  0.90850  0.87560  Biso   1.000  C
  H82      1.0000 0.00300  0.22420  0.99320  Biso   1.000  H
  H83      1.0000 0.92180  0.28320  0.04700  Biso   1.000  H
  H84      1.0000 0.10140  0.93120  0.87690  Biso   1.000  H
  O85      1.0000 0.75900  0.58310  0.92910  Biso   1.000  O
  C141     1.0000 0.89750  0.57040  0.93220  Biso   1.000  C
  O86      1.0000 0.99280  0.58610  0.90750  Biso   1.000  O
  C142     1.0000 0.95030  0.53300  0.96720  Biso   1.000  C
  C143     1.0000 0.85070  0.51510  0.99580  Biso   1.000  C
  C144     1.0000 0.89930  0.48120  0.02820  Biso   1.000  C
  O87      1.0000 0.75540  0.70760  0.88450  Biso   1.000  O
  C145     1.0000 0.74150  0.84150  0.87560  Biso   1.000  C
  H85      1.0000 0.74700  0.52580  0.99320  Biso   1.000  H
  H86      1.0000 0.82820  0.46680  0.04700  Biso   1.000  H
  H87      1.0000 0.64860  0.81880  0.87690  Biso   1.000  H
  O88      1.0000 0.75900  0.08310  0.42910  Biso   1.000  O
  C146     1.0000 0.89750  0.07040  0.43220  Biso   1.000  C
  O89      1.0000 0.99280  0.08610  0.40750  Biso   1.000  O
  C147     1.0000 0.95030  0.03300  0.46720  Biso   1.000  C
  C148     1.0000 0.85070  0.01510  0.49580  Biso   1.000  C
  C149     1.0000 0.89930  0.98120  0.52820  Biso   1.000  C
  O90      1.0000 0.75540  0.20760  0.38450  Biso   1.000  O
  C150     1.0000 0.74150  0.34150  0.37560  Biso   1.000  C
  H88      1.0000 0.74700  0.02580  0.49320  Biso   1.000  H
  H89      1.0000 0.82820  0.96680  0.54700  Biso   1.000  H
  H90      1.0000 0.64860  0.31880  0.37690  Biso   1.000  H
  O91      1.0000 0.25900  0.58310  0.42910  Biso   1.000  O
  C151     1.0000 0.39750  0.57040  0.43220  Biso   1.000  C
  O92      1.0000 0.49280  0.58610  0.40750  Biso   1.000  O
  C152     1.0000 0.45030  0.53300  0.46720  Biso   1.000  C
  C153     1.0000 0.35070  0.51510  0.49580  Biso   1.000  C
  C154     1.0000 0.39930  0.48120  0.52820  Biso   1.000  C
  O93      1.0000 0.25540  0.70760  0.38450  Biso   1.000  O
  C155     1.0000 0.24150  0.84150  0.37560  Biso   1.000  C
  H91      1.0000 0.24700  0.52580  0.49320  Biso   1.000  H
  H92      1.0000 0.32820  0.46680  0.54700  Biso   1.000  H
  H93      1.0000 0.14860  0.81880  0.37690  Biso   1.000  H
  O94      1.0000 0.25900  0.08310  0.92910  Biso   1.000  O
  C156     1.0000 0.39750  0.07040  0.93220  Biso   1.000  C
  O95      1.0000 0.49280  0.08610  0.90750  Biso   1.000  O
  C157     1.0000 0.45030  0.03300  0.96720  Biso   1.000  C
  C158     1.0000 0.35070  0.01510  0.99580  Biso   1.000  C
  C159     1.0000 0.39930  0.98120  0.02820  Biso   1.000  C
  O96      1.0000 0.25540  0.20760  0.88450  Biso   1.000  O
  C160     1.0000 0.24150  0.34150  0.87560  Biso   1.000  C
  H94      1.0000 0.24700  0.02580  0.99320  Biso   1.000  H
  H95      1.0000 0.32820  0.96680  0.04700  Biso   1.000  H
  H96      1.0000 0.14860  0.31880  0.87690  Biso   1.000  H
  Sc1      1.0000 0.37500  0.37500  0.63544  Biso   1.000  Sc
  Sc2      1.0000 0.37500  0.87500  0.13544  Biso   1.000  Sc
  Sc3      1.0000 0.87500  0.37500  0.13544  Biso   1.000  Sc
  Sc4      1.0000 0.87500  0.87500  0.63544  Biso   1.000  Sc
  Sc5      1.0000 0.37500  0.37500  0.11456  Biso   1.000  Sc
  Sc6      1.0000 0.37500  0.87500  0.61456  Biso   1.000  Sc
  Sc7      1.0000 0.87500  0.37500  0.61456  Biso   1.000  Sc
  Sc8      1.0000 0.87500  0.87500  0.11456  Biso   1.000  Sc
  Sc9      1.0000 0.62500  0.62500  0.36456  Biso   1.000  Sc
  Sc10     1.0000 0.62500  0.12500  0.86456  Biso   1.000  Sc
  Sc11     1.0000 0.12500  0.62500  0.86456  Biso   1.000  Sc
  Sc12     1.0000 0.12500  0.12500  0.36456  Biso   1.000  Sc
  Sc13     1.0000 0.62500  0.62500  0.88544  Biso   1.000  Sc
  Sc14     1.0000 0.62500  0.12500  0.38544  Biso   1.000  Sc
  Sc15     1.0000 0.12500  0.62500  0.38544  Biso   1.000  Sc
  Sc16     1.0000 0.12500  0.12500  0.88544  Biso   1.000  Sc
  C161     1.0000 0.12500  0.48580  0.62500  Biso   1.000  C
  C162     1.0000 0.12500  0.55800  0.62500  Biso   1.000  C
  C163     1.0000 0.12500  0.98580  0.12500  Biso   1.000  C
  C164     1.0000 0.12500  0.05800  0.12500  Biso   1.000  C
  C165     1.0000 0.62500  0.98580  0.62500  Biso   1.000  C
  C166     1.0000 0.62500  0.05800  0.62500  Biso   1.000  C
  C167     1.0000 0.62500  0.26420  0.62500  Biso   1.000  C
  C168     1.0000 0.62500  0.19200  0.62500  Biso   1.000  C
  C169     1.0000 0.62500  0.76420  0.12500  Biso   1.000  C
  C170     1.0000 0.62500  0.69200  0.12500  Biso   1.000  C
  C171     1.0000 0.62500  0.48580  0.12500  Biso   1.000  C
  C172     1.0000 0.62500  0.55800  0.12500  Biso   1.000  C
  C173     1.0000 0.12500  0.26420  0.12500  Biso   1.000  C
  C174     1.0000 0.12500  0.19200  0.12500  Biso   1.000  C
  C175     1.0000 0.12500  0.76420  0.62500  Biso   1.000  C
  C176     1.0000 0.12500  0.69200  0.62500  Biso   1.000  C
  C177     1.0000 0.87500  0.51420  0.37500  Biso   1.000  C
  C178     1.0000 0.87500  0.44200  0.37500  Biso   1.000  C
  C179     1.0000 0.87500  0.01420  0.87500  Biso   1.000  C
  C180     1.0000 0.87500  0.94200  0.87500  Biso   1.000  C
  C181     1.0000 0.37500  0.73580  0.37500  Biso   1.000  C
  C182     1.0000 0.37500  0.80800  0.37500  Biso   1.000  C
  C183     1.0000 0.37500  0.23580  0.87500  Biso   1.000  C
  C184     1.0000 0.37500  0.30800  0.87500  Biso   1.000  C
  C185     1.0000 0.37500  0.51420  0.87500  Biso   1.000  C
  C186     1.0000 0.37500  0.44200  0.87500  Biso   1.000  C
  C187     1.0000 0.37500  0.01420  0.37500  Biso   1.000  C
  C188     1.0000 0.37500  0.94200  0.37500  Biso   1.000  C
  C189     1.0000 0.87500  0.73580  0.87500  Biso   1.000  C
  C190     1.0000 0.87500  0.80800  0.87500  Biso   1.000  C
  C191     1.0000 0.87500  0.23580  0.37500  Biso   1.000  C
  C192     1.0000 0.87500  0.30800  0.37500  Biso   1.000  C
