data_image0
_cell_length_a       8.8041
_cell_length_b       20.625
_cell_length_c       34.062
_cell_angle_alpha    90
_cell_angle_beta     90
_cell_angle_gamma    90

_symmetry_space_group_name_H-M    "P 1"
_symmetry_int_tables_number       1

loop_
  _symmetry_equiv_pos_as_xyz
  'x, y, z'

loop_
  _atom_site_label
  _atom_site_occupancy
  _atom_site_fract_x
  _atom_site_fract_y
  _atom_site_fract_z
  _atom_site_thermal_displace_type
  _atom_site_B_iso_or_equiv
  _atom_site_type_symbol
  O1       1.0000 0.24450  0.33190  0.67880  Biso   1.000  O
  C1       1.0000 0.10460  0.31990  0.68190  Biso   1.000  C
  O2       1.0000 0.00770  0.33640  0.65710  Biso   1.000  O
  C2       1.0000 0.05020  0.28390  0.71760  Biso   1.000  C
  C3       1.0000 0.15040  0.26610  0.74620  Biso   1.000  C
  C4       1.0000 0.10160  0.22970  0.77780  Biso   1.000  C
  O3       1.0000 0.24550  0.45810  0.63450  Biso   1.000  O
  C5       1.0000 0.25980  0.59160  0.62440  Biso   1.000  C
  H1       1.0000 0.25410  0.27690  0.74360  Biso   1.000  H
  H2       1.0000 0.17270  0.21530  0.79670  Biso   1.000  H
  H3       1.0000 0.35270  0.56880  0.62570  Biso   1.000  H
  O4       1.0000 0.24450  0.83190  0.17880  Biso   1.000  O
  C6       1.0000 0.10460  0.81990  0.18190  Biso   1.000  C
  O5       1.0000 0.00770  0.83640  0.15710  Biso   1.000  O
  C7       1.0000 0.05020  0.78390  0.21760  Biso   1.000  C
  C8       1.0000 0.15040  0.76610  0.24620  Biso   1.000  C
  C9       1.0000 0.10160  0.72970  0.27780  Biso   1.000  C
  O6       1.0000 0.24550  0.95810  0.13450  Biso   1.000  O
  C10      1.0000 0.25980  0.09160  0.12440  Biso   1.000  C
  H4       1.0000 0.25410  0.77690  0.24360  Biso   1.000  H
  H5       1.0000 0.17270  0.71530  0.29670  Biso   1.000  H
  H6       1.0000 0.35270  0.06880  0.12570  Biso   1.000  H
  O7       1.0000 0.74450  0.33190  0.17880  Biso   1.000  O
  C11      1.0000 0.60460  0.31990  0.18190  Biso   1.000  C
  O8       1.0000 0.50770  0.33640  0.15710  Biso   1.000  O
  C12      1.0000 0.55020  0.28390  0.21760  Biso   1.000  C
  C13      1.0000 0.65040  0.26610  0.24620  Biso   1.000  C
  C14      1.0000 0.60160  0.22970  0.27780  Biso   1.000  C
  O9       1.0000 0.74550  0.45810  0.13450  Biso   1.000  O
  C15      1.0000 0.75980  0.59160  0.12440  Biso   1.000  C
  H7       1.0000 0.75410  0.27690  0.24360  Biso   1.000  H
  H8       1.0000 0.67270  0.21530  0.29670  Biso   1.000  H
  H9       1.0000 0.85270  0.56880  0.12570  Biso   1.000  H
  O10      1.0000 0.74450  0.83190  0.67880  Biso   1.000  O
  C16      1.0000 0.60460  0.81990  0.68190  Biso   1.000  C
  O11      1.0000 0.50770  0.83640  0.65710  Biso   1.000  O
  C17      1.0000 0.55020  0.78390  0.71760  Biso   1.000  C
  C18      1.0000 0.65040  0.76610  0.74620  Biso   1.000  C
  C19      1.0000 0.60160  0.72970  0.77780  Biso   1.000  C
  O12      1.0000 0.74550  0.95810  0.63450  Biso   1.000  O
  C20      1.0000 0.75980  0.09160  0.62440  Biso   1.000  C
  H10      1.0000 0.75410  0.77690  0.74360  Biso   1.000  H
  H11      1.0000 0.67270  0.71530  0.79670  Biso   1.000  H
  H12      1.0000 0.85270  0.06880  0.62570  Biso   1.000  H
  O13      1.0000 0.50550  0.41810  0.67880  Biso   1.000  O
  C21      1.0000 0.64540  0.43010  0.68190  Biso   1.000  C
  O14      1.0000 0.74230  0.41360  0.65710  Biso   1.000  O
  C22      1.0000 0.69980  0.46610  0.71760  Biso   1.000  C
  C23      1.0000 0.59960  0.48390  0.74620  Biso   1.000  C
  C24      1.0000 0.64840  0.52030  0.77780  Biso   1.000  C
  O15      1.0000 0.50450  0.29190  0.63450  Biso   1.000  O
  C25      1.0000 0.49020  0.15840  0.62440  Biso   1.000  C
  H13      1.0000 0.49590  0.47310  0.74360  Biso   1.000  H
  H14      1.0000 0.57730  0.53470  0.79670  Biso   1.000  H
  H15      1.0000 0.39730  0.18120  0.62570  Biso   1.000  H
  O16      1.0000 0.50550  0.91810  0.17880  Biso   1.000  O
  C26      1.0000 0.64540  0.93010  0.18190  Biso   1.000  C
  O17      1.0000 0.74230  0.91360  0.15710  Biso   1.000  O
  C27      1.0000 0.69980  0.96610  0.21760  Biso   1.000  C
  C28      1.0000 0.59960  0.98390  0.24620  Biso   1.000  C
  C29      1.0000 0.64840  0.02030  0.27780  Biso   1.000  C
  O18      1.0000 0.50450  0.79190  0.13450  Biso   1.000  O
  C30      1.0000 0.49020  0.65840  0.12440  Biso   1.000  C
  H16      1.0000 0.49590  0.97310  0.24360  Biso   1.000  H
  H17      1.0000 0.57730  0.03470  0.29670  Biso   1.000  H
  H18      1.0000 0.39730  0.68120  0.12570  Biso   1.000  H
  O19      1.0000 0.00550  0.41810  0.17880  Biso   1.000  O
  C31      1.0000 0.14540  0.43010  0.18190  Biso   1.000  C
  O20      1.0000 0.24230  0.41360  0.15710  Biso   1.000  O
  C32      1.0000 0.19980  0.46610  0.21760  Biso   1.000  C
  C33      1.0000 0.09960  0.48390  0.24620  Biso   1.000  C
  C34      1.0000 0.14840  0.52030  0.27780  Biso   1.000  C
  O21      1.0000 0.00450  0.29190  0.13450  Biso   1.000  O
  C35      1.0000 0.99020  0.15840  0.12440  Biso   1.000  C
  H19      1.0000 0.99590  0.47310  0.24360  Biso   1.000  H
  H20      1.0000 0.07730  0.53470  0.29670  Biso   1.000  H
  H21      1.0000 0.89730  0.18120  0.12570  Biso   1.000  H
  O22      1.0000 0.00550  0.91810  0.67880  Biso   1.000  O
  C36      1.0000 0.14540  0.93010  0.68190  Biso   1.000  C
  O23      1.0000 0.24230  0.91360  0.65710  Biso   1.000  O
  C37      1.0000 0.19980  0.96610  0.71760  Biso   1.000  C
  C38      1.0000 0.09960  0.98390  0.74620  Biso   1.000  C
  C39      1.0000 0.14840  0.02030  0.77780  Biso   1.000  C
  O24      1.0000 0.00450  0.79190  0.63450  Biso   1.000  O
  C40      1.0000 0.99020  0.65840  0.62440  Biso   1.000  C
  H22      1.0000 0.99590  0.97310  0.74360  Biso   1.000  H
  H23      1.0000 0.07730  0.03470  0.79670  Biso   1.000  H
  H24      1.0000 0.89730  0.68120  0.62570  Biso   1.000  H
  O25      1.0000 0.50550  0.33190  0.07120  Biso   1.000  O
  C41      1.0000 0.64540  0.31990  0.06810  Biso   1.000  C
  O26      1.0000 0.74230  0.33640  0.09290  Biso   1.000  O
  C42      1.0000 0.69980  0.28390  0.03240  Biso   1.000  C
  C43      1.0000 0.59960  0.26610  0.00380  Biso   1.000  C
  C44      1.0000 0.64840  0.22970  0.97220  Biso   1.000  C
  O27      1.0000 0.50450  0.45810  0.11550  Biso   1.000  O
  C45      1.0000 0.49020  0.59160  0.12560  Biso   1.000  C
  H25      1.0000 0.49590  0.27690  0.00640  Biso   1.000  H
  H26      1.0000 0.57730  0.21530  0.95330  Biso   1.000  H
  H27      1.0000 0.39730  0.56880  0.12430  Biso   1.000  H
  O28      1.0000 0.50550  0.83190  0.57120  Biso   1.000  O
  C46      1.0000 0.64540  0.81990  0.56810  Biso   1.000  C
  O29      1.0000 0.74230  0.83640  0.59290  Biso   1.000  O
  C47      1.0000 0.69980  0.78390  0.53240  Biso   1.000  C
  C48      1.0000 0.59960  0.76610  0.50380  Biso   1.000  C
  C49      1.0000 0.64840  0.72970  0.47220  Biso   1.000  C
  O30      1.0000 0.50450  0.95810  0.61550  Biso   1.000  O
  C50      1.0000 0.49020  0.09160  0.62560  Biso   1.000  C
  H28      1.0000 0.49590  0.77690  0.50640  Biso   1.000  H
  H29      1.0000 0.57730  0.71530  0.45330  Biso   1.000  H
  H30      1.0000 0.39730  0.06880  0.62430  Biso   1.000  H
  O31      1.0000 0.00550  0.33190  0.57120  Biso   1.000  O
  C51      1.0000 0.14540  0.31990  0.56810  Biso   1.000  C
  O32      1.0000 0.24230  0.33640  0.59290  Biso   1.000  O
  C52      1.0000 0.19980  0.28390  0.53240  Biso   1.000  C
  C53      1.0000 0.09960  0.26610  0.50380  Biso   1.000  C
  C54      1.0000 0.14840  0.22970  0.47220  Biso   1.000  C
  O33      1.0000 0.00450  0.45810  0.61550  Biso   1.000  O
  C55      1.0000 0.99020  0.59160  0.62560  Biso   1.000  C
  H31      1.0000 0.99590  0.27690  0.50640  Biso   1.000  H
  H32      1.0000 0.07730  0.21530  0.45330  Biso   1.000  H
  H33      1.0000 0.89730  0.56880  0.62430  Biso   1.000  H
  O34      1.0000 0.00550  0.83190  0.07120  Biso   1.000  O
  C56      1.0000 0.14540  0.81990  0.06810  Biso   1.000  C
  O35      1.0000 0.24230  0.83640  0.09290  Biso   1.000  O
  C57      1.0000 0.19980  0.78390  0.03240  Biso   1.000  C
  C58      1.0000 0.09960  0.76610  0.00380  Biso   1.000  C
  C59      1.0000 0.14840  0.72970  0.97220  Biso   1.000  C
  O36      1.0000 0.00450  0.95810  0.11550  Biso   1.000  O
  C60      1.0000 0.99020  0.09160  0.12560  Biso   1.000  C
  H34      1.0000 0.99590  0.77690  0.00640  Biso   1.000  H
  H35      1.0000 0.07730  0.71530  0.95330  Biso   1.000  H
  H36      1.0000 0.89730  0.06880  0.12430  Biso   1.000  H
  O37      1.0000 0.24450  0.41810  0.07120  Biso   1.000  O
  C61      1.0000 0.10460  0.43010  0.06810  Biso   1.000  C
  O38      1.0000 0.00770  0.41360  0.09290  Biso   1.000  O
  C62      1.0000 0.05020  0.46610  0.03240  Biso   1.000  C
  C63      1.0000 0.15040  0.48390  0.00380  Biso   1.000  C
  C64      1.0000 0.10160  0.52030  0.97220  Biso   1.000  C
  O39      1.0000 0.24550  0.29190  0.11550  Biso   1.000  O
  C65      1.0000 0.25980  0.15840  0.12560  Biso   1.000  C
  H37      1.0000 0.25410  0.47310  0.00640  Biso   1.000  H
  H38      1.0000 0.17270  0.53470  0.95330  Biso   1.000  H
  H39      1.0000 0.35270  0.18120  0.12430  Biso   1.000  H
  O40      1.0000 0.24450  0.91810  0.57120  Biso   1.000  O
  C66      1.0000 0.10460  0.93010  0.56810  Biso   1.000  C
  O41      1.0000 0.00770  0.91360  0.59290  Biso   1.000  O
  C67      1.0000 0.05020  0.96610  0.53240  Biso   1.000  C
  C68      1.0000 0.15040  0.98390  0.50380  Biso   1.000  C
  C69      1.0000 0.10160  0.02030  0.47220  Biso   1.000  C
  O42      1.0000 0.24550  0.79190  0.61550  Biso   1.000  O
  C70      1.0000 0.25980  0.65840  0.62560  Biso   1.000  C
  H40      1.0000 0.25410  0.97310  0.50640  Biso   1.000  H
  H41      1.0000 0.17270  0.03470  0.45330  Biso   1.000  H
  H42      1.0000 0.35270  0.68120  0.62430  Biso   1.000  H
  O43      1.0000 0.74450  0.41810  0.57120  Biso   1.000  O
  C71      1.0000 0.60460  0.43010  0.56810  Biso   1.000  C
  O44      1.0000 0.50770  0.41360  0.59290  Biso   1.000  O
  C72      1.0000 0.55020  0.46610  0.53240  Biso   1.000  C
  C73      1.0000 0.65040  0.48390  0.50380  Biso   1.000  C
  C74      1.0000 0.60160  0.52030  0.47220  Biso   1.000  C
  O45      1.0000 0.74550  0.29190  0.61550  Biso   1.000  O
  C75      1.0000 0.75980  0.15840  0.62560  Biso   1.000  C
  H43      1.0000 0.75410  0.47310  0.50640  Biso   1.000  H
  H44      1.0000 0.67270  0.53470  0.45330  Biso   1.000  H
  H45      1.0000 0.85270  0.18120  0.62430  Biso   1.000  H
  O46      1.0000 0.74450  0.91810  0.07120  Biso   1.000  O
  C76      1.0000 0.60460  0.93010  0.06810  Biso   1.000  C
  O47      1.0000 0.50770  0.91360  0.09290  Biso   1.000  O
  C77      1.0000 0.55020  0.96610  0.03240  Biso   1.000  C
  C78      1.0000 0.65040  0.98390  0.00380  Biso   1.000  C
  C79      1.0000 0.60160  0.02030  0.97220  Biso   1.000  C
  O48      1.0000 0.74550  0.79190  0.11550  Biso   1.000  O
  C80      1.0000 0.75980  0.65840  0.12560  Biso   1.000  C
  H46      1.0000 0.75410  0.97310  0.00640  Biso   1.000  H
  H47      1.0000 0.67270  0.03470  0.95330  Biso   1.000  H
  H48      1.0000 0.85270  0.68120  0.12430  Biso   1.000  H
  O49      1.0000 0.75550  0.66810  0.32120  Biso   1.000  O
  C81      1.0000 0.89540  0.68010  0.31810  Biso   1.000  C
  O50      1.0000 0.99230  0.66360  0.34290  Biso   1.000  O
  C82      1.0000 0.94980  0.71610  0.28240  Biso   1.000  C
  C83      1.0000 0.84960  0.73390  0.25380  Biso   1.000  C
  C84      1.0000 0.89840  0.77030  0.22220  Biso   1.000  C
  O51      1.0000 0.75450  0.54190  0.36550  Biso   1.000  O
  C85      1.0000 0.74020  0.40840  0.37560  Biso   1.000  C
  H49      1.0000 0.74590  0.72310  0.25640  Biso   1.000  H
  H50      1.0000 0.82730  0.78470  0.20330  Biso   1.000  H
  H51      1.0000 0.64730  0.43120  0.37430  Biso   1.000  H
  O52      1.0000 0.75550  0.16810  0.82120  Biso   1.000  O
  C86      1.0000 0.89540  0.18010  0.81810  Biso   1.000  C
  O53      1.0000 0.99230  0.16360  0.84290  Biso   1.000  O
  C87      1.0000 0.94980  0.21610  0.78240  Biso   1.000  C
  C88      1.0000 0.84960  0.23390  0.75380  Biso   1.000  C
  C89      1.0000 0.89840  0.27030  0.72220  Biso   1.000  C
  O54      1.0000 0.75450  0.04190  0.86550  Biso   1.000  O
  C90      1.0000 0.74020  0.90840  0.87560  Biso   1.000  C
  H52      1.0000 0.74590  0.22310  0.75640  Biso   1.000  H
  H53      1.0000 0.82730  0.28470  0.70330  Biso   1.000  H
  H54      1.0000 0.64730  0.93120  0.87430  Biso   1.000  H
  O55      1.0000 0.25550  0.66810  0.82120  Biso   1.000  O
  C91      1.0000 0.39540  0.68010  0.81810  Biso   1.000  C
  O56      1.0000 0.49230  0.66360  0.84290  Biso   1.000  O
  C92      1.0000 0.44980  0.71610  0.78240  Biso   1.000  C
  C93      1.0000 0.34960  0.73390  0.75380  Biso   1.000  C
  C94      1.0000 0.39840  0.77030  0.72220  Biso   1.000  C
  O57      1.0000 0.25450  0.54190  0.86550  Biso   1.000  O
  C95      1.0000 0.24020  0.40840  0.87560  Biso   1.000  C
  H55      1.0000 0.24590  0.72310  0.75640  Biso   1.000  H
  H56      1.0000 0.32730  0.78470  0.70330  Biso   1.000  H
  H57      1.0000 0.14730  0.43120  0.87430  Biso   1.000  H
  O58      1.0000 0.25550  0.16810  0.32120  Biso   1.000  O
  C96      1.0000 0.39540  0.18010  0.31810  Biso   1.000  C
  O59      1.0000 0.49230  0.16360  0.34290  Biso   1.000  O
  C97      1.0000 0.44980  0.21610  0.28240  Biso   1.000  C
  C98      1.0000 0.34960  0.23390  0.25380  Biso   1.000  C
  C99      1.0000 0.39840  0.27030  0.22220  Biso   1.000  C
  O60      1.0000 0.25450  0.04190  0.36550  Biso   1.000  O
  C100     1.0000 0.24020  0.90840  0.37560  Biso   1.000  C
  H58      1.0000 0.24590  0.22310  0.25640  Biso   1.000  H
  H59      1.0000 0.32730  0.28470  0.20330  Biso   1.000  H
  H60      1.0000 0.14730  0.93120  0.37430  Biso   1.000  H
  O61      1.0000 0.49450  0.58190  0.32120  Biso   1.000  O
  C101     1.0000 0.35460  0.56990  0.31810  Biso   1.000  C
  O62      1.0000 0.25770  0.58640  0.34290  Biso   1.000  O
  C102     1.0000 0.30020  0.53390  0.28240  Biso   1.000  C
  C103     1.0000 0.40040  0.51610  0.25380  Biso   1.000  C
  C104     1.0000 0.35160  0.47970  0.22220  Biso   1.000  C
  O63      1.0000 0.49550  0.70810  0.36550  Biso   1.000  O
  C105     1.0000 0.50980  0.84160  0.37560  Biso   1.000  C
  H61      1.0000 0.50410  0.52690  0.25640  Biso   1.000  H
  H62      1.0000 0.42270  0.46530  0.20330  Biso   1.000  H
  H63      1.0000 0.60270  0.81880  0.37430  Biso   1.000  H
  O64      1.0000 0.49450  0.08190  0.82120  Biso   1.000  O
  C106     1.0000 0.35460  0.06990  0.81810  Biso   1.000  C
  O65      1.0000 0.25770  0.08640  0.84290  Biso   1.000  O
  C107     1.0000 0.30020  0.03390  0.78240  Biso   1.000  C
  C108     1.0000 0.40040  0.01610  0.75380  Biso   1.000  C
  C109     1.0000 0.35160  0.97970  0.72220  Biso   1.000  C
  O66      1.0000 0.49550  0.20810  0.86550  Biso   1.000  O
  C110     1.0000 0.50980  0.34160  0.87560  Biso   1.000  C
  H64      1.0000 0.50410  0.02690  0.75640  Biso   1.000  H
  H65      1.0000 0.42270  0.96530  0.70330  Biso   1.000  H
  H66      1.0000 0.60270  0.31880  0.87430  Biso   1.000  H
  O67      1.0000 0.99450  0.58190  0.82120  Biso   1.000  O
  C111     1.0000 0.85460  0.56990  0.81810  Biso   1.000  C
  O68      1.0000 0.75770  0.58640  0.84290  Biso   1.000  O
  C112     1.0000 0.80020  0.53390  0.78240  Biso   1.000  C
  C113     1.0000 0.90040  0.51610  0.75380  Biso   1.000  C
  C114     1.0000 0.85160  0.47970  0.72220  Biso   1.000  C
  O69      1.0000 0.99550  0.70810  0.86550  Biso   1.000  O
  C115     1.0000 0.00980  0.84160  0.87560  Biso   1.000  C
  H67      1.0000 0.00410  0.52690  0.75640  Biso   1.000  H
  H68      1.0000 0.92270  0.46530  0.70330  Biso   1.000  H
  H69      1.0000 0.10270  0.81880  0.87430  Biso   1.000  H
  O70      1.0000 0.99450  0.08190  0.32120  Biso   1.000  O
  C116     1.0000 0.85460  0.06990  0.31810  Biso   1.000  C
  O71      1.0000 0.75770  0.08640  0.34290  Biso   1.000  O
  C117     1.0000 0.80020  0.03390  0.28240  Biso   1.000  C
  C118     1.0000 0.90040  0.01610  0.25380  Biso   1.000  C
  C119     1.0000 0.85160  0.97970  0.22220  Biso   1.000  C
  O72      1.0000 0.99550  0.20810  0.36550  Biso   1.000  O
  C120     1.0000 0.00980  0.34160  0.37560  Biso   1.000  C
  H70      1.0000 0.00410  0.02690  0.25640  Biso   1.000  H
  H71      1.0000 0.92270  0.96530  0.20330  Biso   1.000  H
  H72      1.0000 0.10270  0.31880  0.37430  Biso   1.000  H
  O73      1.0000 0.49450  0.66810  0.92880  Biso   1.000  O
  C121     1.0000 0.35460  0.68010  0.93190  Biso   1.000  C
  O74      1.0000 0.25770  0.66360  0.90710  Biso   1.000  O
  C122     1.0000 0.30020  0.71610  0.96760  Biso   1.000  C
  C123     1.0000 0.40040  0.73390  0.99620  Biso   1.000  C
  C124     1.0000 0.35160  0.77030  0.02780  Biso   1.000  C
  O75      1.0000 0.49550  0.54190  0.88450  Biso   1.000  O
  C125     1.0000 0.50980  0.40840  0.87440  Biso   1.000  C
  H73      1.0000 0.50410  0.72310  0.99360  Biso   1.000  H
  H74      1.0000 0.42270  0.78470  0.04670  Biso   1.000  H
  H75      1.0000 0.60270  0.43120  0.87570  Biso   1.000  H
  O76      1.0000 0.49450  0.16810  0.42880  Biso   1.000  O
  C126     1.0000 0.35460  0.18010  0.43190  Biso   1.000  C
  O77      1.0000 0.25770  0.16360  0.40710  Biso   1.000  O
  C127     1.0000 0.30020  0.21610  0.46760  Biso   1.000  C
  C128     1.0000 0.40040  0.23390  0.49620  Biso   1.000  C
  C129     1.0000 0.35160  0.27030  0.52780  Biso   1.000  C
  O78      1.0000 0.49550  0.04190  0.38450  Biso   1.000  O
  C130     1.0000 0.50980  0.90840  0.37440  Biso   1.000  C
  H76      1.0000 0.50410  0.22310  0.49360  Biso   1.000  H
  H77      1.0000 0.42270  0.28470  0.54670  Biso   1.000  H
  H78      1.0000 0.60270  0.93120  0.37570  Biso   1.000  H
  O79      1.0000 0.99450  0.66810  0.42880  Biso   1.000  O
  C131     1.0000 0.85460  0.68010  0.43190  Biso   1.000  C
  O80      1.0000 0.75770  0.66360  0.40710  Biso   1.000  O
  C132     1.0000 0.80020  0.71610  0.46760  Biso   1.000  C
  C133     1.0000 0.90040  0.73390  0.49620  Biso   1.000  C
  C134     1.0000 0.85160  0.77030  0.52780  Biso   1.000  C
  O81      1.0000 0.99550  0.54190  0.38450  Biso   1.000  O
  C135     1.0000 0.00980  0.40840  0.37440  Biso   1.000  C
  H79      1.0000 0.00410  0.72310  0.49360  Biso   1.000  H
  H80      1.0000 0.92270  0.78470  0.54670  Biso   1.000  H
  H81      1.0000 0.10270  0.43120  0.37570  Biso   1.000  H
  O82      1.0000 0.99450  0.16810  0.92880  Biso   1.000  O
  C136     1.0000 0.85460  0.18010  0.93190  Biso   1.000  C
  O83      1.0000 0.75770  0.16360  0.90710  Biso   1.000  O
  C137     1.0000 0.80020  0.21610  0.96760  Biso   1.000  C
  C138     1.0000 0.90040  0.23390  0.99620  Biso   1.000  C
  C139     1.0000 0.85160  0.27030  0.02780  Biso   1.000  C
  O84      1.0000 0.99550  0.04190  0.88450  Biso   1.000  O
  C140     1.0000 0.00980  0.90840  0.87440  Biso   1.000  C
  H82      1.0000 0.00410  0.22310  0.99360  Biso   1.000  H
  H83      1.0000 0.92270  0.28470  0.04670  Biso   1.000  H
  H84      1.0000 0.10270  0.93120  0.87570  Biso   1.000  H
  O85      1.0000 0.75550  0.58190  0.92880  Biso   1.000  O
  C141     1.0000 0.89540  0.56990  0.93190  Biso   1.000  C
  O86      1.0000 0.99230  0.58640  0.90710  Biso   1.000  O
  C142     1.0000 0.94980  0.53390  0.96760  Biso   1.000  C
  C143     1.0000 0.84960  0.51610  0.99620  Biso   1.000  C
  C144     1.0000 0.89840  0.47970  0.02780  Biso   1.000  C
  O87      1.0000 0.75450  0.70810  0.88450  Biso   1.000  O
  C145     1.0000 0.74020  0.84160  0.87440  Biso   1.000  C
  H85      1.0000 0.74590  0.52690  0.99360  Biso   1.000  H
  H86      1.0000 0.82730  0.46530  0.04670  Biso   1.000  H
  H87      1.0000 0.64730  0.81880  0.87570  Biso   1.000  H
  O88      1.0000 0.75550  0.08190  0.42880  Biso   1.000  O
  C146     1.0000 0.89540  0.06990  0.43190  Biso   1.000  C
  O89      1.0000 0.99230  0.08640  0.40710  Biso   1.000  O
  C147     1.0000 0.94980  0.03390  0.46760  Biso   1.000  C
  C148     1.0000 0.84960  0.01610  0.49620  Biso   1.000  C
  C149     1.0000 0.89840  0.97970  0.52780  Biso   1.000  C
  O90      1.0000 0.75450  0.20810  0.38450  Biso   1.000  O
  C150     1.0000 0.74020  0.34160  0.37440  Biso   1.000  C
  H88      1.0000 0.74590  0.02690  0.49360  Biso   1.000  H
  H89      1.0000 0.82730  0.96530  0.54670  Biso   1.000  H
  H90      1.0000 0.64730  0.31880  0.37570  Biso   1.000  H
  O91      1.0000 0.25550  0.58190  0.42880  Biso   1.000  O
  C151     1.0000 0.39540  0.56990  0.43190  Biso   1.000  C
  O92      1.0000 0.49230  0.58640  0.40710  Biso   1.000  O
  C152     1.0000 0.44980  0.53390  0.46760  Biso   1.000  C
  C153     1.0000 0.34960  0.51610  0.49620  Biso   1.000  C
  C154     1.0000 0.39840  0.47970  0.52780  Biso   1.000  C
  O93      1.0000 0.25450  0.70810  0.38450  Biso   1.000  O
  C155     1.0000 0.24020  0.84160  0.37440  Biso   1.000  C
  H91      1.0000 0.24590  0.52690  0.49360  Biso   1.000  H
  H92      1.0000 0.32730  0.46530  0.54670  Biso   1.000  H
  H93      1.0000 0.14730  0.81880  0.37570  Biso   1.000  H
  O94      1.0000 0.25550  0.08190  0.92880  Biso   1.000  O
  C156     1.0000 0.39540  0.06990  0.93190  Biso   1.000  C
  O95      1.0000 0.49230  0.08640  0.90710  Biso   1.000  O
  C157     1.0000 0.44980  0.03390  0.96760  Biso   1.000  C
  C158     1.0000 0.34960  0.01610  0.99620  Biso   1.000  C
  C159     1.0000 0.39840  0.97970  0.02780  Biso   1.000  C
  O96      1.0000 0.25450  0.20810  0.88450  Biso   1.000  O
  C160     1.0000 0.24020  0.34160  0.87440  Biso   1.000  C
  H94      1.0000 0.24590  0.02690  0.99360  Biso   1.000  H
  H95      1.0000 0.32730  0.96530  0.04670  Biso   1.000  H
  H96      1.0000 0.14730  0.31880  0.87570  Biso   1.000  H
  Sc1      1.0000 0.37500  0.37500  0.63509  Biso   1.000  Sc
  Sc2      1.0000 0.37500  0.87500  0.13509  Biso   1.000  Sc
  Sc3      1.0000 0.87500  0.37500  0.13509  Biso   1.000  Sc
  Sc4      1.0000 0.87500  0.87500  0.63509  Biso   1.000  Sc
  Sc5      1.0000 0.37500  0.37500  0.11491  Biso   1.000  Sc
  Sc6      1.0000 0.37500  0.87500  0.61491  Biso   1.000  Sc
  Sc7      1.0000 0.87500  0.37500  0.61491  Biso   1.000  Sc
  Sc8      1.0000 0.87500  0.87500  0.11491  Biso   1.000  Sc
  Sc9      1.0000 0.62500  0.62500  0.36491  Biso   1.000  Sc
  Sc10     1.0000 0.62500  0.12500  0.86491  Biso   1.000  Sc
  Sc11     1.0000 0.12500  0.62500  0.86491  Biso   1.000  Sc
  Sc12     1.0000 0.12500  0.12500  0.36491  Biso   1.000  Sc
  Sc13     1.0000 0.62500  0.62500  0.88509  Biso   1.000  Sc
  Sc14     1.0000 0.62500  0.12500  0.38509  Biso   1.000  Sc
  Sc15     1.0000 0.12500  0.62500  0.38509  Biso   1.000  Sc
  Sc16     1.0000 0.12500  0.12500  0.88509  Biso   1.000  Sc
  C161     1.0000 0.12500  0.48640  0.62500  Biso   1.000  C
  C162     1.0000 0.12500  0.55830  0.62500  Biso   1.000  C
  C163     1.0000 0.12500  0.98640  0.12500  Biso   1.000  C
  C164     1.0000 0.12500  0.05830  0.12500  Biso   1.000  C
  C165     1.0000 0.62500  0.98640  0.62500  Biso   1.000  C
  C166     1.0000 0.62500  0.05830  0.62500  Biso   1.000  C
  C167     1.0000 0.62500  0.26360  0.62500  Biso   1.000  C
  C168     1.0000 0.62500  0.19170  0.62500  Biso   1.000  C
  C169     1.0000 0.62500  0.76360  0.12500  Biso   1.000  C
  C170     1.0000 0.62500  0.69170  0.12500  Biso   1.000  C
  C171     1.0000 0.62500  0.48640  0.12500  Biso   1.000  C
  C172     1.0000 0.62500  0.55830  0.12500  Biso   1.000  C
  C173     1.0000 0.12500  0.26360  0.12500  Biso   1.000  C
  C174     1.0000 0.12500  0.19170  0.12500  Biso   1.000  C
  C175     1.0000 0.12500  0.76360  0.62500  Biso   1.000  C
  C176     1.0000 0.12500  0.69170  0.62500  Biso   1.000  C
  C177     1.0000 0.87500  0.51360  0.37500  Biso   1.000  C
  C178     1.0000 0.87500  0.44170  0.37500  Biso   1.000  C
  C179     1.0000 0.87500  0.01360  0.87500  Biso   1.000  C
  C180     1.0000 0.87500  0.94170  0.87500  Biso   1.000  C
  C181     1.0000 0.37500  0.73640  0.37500  Biso   1.000  C
  C182     1.0000 0.37500  0.80830  0.37500  Biso   1.000  C
  C183     1.0000 0.37500  0.23640  0.87500  Biso   1.000  C
  C184     1.0000 0.37500  0.30830  0.87500  Biso   1.000  C
  C185     1.0000 0.37500  0.51360  0.87500  Biso   1.000  C
  C186     1.0000 0.37500  0.44170  0.87500  Biso   1.000  C
  C187     1.0000 0.37500  0.01360  0.37500  Biso   1.000  C
  C188     1.0000 0.37500  0.94170  0.37500  Biso   1.000  C
  C189     1.0000 0.87500  0.73640  0.87500  Biso   1.000  C
  C190     1.0000 0.87500  0.80830  0.87500  Biso   1.000  C
  C191     1.0000 0.87500  0.23640  0.37500  Biso   1.000  C
  C192     1.0000 0.87500  0.30830  0.37500  Biso   1.000  C
