data_image0
_cell_length_a       14.5665
_cell_length_b       14.5665
_cell_length_c       31.6835
_cell_angle_alpha    90
_cell_angle_beta     90
_cell_angle_gamma    120

_symmetry_space_group_name_H-M    P 1
_symmetry_int_tables_number       1

loop_
  _symmetry_equiv_pos_as_xyz
  'x, y, z'

loop_
  _atom_site_label
  _atom_site_occupancy
  _atom_site_fract_x
  _atom_site_fract_y
  _atom_site_fract_z
  _atom_site_thermal_displace_type
  _atom_site_B_iso_or_equiv
  _atom_site_type_symbol
  Ga1      1.0000 0.92568  0.07432  0.25000  Biso   1.000  Ga
  Ga2      1.0000 0.14864  0.07432  0.25000  Biso   1.000  Ga
  Ga3      1.0000 0.92568  0.85136  0.25000  Biso   1.000  Ga
  Ga4      1.0000 0.07432  0.92568  0.75000  Biso   1.000  Ga
  Ga5      1.0000 0.85136  0.92568  0.75000  Biso   1.000  Ga
  Ga6      1.0000 0.07432  0.14864  0.75000  Biso   1.000  Ga
  Ga7      1.0000 0.58325  0.16650  0.41509  Biso   1.000  Ga
  Ga8      1.0000 0.58325  0.41674  0.41509  Biso   1.000  Ga
  Ga9      1.0000 0.83349  0.41674  0.41509  Biso   1.000  Ga
  Ga10     1.0000 0.41675  0.83350  0.91509  Biso   1.000  Ga
  Ga11     1.0000 0.41675  0.58326  0.91509  Biso   1.000  Ga
  Ga12     1.0000 0.16651  0.58326  0.91509  Biso   1.000  Ga
  Ga13     1.0000 0.41675  0.83350  0.58491  Biso   1.000  Ga
  Ga14     1.0000 0.16651  0.58326  0.58491  Biso   1.000  Ga
  Ga15     1.0000 0.41675  0.58326  0.58491  Biso   1.000  Ga
  Ga16     1.0000 0.58325  0.16650  0.08491  Biso   1.000  Ga
  Ga17     1.0000 0.83349  0.41674  0.08491  Biso   1.000  Ga
  Ga18     1.0000 0.58325  0.41674  0.08491  Biso   1.000  Ga
  Ga19     1.0000 0.50000  0.00000  0.50000  Biso   1.000  Ga
  Ga20     1.0000 0.50000  0.50000  0.50000  Biso   1.000  Ga
  Ga21     1.0000 1.00000  0.50000  0.50000  Biso   1.000  Ga
  Ga22     1.0000 0.50000  0.00000  0.00000  Biso   1.000  Ga
  Ga23     1.0000 0.50000  0.50000  0.00000  Biso   1.000  Ga
  Ga24     1.0000 1.00000  0.50000  0.00000  Biso   1.000  Ga
  H1       1.0000 0.72340  1.00000  0.35520  Biso   1.000  H
  H2       1.0000 0.27660  0.27660  0.35520  Biso   1.000  H
  H3       1.0000 0.00000  0.72340  0.35520  Biso   1.000  H
  H4       1.0000 0.27660  0.00000  0.85520  Biso   1.000  H
  H5       1.0000 0.72340  0.72340  0.85520  Biso   1.000  H
  H6       1.0000 0.00000  0.27660  0.85520  Biso   1.000  H
  H7       1.0000 0.72340  1.00000  0.64480  Biso   1.000  H
  H8       1.0000 0.00000  0.72340  0.64480  Biso   1.000  H
  H9       1.0000 0.27660  0.27660  0.64480  Biso   1.000  H
  H10      1.0000 0.27660  0.00000  0.14480  Biso   1.000  H
  H11      1.0000 0.00000  0.27660  0.14480  Biso   1.000  H
  H12      1.0000 0.72340  0.72340  0.14480  Biso   1.000  H
  H13      1.0000 0.27660  0.00000  0.64480  Biso   1.000  H
  H14      1.0000 0.72340  0.72340  0.64480  Biso   1.000  H
  H15      1.0000 0.00000  0.27660  0.64480  Biso   1.000  H
  H16      1.0000 0.72340  1.00000  0.14480  Biso   1.000  H
  H17      1.0000 0.27660  0.27660  0.14480  Biso   1.000  H
  H18      1.0000 0.00000  0.72340  0.14480  Biso   1.000  H
  H19      1.0000 0.27660  0.00000  0.35520  Biso   1.000  H
  H20      1.0000 0.00000  0.27660  0.35520  Biso   1.000  H
  H21      1.0000 0.72340  0.72340  0.35520  Biso   1.000  H
  H22      1.0000 0.72340  1.00000  0.85520  Biso   1.000  H
  H23      1.0000 0.00000  0.72340  0.85520  Biso   1.000  H
  H24      1.0000 0.27660  0.27660  0.85520  Biso   1.000  H
  H25      1.0000 0.57490  0.78745  0.44770  Biso   1.000  H
  H26      1.0000 0.21255  0.42510  0.44770  Biso   1.000  H
  H27      1.0000 0.21255  0.78745  0.44770  Biso   1.000  H
  H28      1.0000 0.42510  0.21255  0.94770  Biso   1.000  H
  H29      1.0000 0.78745  0.57490  0.94770  Biso   1.000  H
  H30      1.0000 0.78745  0.21255  0.94770  Biso   1.000  H
  H31      1.0000 0.78745  0.21255  0.55230  Biso   1.000  H
  H32      1.0000 0.78745  0.57490  0.55230  Biso   1.000  H
  H33      1.0000 0.42510  0.21255  0.55230  Biso   1.000  H
  H34      1.0000 0.21255  0.78745  0.05230  Biso   1.000  H
  H35      1.0000 0.21255  0.42510  0.05230  Biso   1.000  H
  H36      1.0000 0.57490  0.78745  0.05230  Biso   1.000  H
  C1       1.0000 0.61050  0.97520  0.42500  Biso   1.000  C
  C2       1.0000 0.70440  0.93510  0.36780  Biso   1.000  C
  C3       1.0000 0.64600  0.90570  0.40510  Biso   1.000  C
  C4       1.0000 0.36470  0.38950  0.42500  Biso   1.000  C
  C5       1.0000 0.23070  0.29560  0.36780  Biso   1.000  C
  C6       1.0000 0.25970  0.35400  0.40510  Biso   1.000  C
  C7       1.0000 0.02480  0.63530  0.42500  Biso   1.000  C
  C8       1.0000 0.06490  0.76930  0.36780  Biso   1.000  C
  C9       1.0000 0.09430  0.74030  0.40510  Biso   1.000  C
  C10      1.0000 0.38950  0.02480  0.92500  Biso   1.000  C
  C11      1.0000 0.29560  0.06490  0.86780  Biso   1.000  C
  C12      1.0000 0.35400  0.09430  0.90510  Biso   1.000  C
  C13      1.0000 0.63530  0.61050  0.92500  Biso   1.000  C
  C14      1.0000 0.76930  0.70440  0.86780  Biso   1.000  C
  C15      1.0000 0.74030  0.64600  0.90510  Biso   1.000  C
  C16      1.0000 0.97520  0.36470  0.92500  Biso   1.000  C
  C17      1.0000 0.93510  0.23070  0.86780  Biso   1.000  C
  C18      1.0000 0.90570  0.25970  0.90510  Biso   1.000  C
  C19      1.0000 0.63530  0.02480  0.57500  Biso   1.000  C
  C20      1.0000 0.76930  0.06490  0.63220  Biso   1.000  C
  C21      1.0000 0.74030  0.09430  0.59490  Biso   1.000  C
  C22      1.0000 0.97520  0.61050  0.57500  Biso   1.000  C
  C23      1.0000 0.93510  0.70440  0.63220  Biso   1.000  C
  C24      1.0000 0.90570  0.64600  0.59490  Biso   1.000  C
  C25      1.0000 0.38950  0.36470  0.57500  Biso   1.000  C
  C26      1.0000 0.29560  0.23070  0.63220  Biso   1.000  C
  C27      1.0000 0.35400  0.25970  0.59490  Biso   1.000  C
  C28      1.0000 0.36470  0.97520  0.07500  Biso   1.000  C
  C29      1.0000 0.23070  0.93510  0.13220  Biso   1.000  C
  C30      1.0000 0.25970  0.90570  0.09490  Biso   1.000  C
  C31      1.0000 0.02480  0.38950  0.07500  Biso   1.000  C
  C32      1.0000 0.06490  0.29560  0.13220  Biso   1.000  C
  C33      1.0000 0.09430  0.35400  0.09490  Biso   1.000  C
  C34      1.0000 0.61050  0.63530  0.07500  Biso   1.000  C
  C35      1.0000 0.70440  0.76930  0.13220  Biso   1.000  C
  C36      1.0000 0.64600  0.74030  0.09490  Biso   1.000  C
  C37      1.0000 0.38950  0.02480  0.57500  Biso   1.000  C
  C38      1.0000 0.29560  0.06490  0.63220  Biso   1.000  C
  C39      1.0000 0.35400  0.09430  0.59490  Biso   1.000  C
  C40      1.0000 0.63530  0.61050  0.57500  Biso   1.000  C
  C41      1.0000 0.76930  0.70440  0.63220  Biso   1.000  C
  C42      1.0000 0.74030  0.64600  0.59490  Biso   1.000  C
  C43      1.0000 0.97520  0.36470  0.57500  Biso   1.000  C
  C44      1.0000 0.93510  0.23070  0.63220  Biso   1.000  C
  C45      1.0000 0.90570  0.25970  0.59490  Biso   1.000  C
  C46      1.0000 0.61050  0.97520  0.07500  Biso   1.000  C
  C47      1.0000 0.70440  0.93510  0.13220  Biso   1.000  C
  C48      1.0000 0.64600  0.90570  0.09490  Biso   1.000  C
  C49      1.0000 0.36470  0.38950  0.07500  Biso   1.000  C
  C50      1.0000 0.23070  0.29560  0.13220  Biso   1.000  C
  C51      1.0000 0.25970  0.35400  0.09490  Biso   1.000  C
  C52      1.0000 0.02480  0.63530  0.07500  Biso   1.000  C
  C53      1.0000 0.06490  0.76930  0.13220  Biso   1.000  C
  C54      1.0000 0.09430  0.74030  0.09490  Biso   1.000  C
  C55      1.0000 0.36470  0.97520  0.42500  Biso   1.000  C
  C56      1.0000 0.23070  0.93510  0.36780  Biso   1.000  C
  C57      1.0000 0.25970  0.90570  0.40510  Biso   1.000  C
  C58      1.0000 0.02480  0.38950  0.42500  Biso   1.000  C
  C59      1.0000 0.06490  0.29560  0.36780  Biso   1.000  C
  C60      1.0000 0.09430  0.35400  0.40510  Biso   1.000  C
  C61      1.0000 0.61050  0.63530  0.42500  Biso   1.000  C
  C62      1.0000 0.70440  0.76930  0.36780  Biso   1.000  C
  C63      1.0000 0.64600  0.74030  0.40510  Biso   1.000  C
  C64      1.0000 0.63530  0.02480  0.92500  Biso   1.000  C
  C65      1.0000 0.76930  0.06490  0.86780  Biso   1.000  C
  C66      1.0000 0.74030  0.09430  0.90510  Biso   1.000  C
  C67      1.0000 0.97520  0.61050  0.92500  Biso   1.000  C
  C68      1.0000 0.93510  0.70440  0.86780  Biso   1.000  C
  C69      1.0000 0.90570  0.64600  0.90510  Biso   1.000  C
  C70      1.0000 0.38950  0.36470  0.92500  Biso   1.000  C
  C71      1.0000 0.29560  0.23070  0.86780  Biso   1.000  C
  C72      1.0000 0.35400  0.25970  0.90510  Biso   1.000  C
  C73      1.0000 0.79950  0.89975  0.30950  Biso   1.000  C
  C74      1.0000 0.73440  0.86720  0.34930  Biso   1.000  C
  C75      1.0000 0.61560  0.80780  0.42330  Biso   1.000  C
  C76      1.0000 0.10025  0.20050  0.30950  Biso   1.000  C
  C77      1.0000 0.13280  0.26560  0.34930  Biso   1.000  C
  C78      1.0000 0.19220  0.38440  0.42330  Biso   1.000  C
  C79      1.0000 0.10025  0.89975  0.30950  Biso   1.000  C
  C80      1.0000 0.13280  0.86720  0.34930  Biso   1.000  C
  C81      1.0000 0.19220  0.80780  0.42330  Biso   1.000  C
  C82      1.0000 0.20050  0.10025  0.80950  Biso   1.000  C
  C83      1.0000 0.26560  0.13280  0.84930  Biso   1.000  C
  C84      1.0000 0.38440  0.19220  0.92330  Biso   1.000  C
  C85      1.0000 0.89975  0.79950  0.80950  Biso   1.000  C
  C86      1.0000 0.86720  0.73440  0.84930  Biso   1.000  C
  C87      1.0000 0.80780  0.61560  0.92330  Biso   1.000  C
  C88      1.0000 0.89975  0.10025  0.80950  Biso   1.000  C
  C89      1.0000 0.86720  0.13280  0.84930  Biso   1.000  C
  C90      1.0000 0.80780  0.19220  0.92330  Biso   1.000  C
  C91      1.0000 0.89975  0.10025  0.69050  Biso   1.000  C
  C92      1.0000 0.86720  0.13280  0.65070  Biso   1.000  C
  C93      1.0000 0.80780  0.19220  0.57670  Biso   1.000  C
  C94      1.0000 0.89975  0.79950  0.69050  Biso   1.000  C
  C95      1.0000 0.86720  0.73440  0.65070  Biso   1.000  C
  C96      1.0000 0.80780  0.61560  0.57670  Biso   1.000  C
  C97      1.0000 0.20050  0.10025  0.69050  Biso   1.000  C
  C98      1.0000 0.26560  0.13280  0.65070  Biso   1.000  C
  C99      1.0000 0.38440  0.19220  0.57670  Biso   1.000  C
  C100     1.0000 0.10025  0.89975  0.19050  Biso   1.000  C
  C101     1.0000 0.13280  0.86720  0.15070  Biso   1.000  C
  C102     1.0000 0.19220  0.80780  0.07670  Biso   1.000  C
  C103     1.0000 0.10025  0.20050  0.19050  Biso   1.000  C
  C104     1.0000 0.13280  0.26560  0.15070  Biso   1.000  C
  C105     1.0000 0.19220  0.38440  0.07670  Biso   1.000  C
  C106     1.0000 0.79950  0.89975  0.19050  Biso   1.000  C
  C107     1.0000 0.73440  0.86720  0.15070  Biso   1.000  C
  C108     1.0000 0.61560  0.80780  0.07670  Biso   1.000  C
  O1       1.0000 0.82470  0.98950  0.29512  Biso   1.000  O
  O2       1.0000 0.62330  0.05500  0.40455  Biso   1.000  O
  O3       1.0000 0.57080  0.94890  0.46110  Biso   1.000  O
  O4       1.0000 0.16480  0.17530  0.29512  Biso   1.000  O
  O5       1.0000 0.43170  0.37670  0.40455  Biso   1.000  O
  O6       1.0000 0.37810  0.42920  0.46110  Biso   1.000  O
  O7       1.0000 0.01050  0.83520  0.29512  Biso   1.000  O
  O8       1.0000 0.94500  0.56830  0.40455  Biso   1.000  O
  O9       1.0000 0.05110  0.62190  0.46110  Biso   1.000  O
  O10      1.0000 0.17530  0.01050  0.79512  Biso   1.000  O
  O11      1.0000 0.37670  0.94500  0.90455  Biso   1.000  O
  O12      1.0000 0.42920  0.05110  0.96110  Biso   1.000  O
  O13      1.0000 0.83520  0.82470  0.79512  Biso   1.000  O
  O14      1.0000 0.56830  0.62330  0.90455  Biso   1.000  O
  O15      1.0000 0.62190  0.57080  0.96110  Biso   1.000  O
  O16      1.0000 0.98950  0.16480  0.79512  Biso   1.000  O
  O17      1.0000 0.05500  0.43170  0.90455  Biso   1.000  O
  O18      1.0000 0.94890  0.37810  0.96110  Biso   1.000  O
  O19      1.0000 0.83520  0.01050  0.70488  Biso   1.000  O
  O20      1.0000 0.56830  0.94500  0.59545  Biso   1.000  O
  O21      1.0000 0.62190  0.05110  0.53890  Biso   1.000  O
  O22      1.0000 0.98950  0.82470  0.70488  Biso   1.000  O
  O23      1.0000 0.05500  0.62330  0.59545  Biso   1.000  O
  O24      1.0000 0.94890  0.57080  0.53890  Biso   1.000  O
  O25      1.0000 0.17530  0.16480  0.70488  Biso   1.000  O
  O26      1.0000 0.37670  0.43170  0.59545  Biso   1.000  O
  O27      1.0000 0.42920  0.37810  0.53890  Biso   1.000  O
  O28      1.0000 0.16480  0.98950  0.20488  Biso   1.000  O
  O29      1.0000 0.43170  0.05500  0.09545  Biso   1.000  O
  O30      1.0000 0.37810  0.94890  0.03890  Biso   1.000  O
  O31      1.0000 0.01050  0.17530  0.20488  Biso   1.000  O
  O32      1.0000 0.94500  0.37670  0.09545  Biso   1.000  O
  O33      1.0000 0.05110  0.42920  0.03890  Biso   1.000  O
  O34      1.0000 0.82470  0.83520  0.20488  Biso   1.000  O
  O35      1.0000 0.62330  0.56830  0.09545  Biso   1.000  O
  O36      1.0000 0.57080  0.62190  0.03890  Biso   1.000  O
  O37      1.0000 0.17530  0.01050  0.70488  Biso   1.000  O
  O38      1.0000 0.37670  0.94500  0.59545  Biso   1.000  O
  O39      1.0000 0.42920  0.05110  0.53890  Biso   1.000  O
  O40      1.0000 0.83520  0.82470  0.70488  Biso   1.000  O
  O41      1.0000 0.56830  0.62330  0.59545  Biso   1.000  O
  O42      1.0000 0.62190  0.57080  0.53890  Biso   1.000  O
  O43      1.0000 0.98950  0.16480  0.70488  Biso   1.000  O
  O44      1.0000 0.05500  0.43170  0.59545  Biso   1.000  O
  O45      1.0000 0.94890  0.37810  0.53890  Biso   1.000  O
  O46      1.0000 0.82470  0.98950  0.20488  Biso   1.000  O
  O47      1.0000 0.62330  0.05500  0.09545  Biso   1.000  O
  O48      1.0000 0.57080  0.94890  0.03890  Biso   1.000  O
  O49      1.0000 0.16480  0.17530  0.20488  Biso   1.000  O
  O50      1.0000 0.43170  0.37670  0.09545  Biso   1.000  O
  O51      1.0000 0.37810  0.42920  0.03890  Biso   1.000  O
  O52      1.0000 0.01050  0.83520  0.20488  Biso   1.000  O
  O53      1.0000 0.94500  0.56830  0.09545  Biso   1.000  O
  O54      1.0000 0.05110  0.62190  0.03890  Biso   1.000  O
  O55      1.0000 0.16480  0.98950  0.29512  Biso   1.000  O
  O56      1.0000 0.43170  0.05500  0.40455  Biso   1.000  O
  O57      1.0000 0.37810  0.94890  0.46110  Biso   1.000  O
  O58      1.0000 0.01050  0.17530  0.29512  Biso   1.000  O
  O59      1.0000 0.94500  0.37670  0.40455  Biso   1.000  O
  O60      1.0000 0.05110  0.42920  0.46110  Biso   1.000  O
  O61      1.0000 0.82470  0.83520  0.29512  Biso   1.000  O
  O62      1.0000 0.62330  0.56830  0.40455  Biso   1.000  O
  O63      1.0000 0.57080  0.62190  0.46110  Biso   1.000  O
  O64      1.0000 0.83520  0.01050  0.79512  Biso   1.000  O
  O65      1.0000 0.56830  0.94500  0.90455  Biso   1.000  O
  O66      1.0000 0.62190  0.05110  0.96110  Biso   1.000  O
  O67      1.0000 0.98950  0.82470  0.79512  Biso   1.000  O
  O68      1.0000 0.05500  0.62330  0.90455  Biso   1.000  O
  O69      1.0000 0.94890  0.57080  0.96110  Biso   1.000  O
  O70      1.0000 0.17530  0.16480  0.79512  Biso   1.000  O
  O71      1.0000 0.37670  0.43170  0.90455  Biso   1.000  O
  O72      1.0000 0.42920  0.37810  0.96110  Biso   1.000  O
  O73      1.0000 0.84575  0.15425  0.25000  Biso   1.000  O
  O74      1.0000 0.30850  0.15425  0.25000  Biso   1.000  O
  O75      1.0000 0.84575  0.69150  0.25000  Biso   1.000  O
  O76      1.0000 0.15425  0.84575  0.75000  Biso   1.000  O
  O77      1.0000 0.69150  0.84575  0.75000  Biso   1.000  O
  O78      1.0000 0.15425  0.30850  0.75000  Biso   1.000  O
  O79      1.0000 0.56860  0.13720  0.47450  Biso   1.000  O
  O80      1.0000 0.58785  0.17570  0.35160  Biso   1.000  O
  O81      1.0000 0.56860  0.43140  0.47450  Biso   1.000  O
  O82      1.0000 0.58785  0.41215  0.35160  Biso   1.000  O
  O83      1.0000 0.86280  0.43140  0.47450  Biso   1.000  O
  O84      1.0000 0.82430  0.41215  0.35160  Biso   1.000  O
  O85      1.0000 0.43140  0.86280  0.97450  Biso   1.000  O
  O86      1.0000 0.41215  0.82430  0.85160  Biso   1.000  O
  O87      1.0000 0.43140  0.56860  0.97450  Biso   1.000  O
  O88      1.0000 0.41215  0.58785  0.85160  Biso   1.000  O
  O89      1.0000 0.13720  0.56860  0.97450  Biso   1.000  O
  O90      1.0000 0.17570  0.58785  0.85160  Biso   1.000  O
  O91      1.0000 0.43140  0.86280  0.52550  Biso   1.000  O
  O92      1.0000 0.41215  0.82430  0.64840  Biso   1.000  O
  O93      1.0000 0.13720  0.56860  0.52550  Biso   1.000  O
  O94      1.0000 0.17570  0.58785  0.64840  Biso   1.000  O
  O95      1.0000 0.43140  0.56860  0.52550  Biso   1.000  O
  O96      1.0000 0.41215  0.58785  0.64840  Biso   1.000  O
  O97      1.0000 0.56860  0.13720  0.02550  Biso   1.000  O
  O98      1.0000 0.58785  0.17570  0.14840  Biso   1.000  O
  O99      1.0000 0.86280  0.43140  0.02550  Biso   1.000  O
  O100     1.0000 0.82430  0.41215  0.14840  Biso   1.000  O
  O101     1.0000 0.56860  0.43140  0.02550  Biso   1.000  O
  O102     1.0000 0.58785  0.41215  0.14840  Biso   1.000  O
  O103     1.0000 0.00000  0.00000  0.25000  Biso   1.000  O
  O104     1.0000 0.00000  0.00000  0.75000  Biso   1.000  O
  O105     1.0000 0.53600  0.26800  0.41860  Biso   1.000  O
  O106     1.0000 0.73200  0.46400  0.41860  Biso   1.000  O
  O107     1.0000 0.73200  0.26800  0.41860  Biso   1.000  O
  O108     1.0000 0.46400  0.73200  0.91860  Biso   1.000  O
  O109     1.0000 0.26800  0.53600  0.91860  Biso   1.000  O
  O110     1.0000 0.26800  0.73200  0.91860  Biso   1.000  O
  O111     1.0000 0.26800  0.73200  0.58140  Biso   1.000  O
  O112     1.0000 0.26800  0.53600  0.58140  Biso   1.000  O
  O113     1.0000 0.46400  0.73200  0.58140  Biso   1.000  O
  O114     1.0000 0.73200  0.26800  0.08140  Biso   1.000  O
  O115     1.0000 0.73200  0.46400  0.08140  Biso   1.000  O
  O116     1.0000 0.53600  0.26800  0.08140  Biso   1.000  O
