data_image0
_cell_length_a       18.0541
_cell_length_b       17.2527
_cell_length_c       13.4128
_cell_angle_alpha    90
_cell_angle_beta     129.274
_cell_angle_gamma    90

_symmetry_space_group_name_H-M    "P 1"
_symmetry_int_tables_number       1

loop_
  _symmetry_equiv_pos_as_xyz
  'x, y, z'

loop_
  _atom_site_label
  _atom_site_occupancy
  _atom_site_fract_x
  _atom_site_fract_y
  _atom_site_fract_z
  _atom_site_thermal_displace_type
  _atom_site_B_iso_or_equiv
  _atom_site_type_symbol
  O1       1.0000 0.07549  0.29957  0.18533  Biso   1.000  O
  O2       1.0000 0.22992  0.31351  0.35459  Biso   1.000  O
  O3       1.0000 0.08841  0.61257  0.87990  Biso   1.000  O
  O4       1.0000 0.23029  0.64939  0.06227  Biso   1.000  O
  O5       1.0000 0.09995  0.22088  0.38967  Biso   1.000  O
  N1       1.0000 0.07411  0.16020  0.42280  Biso   1.000  N
  C1       1.0000 0.16150  0.39827  0.17720  Biso   1.000  C
  C2       1.0000 0.08620  0.41430  0.04970  Biso   1.000  C
  H1       1.0000 0.03700  0.38200  0.01000  Biso   1.000  H
  C3       1.0000 0.08750  0.47920  0.99050  Biso   1.000  C
  H2       1.0000 0.03700  0.49300  0.90300  Biso   1.000  H
  C4       1.0000 0.16430  0.52976  0.05840  Biso   1.000  C
  C5       1.0000 0.24010  0.51360  0.18570  Biso   1.000  C
  H3       1.0000 0.29100  0.55200  0.23000  Biso   1.000  H
  C6       1.0000 0.23900  0.44790  0.24390  Biso   1.000  C
  H4       1.0000 0.28600  0.44300  0.33300  Biso   1.000  H
  C7       1.0000 0.15600  0.33147  0.24480  Biso   1.000  C
  C8       1.0000 0.16070  0.60342  0.99480  Biso   1.000  C
  C9       1.0000 0.03670  0.17140  0.48150  Biso   1.000  C
  H5       1.0000 0.03500  0.22400  0.49600  Biso   1.000  H
  C10      1.0000 0.00710  0.10880  0.51210  Biso   1.000  C
  H6       1.0000 0.97900  0.12000  0.55300  Biso   1.000  H
  C11      1.0000 0.01550  0.03399  0.48350  Biso   1.000  C
  C12      1.0000 0.05720  0.02505  0.42530  Biso   1.000  C
  H7       1.0000 0.06900  0.97800  0.40400  Biso   1.000  H
  C13      1.0000 0.08670  0.08861  0.39710  Biso   1.000  C
  H8       1.0000 0.11900  0.08600  0.36400  Biso   1.000  H
  O6       1.0000 0.57549  0.79957  0.18533  Biso   1.000  O
  O7       1.0000 0.72992  0.81351  0.35459  Biso   1.000  O
  O8       1.0000 0.58841  0.11257  0.87990  Biso   1.000  O
  O9       1.0000 0.73029  0.14939  0.06227  Biso   1.000  O
  O10      1.0000 0.59995  0.72088  0.38967  Biso   1.000  O
  N2       1.0000 0.57411  0.66020  0.42280  Biso   1.000  N
  C14      1.0000 0.66150  0.89827  0.17720  Biso   1.000  C
  C15      1.0000 0.58620  0.91430  0.04970  Biso   1.000  C
  H9       1.0000 0.53700  0.88200  0.01000  Biso   1.000  H
  C16      1.0000 0.58750  0.97920  0.99050  Biso   1.000  C
  H10      1.0000 0.53700  0.99300  0.90300  Biso   1.000  H
  C17      1.0000 0.66430  0.02976  0.05840  Biso   1.000  C
  C18      1.0000 0.74010  0.01360  0.18570  Biso   1.000  C
  H11      1.0000 0.79100  0.05200  0.23000  Biso   1.000  H
  C19      1.0000 0.73900  0.94790  0.24390  Biso   1.000  C
  H12      1.0000 0.78600  0.94300  0.33300  Biso   1.000  H
  C20      1.0000 0.65600  0.83147  0.24480  Biso   1.000  C
  C21      1.0000 0.66070  0.10342  0.99480  Biso   1.000  C
  C22      1.0000 0.53670  0.67140  0.48150  Biso   1.000  C
  H13      1.0000 0.53500  0.72400  0.49600  Biso   1.000  H
  C23      1.0000 0.50710  0.60880  0.51210  Biso   1.000  C
  H14      1.0000 0.47900  0.62000  0.55300  Biso   1.000  H
  C24      1.0000 0.51550  0.53399  0.48350  Biso   1.000  C
  C25      1.0000 0.55720  0.52505  0.42530  Biso   1.000  C
  H15      1.0000 0.56900  0.47800  0.40400  Biso   1.000  H
  C26      1.0000 0.58670  0.58861  0.39710  Biso   1.000  C
  H16      1.0000 0.61900  0.58600  0.36400  Biso   1.000  H
  O11      1.0000 0.92451  0.29957  0.31467  Biso   1.000  O
  O12      1.0000 0.77008  0.31351  0.14541  Biso   1.000  O
  O13      1.0000 0.91159  0.61257  0.62010  Biso   1.000  O
  O14      1.0000 0.76971  0.64939  0.43773  Biso   1.000  O
  O15      1.0000 0.90005  0.22088  0.11033  Biso   1.000  O
  N3       1.0000 0.92589  0.16020  0.07720  Biso   1.000  N
  C27      1.0000 0.83850  0.39827  0.32280  Biso   1.000  C
  C28      1.0000 0.91380  0.41430  0.45030  Biso   1.000  C
  H17      1.0000 0.96300  0.38200  0.49000  Biso   1.000  H
  C29      1.0000 0.91250  0.47920  0.50950  Biso   1.000  C
  H18      1.0000 0.96300  0.49300  0.59700  Biso   1.000  H
  C30      1.0000 0.83570  0.52976  0.44160  Biso   1.000  C
  C31      1.0000 0.75990  0.51360  0.31430  Biso   1.000  C
  H19      1.0000 0.70900  0.55200  0.27000  Biso   1.000  H
  C32      1.0000 0.76100  0.44790  0.25610  Biso   1.000  C
  H20      1.0000 0.71400  0.44300  0.16700  Biso   1.000  H
  C33      1.0000 0.84400  0.33147  0.25520  Biso   1.000  C
  C34      1.0000 0.83930  0.60342  0.50520  Biso   1.000  C
  C35      1.0000 0.96330  0.17140  0.01850  Biso   1.000  C
  H21      1.0000 0.96500  0.22400  0.00400  Biso   1.000  H
  C36      1.0000 0.99290  0.10880  0.98790  Biso   1.000  C
  H22      1.0000 0.02100  0.12000  0.94700  Biso   1.000  H
  C37      1.0000 0.98450  0.03399  0.01650  Biso   1.000  C
  C38      1.0000 0.94280  0.02505  0.07470  Biso   1.000  C
  H23      1.0000 0.93100  0.97800  0.09600  Biso   1.000  H
  C39      1.0000 0.91330  0.08861  0.10290  Biso   1.000  C
  H24      1.0000 0.88100  0.08600  0.13600  Biso   1.000  H
  O16      1.0000 0.42451  0.79957  0.31467  Biso   1.000  O
  O17      1.0000 0.27008  0.81351  0.14541  Biso   1.000  O
  O18      1.0000 0.41159  0.11257  0.62010  Biso   1.000  O
  O19      1.0000 0.26971  0.14939  0.43773  Biso   1.000  O
  O20      1.0000 0.40005  0.72088  0.11033  Biso   1.000  O
  N4       1.0000 0.42589  0.66020  0.07720  Biso   1.000  N
  C40      1.0000 0.33850  0.89827  0.32280  Biso   1.000  C
  C41      1.0000 0.41380  0.91430  0.45030  Biso   1.000  C
  H25      1.0000 0.46300  0.88200  0.49000  Biso   1.000  H
  C42      1.0000 0.41250  0.97920  0.50950  Biso   1.000  C
  H26      1.0000 0.46300  0.99300  0.59700  Biso   1.000  H
  C43      1.0000 0.33570  0.02976  0.44160  Biso   1.000  C
  C44      1.0000 0.25990  0.01360  0.31430  Biso   1.000  C
  H27      1.0000 0.20900  0.05200  0.27000  Biso   1.000  H
  C45      1.0000 0.26100  0.94790  0.25610  Biso   1.000  C
  H28      1.0000 0.21400  0.94300  0.16700  Biso   1.000  H
  C46      1.0000 0.34400  0.83147  0.25520  Biso   1.000  C
  C47      1.0000 0.33930  0.10342  0.50520  Biso   1.000  C
  C48      1.0000 0.46330  0.67140  0.01850  Biso   1.000  C
  H29      1.0000 0.46500  0.72400  0.00400  Biso   1.000  H
  C49      1.0000 0.49290  0.60880  0.98790  Biso   1.000  C
  H30      1.0000 0.52100  0.62000  0.94700  Biso   1.000  H
  C50      1.0000 0.48450  0.53399  0.01650  Biso   1.000  C
  C51      1.0000 0.44280  0.52505  0.07470  Biso   1.000  C
  H31      1.0000 0.43100  0.47800  0.09600  Biso   1.000  H
  C52      1.0000 0.41330  0.58861  0.10290  Biso   1.000  C
  H32      1.0000 0.38100  0.58600  0.13600  Biso   1.000  H
  O21      1.0000 0.92451  0.70043  0.81467  Biso   1.000  O
  O22      1.0000 0.77008  0.68649  0.64541  Biso   1.000  O
  O23      1.0000 0.91159  0.38743  0.12010  Biso   1.000  O
  O24      1.0000 0.76971  0.35061  0.93773  Biso   1.000  O
  O25      1.0000 0.90005  0.77912  0.61033  Biso   1.000  O
  N5       1.0000 0.92589  0.83980  0.57720  Biso   1.000  N
  C53      1.0000 0.83850  0.60173  0.82280  Biso   1.000  C
  C54      1.0000 0.91380  0.58570  0.95030  Biso   1.000  C
  H33      1.0000 0.96300  0.61800  0.99000  Biso   1.000  H
  C55      1.0000 0.91250  0.52080  0.00950  Biso   1.000  C
  H34      1.0000 0.96300  0.50700  0.09700  Biso   1.000  H
  C56      1.0000 0.83570  0.47024  0.94160  Biso   1.000  C
  C57      1.0000 0.75990  0.48640  0.81430  Biso   1.000  C
  H35      1.0000 0.70900  0.44800  0.77000  Biso   1.000  H
  C58      1.0000 0.76100  0.55210  0.75610  Biso   1.000  C
  H36      1.0000 0.71400  0.55700  0.66700  Biso   1.000  H
  C59      1.0000 0.84400  0.66853  0.75520  Biso   1.000  C
  C60      1.0000 0.83930  0.39658  0.00520  Biso   1.000  C
  C61      1.0000 0.96330  0.82860  0.51850  Biso   1.000  C
  H37      1.0000 0.96500  0.77600  0.50400  Biso   1.000  H
  C62      1.0000 0.99290  0.89120  0.48790  Biso   1.000  C
  H38      1.0000 0.02100  0.88000  0.44700  Biso   1.000  H
  C63      1.0000 0.98450  0.96601  0.51650  Biso   1.000  C
  C64      1.0000 0.94280  0.97495  0.57470  Biso   1.000  C
  H39      1.0000 0.93100  0.02200  0.59600  Biso   1.000  H
  C65      1.0000 0.91330  0.91139  0.60290  Biso   1.000  C
  H40      1.0000 0.88100  0.91400  0.63600  Biso   1.000  H
  O26      1.0000 0.42451  0.20043  0.81467  Biso   1.000  O
  O27      1.0000 0.27008  0.18649  0.64541  Biso   1.000  O
  O28      1.0000 0.41159  0.88743  0.12010  Biso   1.000  O
  O29      1.0000 0.26971  0.85061  0.93773  Biso   1.000  O
  O30      1.0000 0.40005  0.27912  0.61033  Biso   1.000  O
  N6       1.0000 0.42589  0.33980  0.57720  Biso   1.000  N
  C66      1.0000 0.33850  0.10173  0.82280  Biso   1.000  C
  C67      1.0000 0.41380  0.08570  0.95030  Biso   1.000  C
  H41      1.0000 0.46300  0.11800  0.99000  Biso   1.000  H
  C68      1.0000 0.41250  0.02080  0.00950  Biso   1.000  C
  H42      1.0000 0.46300  0.00700  0.09700  Biso   1.000  H
  C69      1.0000 0.33570  0.97024  0.94160  Biso   1.000  C
  C70      1.0000 0.25990  0.98640  0.81430  Biso   1.000  C
  H43      1.0000 0.20900  0.94800  0.77000  Biso   1.000  H
  C71      1.0000 0.26100  0.05210  0.75610  Biso   1.000  C
  H44      1.0000 0.21400  0.05700  0.66700  Biso   1.000  H
  C72      1.0000 0.34400  0.16853  0.75520  Biso   1.000  C
  C73      1.0000 0.33930  0.89658  0.00520  Biso   1.000  C
  C74      1.0000 0.46330  0.32860  0.51850  Biso   1.000  C
  H45      1.0000 0.46500  0.27600  0.50400  Biso   1.000  H
  C75      1.0000 0.49290  0.39120  0.48790  Biso   1.000  C
  H46      1.0000 0.52100  0.38000  0.44700  Biso   1.000  H
  C76      1.0000 0.48450  0.46601  0.51650  Biso   1.000  C
  C77      1.0000 0.44280  0.47495  0.57470  Biso   1.000  C
  H47      1.0000 0.43100  0.52200  0.59600  Biso   1.000  H
  C78      1.0000 0.41330  0.41139  0.60290  Biso   1.000  C
  H48      1.0000 0.38100  0.41400  0.63600  Biso   1.000  H
  O31      1.0000 0.07549  0.70043  0.68533  Biso   1.000  O
  O32      1.0000 0.22992  0.68649  0.85459  Biso   1.000  O
  O33      1.0000 0.08841  0.38743  0.37990  Biso   1.000  O
  O34      1.0000 0.23029  0.35061  0.56227  Biso   1.000  O
  O35      1.0000 0.09995  0.77912  0.88967  Biso   1.000  O
  N7       1.0000 0.07411  0.83980  0.92280  Biso   1.000  N
  C79      1.0000 0.16150  0.60173  0.67720  Biso   1.000  C
  C80      1.0000 0.08620  0.58570  0.54970  Biso   1.000  C
  H49      1.0000 0.03700  0.61800  0.51000  Biso   1.000  H
  C81      1.0000 0.08750  0.52080  0.49050  Biso   1.000  C
  H50      1.0000 0.03700  0.50700  0.40300  Biso   1.000  H
  C82      1.0000 0.16430  0.47024  0.55840  Biso   1.000  C
  C83      1.0000 0.24010  0.48640  0.68570  Biso   1.000  C
  H51      1.0000 0.29100  0.44800  0.73000  Biso   1.000  H
  C84      1.0000 0.23900  0.55210  0.74390  Biso   1.000  C
  H52      1.0000 0.28600  0.55700  0.83300  Biso   1.000  H
  C85      1.0000 0.15600  0.66853  0.74480  Biso   1.000  C
  C86      1.0000 0.16070  0.39658  0.49480  Biso   1.000  C
  C87      1.0000 0.03670  0.82860  0.98150  Biso   1.000  C
  H53      1.0000 0.03500  0.77600  0.99600  Biso   1.000  H
  C88      1.0000 0.00710  0.89120  0.01210  Biso   1.000  C
  H54      1.0000 0.97900  0.88000  0.05300  Biso   1.000  H
  C89      1.0000 0.01550  0.96601  0.98350  Biso   1.000  C
  C90      1.0000 0.05720  0.97495  0.92530  Biso   1.000  C
  H55      1.0000 0.06900  0.02200  0.90400  Biso   1.000  H
  C91      1.0000 0.08670  0.91139  0.89710  Biso   1.000  C
  H56      1.0000 0.11900  0.91400  0.86400  Biso   1.000  H
  O36      1.0000 0.57549  0.20043  0.68533  Biso   1.000  O
  O37      1.0000 0.72992  0.18649  0.85459  Biso   1.000  O
  O38      1.0000 0.58841  0.88743  0.37990  Biso   1.000  O
  O39      1.0000 0.73029  0.85061  0.56227  Biso   1.000  O
  O40      1.0000 0.59995  0.27912  0.88967  Biso   1.000  O
  N8       1.0000 0.57411  0.33980  0.92280  Biso   1.000  N
  C92      1.0000 0.66150  0.10173  0.67720  Biso   1.000  C
  C93      1.0000 0.58620  0.08570  0.54970  Biso   1.000  C
  H57      1.0000 0.53700  0.11800  0.51000  Biso   1.000  H
  C94      1.0000 0.58750  0.02080  0.49050  Biso   1.000  C
  H58      1.0000 0.53700  0.00700  0.40300  Biso   1.000  H
  C95      1.0000 0.66430  0.97024  0.55840  Biso   1.000  C
  C96      1.0000 0.74010  0.98640  0.68570  Biso   1.000  C
  H59      1.0000 0.79100  0.94800  0.73000  Biso   1.000  H
  C97      1.0000 0.73900  0.05210  0.74390  Biso   1.000  C
  H60      1.0000 0.78600  0.05700  0.83300  Biso   1.000  H
  C98      1.0000 0.65600  0.16853  0.74480  Biso   1.000  C
  C99      1.0000 0.66070  0.89658  0.49480  Biso   1.000  C
  C100     1.0000 0.53670  0.32860  0.98150  Biso   1.000  C
  H61      1.0000 0.53500  0.27600  0.99600  Biso   1.000  H
  C101     1.0000 0.50710  0.39120  0.01210  Biso   1.000  C
  H62      1.0000 0.47900  0.38000  0.05300  Biso   1.000  H
  C102     1.0000 0.51550  0.46601  0.98350  Biso   1.000  C
  C103     1.0000 0.55720  0.47495  0.92530  Biso   1.000  C
  H63      1.0000 0.56900  0.52200  0.90400  Biso   1.000  H
  C104     1.0000 0.58670  0.41139  0.89710  Biso   1.000  C
  H64      1.0000 0.61900  0.41400  0.86400  Biso   1.000  H
  Mg1      1.0000 0.00000  0.30499  0.25000  Biso   1.000  Mg
  Mg2      1.0000 0.50000  0.80499  0.25000  Biso   1.000  Mg
  Mg3      1.0000 0.00000  0.69501  0.75000  Biso   1.000  Mg
  Mg4      1.0000 0.50000  0.19501  0.75000  Biso   1.000  Mg
  Mg5      1.0000 0.25000  0.25000  0.50000  Biso   1.000  Mg
  Mg6      1.0000 0.75000  0.25000  0.00000  Biso   1.000  Mg
  Mg7      1.0000 0.75000  0.75000  0.50000  Biso   1.000  Mg
  Mg8      1.0000 0.25000  0.75000  0.00000  Biso   1.000  Mg
