data_image0
_cell_length_a       19.3184
_cell_length_b       19.3184
_cell_length_c       19.3184
_cell_angle_alpha    90
_cell_angle_beta     90
_cell_angle_gamma    90

_symmetry_space_group_name_H-M    "P 1"
_symmetry_int_tables_number       1

loop_
  _symmetry_equiv_pos_as_xyz
  'x, y, z'

loop_
  _atom_site_label
  _atom_site_occupancy
  _atom_site_fract_x
  _atom_site_fract_y
  _atom_site_fract_z
  _atom_site_thermal_displace_type
  _atom_site_B_iso_or_equiv
  _atom_site_type_symbol
  N1       1.0000 0.45636  0.53280  0.09650  Biso   1.000  N
  C1       1.0000 0.31240  0.55860  0.21490  Biso   1.000  C
  C2       1.0000 0.25200  0.56040  0.17990  Biso   1.000  C
  H1       1.0000 0.25270  0.56230  0.13080  Biso   1.000  H
  C3       1.0000 0.18690  0.55970  0.21540  Biso   1.000  C
  H2       1.0000 0.14450  0.55990  0.19050  Biso   1.000  H
  C4       1.0000 0.38840  0.52750  0.11340  Biso   1.000  C
  H3       1.0000 0.35360  0.50730  0.08510  Biso   1.000  H
  C5       1.0000 0.48580  0.56250  0.14930  Biso   1.000  C
  H4       1.0000 0.53390  0.57220  0.15240  Biso   1.000  H
  C6       1.0000 0.43850  0.57820  0.19980  Biso   1.000  C
  H5       1.0000 0.44750  0.60070  0.24260  Biso   1.000  H
  C7       1.0000 0.37780  0.55570  0.17700  Biso   1.000  C
  N2       1.0000 0.04364  0.96720  0.09650  Biso   1.000  N
  C8       1.0000 0.18760  0.94140  0.21490  Biso   1.000  C
  C9       1.0000 0.24800  0.93960  0.17990  Biso   1.000  C
  H6       1.0000 0.24730  0.93770  0.13080  Biso   1.000  H
  C10      1.0000 0.31310  0.94030  0.21540  Biso   1.000  C
  H7       1.0000 0.35550  0.94010  0.19050  Biso   1.000  H
  C11      1.0000 0.11160  0.97250  0.11340  Biso   1.000  C
  H8       1.0000 0.14640  0.99270  0.08510  Biso   1.000  H
  C12      1.0000 0.01420  0.93750  0.14930  Biso   1.000  C
  H9       1.0000 0.96610  0.92780  0.15240  Biso   1.000  H
  C13      1.0000 0.06150  0.92180  0.19980  Biso   1.000  C
  H10      1.0000 0.05250  0.89930  0.24260  Biso   1.000  H
  C14      1.0000 0.12220  0.94430  0.17700  Biso   1.000  C
  N3       1.0000 0.04364  0.53280  0.40350  Biso   1.000  N
  C15      1.0000 0.18760  0.55860  0.28510  Biso   1.000  C
  C16      1.0000 0.24800  0.56040  0.32010  Biso   1.000  C
  H11      1.0000 0.24730  0.56230  0.36920  Biso   1.000  H
  C17      1.0000 0.31310  0.55970  0.28460  Biso   1.000  C
  H12      1.0000 0.35550  0.55990  0.30950  Biso   1.000  H
  C18      1.0000 0.11160  0.52750  0.38660  Biso   1.000  C
  H13      1.0000 0.14640  0.50730  0.41490  Biso   1.000  H
  C19      1.0000 0.01420  0.56250  0.35070  Biso   1.000  C
  H14      1.0000 0.96610  0.57220  0.34760  Biso   1.000  H
  C20      1.0000 0.06150  0.57820  0.30020  Biso   1.000  C
  H15      1.0000 0.05250  0.60070  0.25740  Biso   1.000  H
  C21      1.0000 0.12220  0.55570  0.32300  Biso   1.000  C
  N4       1.0000 0.45636  0.96720  0.40350  Biso   1.000  N
  C22      1.0000 0.31240  0.94140  0.28510  Biso   1.000  C
  C23      1.0000 0.25200  0.93960  0.32010  Biso   1.000  C
  H16      1.0000 0.25270  0.93770  0.36920  Biso   1.000  H
  C24      1.0000 0.18690  0.94030  0.28460  Biso   1.000  C
  H17      1.0000 0.14450  0.94010  0.30950  Biso   1.000  H
  C25      1.0000 0.38840  0.97250  0.38660  Biso   1.000  C
  H18      1.0000 0.35360  0.99270  0.41490  Biso   1.000  H
  C26      1.0000 0.48580  0.93750  0.35070  Biso   1.000  C
  H19      1.0000 0.53390  0.92780  0.34760  Biso   1.000  H
  C27      1.0000 0.43850  0.92180  0.30020  Biso   1.000  C
  H20      1.0000 0.44750  0.89930  0.25740  Biso   1.000  H
  C28      1.0000 0.37780  0.94430  0.32300  Biso   1.000  C
  N5       1.0000 0.09650  0.45636  0.53280  Biso   1.000  N
  C29      1.0000 0.21490  0.31240  0.55860  Biso   1.000  C
  C30      1.0000 0.17990  0.25200  0.56040  Biso   1.000  C
  H21      1.0000 0.13080  0.25270  0.56230  Biso   1.000  H
  C31      1.0000 0.21540  0.18690  0.55970  Biso   1.000  C
  H22      1.0000 0.19050  0.14450  0.55990  Biso   1.000  H
  C32      1.0000 0.11340  0.38840  0.52750  Biso   1.000  C
  H23      1.0000 0.08510  0.35360  0.50730  Biso   1.000  H
  C33      1.0000 0.14930  0.48580  0.56250  Biso   1.000  C
  H24      1.0000 0.15240  0.53390  0.57220  Biso   1.000  H
  C34      1.0000 0.19980  0.43850  0.57820  Biso   1.000  C
  H25      1.0000 0.24260  0.44750  0.60070  Biso   1.000  H
  C35      1.0000 0.17700  0.37780  0.55570  Biso   1.000  C
  N6       1.0000 0.09650  0.04364  0.96720  Biso   1.000  N
  C36      1.0000 0.21490  0.18760  0.94140  Biso   1.000  C
  C37      1.0000 0.17990  0.24800  0.93960  Biso   1.000  C
  H26      1.0000 0.13080  0.24730  0.93770  Biso   1.000  H
  C38      1.0000 0.21540  0.31310  0.94030  Biso   1.000  C
  H27      1.0000 0.19050  0.35550  0.94010  Biso   1.000  H
  C39      1.0000 0.11340  0.11160  0.97250  Biso   1.000  C
  H28      1.0000 0.08510  0.14640  0.99270  Biso   1.000  H
  C40      1.0000 0.14930  0.01420  0.93750  Biso   1.000  C
  H29      1.0000 0.15240  0.96610  0.92780  Biso   1.000  H
  C41      1.0000 0.19980  0.06150  0.92180  Biso   1.000  C
  H30      1.0000 0.24260  0.05250  0.89930  Biso   1.000  H
  C42      1.0000 0.17700  0.12220  0.94430  Biso   1.000  C
  N7       1.0000 0.40350  0.04364  0.53280  Biso   1.000  N
  C43      1.0000 0.28510  0.18760  0.55860  Biso   1.000  C
  C44      1.0000 0.32010  0.24800  0.56040  Biso   1.000  C
  H31      1.0000 0.36920  0.24730  0.56230  Biso   1.000  H
  C45      1.0000 0.28460  0.31310  0.55970  Biso   1.000  C
  H32      1.0000 0.30950  0.35550  0.55990  Biso   1.000  H
  C46      1.0000 0.38660  0.11160  0.52750  Biso   1.000  C
  H33      1.0000 0.41490  0.14640  0.50730  Biso   1.000  H
  C47      1.0000 0.35070  0.01420  0.56250  Biso   1.000  C
  H34      1.0000 0.34760  0.96610  0.57220  Biso   1.000  H
  C48      1.0000 0.30020  0.06150  0.57820  Biso   1.000  C
  H35      1.0000 0.25740  0.05250  0.60070  Biso   1.000  H
  C49      1.0000 0.32300  0.12220  0.55570  Biso   1.000  C
  N8       1.0000 0.40350  0.45636  0.96720  Biso   1.000  N
  C50      1.0000 0.28510  0.31240  0.94140  Biso   1.000  C
  C51      1.0000 0.32010  0.25200  0.93960  Biso   1.000  C
  H36      1.0000 0.36920  0.25270  0.93770  Biso   1.000  H
  C52      1.0000 0.28460  0.18690  0.94030  Biso   1.000  C
  H37      1.0000 0.30950  0.14450  0.94010  Biso   1.000  H
  C53      1.0000 0.38660  0.38840  0.97250  Biso   1.000  C
  H38      1.0000 0.41490  0.35360  0.99270  Biso   1.000  H
  C54      1.0000 0.35070  0.48580  0.93750  Biso   1.000  C
  H39      1.0000 0.34760  0.53390  0.92780  Biso   1.000  H
  C55      1.0000 0.30020  0.43850  0.92180  Biso   1.000  C
  H40      1.0000 0.25740  0.44750  0.89930  Biso   1.000  H
  C56      1.0000 0.32300  0.37780  0.94430  Biso   1.000  C
  N9       1.0000 0.53280  0.09650  0.45636  Biso   1.000  N
  C57      1.0000 0.55860  0.21490  0.31240  Biso   1.000  C
  C58      1.0000 0.56040  0.17990  0.25200  Biso   1.000  C
  H41      1.0000 0.56230  0.13080  0.25270  Biso   1.000  H
  C59      1.0000 0.55970  0.21540  0.18690  Biso   1.000  C
  H42      1.0000 0.55990  0.19050  0.14450  Biso   1.000  H
  C60      1.0000 0.52750  0.11340  0.38840  Biso   1.000  C
  H43      1.0000 0.50730  0.08510  0.35360  Biso   1.000  H
  C61      1.0000 0.56250  0.14930  0.48580  Biso   1.000  C
  H44      1.0000 0.57220  0.15240  0.53390  Biso   1.000  H
  C62      1.0000 0.57820  0.19980  0.43850  Biso   1.000  C
  H45      1.0000 0.60070  0.24260  0.44750  Biso   1.000  H
  C63      1.0000 0.55570  0.17700  0.37780  Biso   1.000  C
  N10      1.0000 0.96720  0.09650  0.04364  Biso   1.000  N
  C64      1.0000 0.94140  0.21490  0.18760  Biso   1.000  C
  C65      1.0000 0.93960  0.17990  0.24800  Biso   1.000  C
  H46      1.0000 0.93770  0.13080  0.24730  Biso   1.000  H
  C66      1.0000 0.94030  0.21540  0.31310  Biso   1.000  C
  H47      1.0000 0.94010  0.19050  0.35550  Biso   1.000  H
  C67      1.0000 0.97250  0.11340  0.11160  Biso   1.000  C
  H48      1.0000 0.99270  0.08510  0.14640  Biso   1.000  H
  C68      1.0000 0.93750  0.14930  0.01420  Biso   1.000  C
  H49      1.0000 0.92780  0.15240  0.96610  Biso   1.000  H
  C69      1.0000 0.92180  0.19980  0.06150  Biso   1.000  C
  H50      1.0000 0.89930  0.24260  0.05250  Biso   1.000  H
  C70      1.0000 0.94430  0.17700  0.12220  Biso   1.000  C
  N11      1.0000 0.53280  0.40350  0.04364  Biso   1.000  N
  C71      1.0000 0.55860  0.28510  0.18760  Biso   1.000  C
  C72      1.0000 0.56040  0.32010  0.24800  Biso   1.000  C
  H51      1.0000 0.56230  0.36920  0.24730  Biso   1.000  H
  C73      1.0000 0.55970  0.28460  0.31310  Biso   1.000  C
  H52      1.0000 0.55990  0.30950  0.35550  Biso   1.000  H
  C74      1.0000 0.52750  0.38660  0.11160  Biso   1.000  C
  H53      1.0000 0.50730  0.41490  0.14640  Biso   1.000  H
  C75      1.0000 0.56250  0.35070  0.01420  Biso   1.000  C
  H54      1.0000 0.57220  0.34760  0.96610  Biso   1.000  H
  C76      1.0000 0.57820  0.30020  0.06150  Biso   1.000  C
  H55      1.0000 0.60070  0.25740  0.05250  Biso   1.000  H
  C77      1.0000 0.55570  0.32300  0.12220  Biso   1.000  C
  N12      1.0000 0.96720  0.40350  0.45636  Biso   1.000  N
  C78      1.0000 0.94140  0.28510  0.31240  Biso   1.000  C
  C79      1.0000 0.93960  0.32010  0.25200  Biso   1.000  C
  H56      1.0000 0.93770  0.36920  0.25270  Biso   1.000  H
  C80      1.0000 0.94030  0.28460  0.18690  Biso   1.000  C
  H57      1.0000 0.94010  0.30950  0.14450  Biso   1.000  H
  C81      1.0000 0.97250  0.38660  0.38840  Biso   1.000  C
  H58      1.0000 0.99270  0.41490  0.35360  Biso   1.000  H
  C82      1.0000 0.93750  0.35070  0.48580  Biso   1.000  C
  H59      1.0000 0.92780  0.34760  0.53390  Biso   1.000  H
  C83      1.0000 0.92180  0.30020  0.43850  Biso   1.000  C
  H60      1.0000 0.89930  0.25740  0.44750  Biso   1.000  H
  C84      1.0000 0.94430  0.32300  0.37780  Biso   1.000  C
  N13      1.0000 0.54364  0.46720  0.90350  Biso   1.000  N
  C85      1.0000 0.68760  0.44140  0.78510  Biso   1.000  C
  C86      1.0000 0.74800  0.43960  0.82010  Biso   1.000  C
  H61      1.0000 0.74730  0.43770  0.86920  Biso   1.000  H
  C87      1.0000 0.81310  0.44030  0.78460  Biso   1.000  C
  H62      1.0000 0.85550  0.44010  0.80950  Biso   1.000  H
  C88      1.0000 0.61160  0.47250  0.88660  Biso   1.000  C
  H63      1.0000 0.64640  0.49270  0.91490  Biso   1.000  H
  C89      1.0000 0.51420  0.43750  0.85070  Biso   1.000  C
  H64      1.0000 0.46610  0.42780  0.84760  Biso   1.000  H
  C90      1.0000 0.56150  0.42180  0.80020  Biso   1.000  C
  H65      1.0000 0.55250  0.39930  0.75740  Biso   1.000  H
  C91      1.0000 0.62220  0.44430  0.82300  Biso   1.000  C
  N14      1.0000 0.95636  0.03280  0.90350  Biso   1.000  N
  C92      1.0000 0.81240  0.05860  0.78510  Biso   1.000  C
  C93      1.0000 0.75200  0.06040  0.82010  Biso   1.000  C
  H66      1.0000 0.75270  0.06230  0.86920  Biso   1.000  H
  C94      1.0000 0.68690  0.05970  0.78460  Biso   1.000  C
  H67      1.0000 0.64450  0.05990  0.80950  Biso   1.000  H
  C95      1.0000 0.88840  0.02750  0.88660  Biso   1.000  C
  H68      1.0000 0.85360  0.00730  0.91490  Biso   1.000  H
  C96      1.0000 0.98580  0.06250  0.85070  Biso   1.000  C
  H69      1.0000 0.03390  0.07220  0.84760  Biso   1.000  H
  C97      1.0000 0.93850  0.07820  0.80020  Biso   1.000  C
  H70      1.0000 0.94750  0.10070  0.75740  Biso   1.000  H
  C98      1.0000 0.87780  0.05570  0.82300  Biso   1.000  C
  N15      1.0000 0.95636  0.46720  0.59650  Biso   1.000  N
  C99      1.0000 0.81240  0.44140  0.71490  Biso   1.000  C
  C100     1.0000 0.75200  0.43960  0.67990  Biso   1.000  C
  H71      1.0000 0.75270  0.43770  0.63080  Biso   1.000  H
  C101     1.0000 0.68690  0.44030  0.71540  Biso   1.000  C
  H72      1.0000 0.64450  0.44010  0.69050  Biso   1.000  H
  C102     1.0000 0.88840  0.47250  0.61340  Biso   1.000  C
  H73      1.0000 0.85360  0.49270  0.58510  Biso   1.000  H
  C103     1.0000 0.98580  0.43750  0.64930  Biso   1.000  C
  H74      1.0000 0.03390  0.42780  0.65240  Biso   1.000  H
  C104     1.0000 0.93850  0.42180  0.69980  Biso   1.000  C
  H75      1.0000 0.94750  0.39930  0.74260  Biso   1.000  H
  C105     1.0000 0.87780  0.44430  0.67700  Biso   1.000  C
  N16      1.0000 0.54364  0.03280  0.59650  Biso   1.000  N
  C106     1.0000 0.68760  0.05860  0.71490  Biso   1.000  C
  C107     1.0000 0.74800  0.06040  0.67990  Biso   1.000  C
  H76      1.0000 0.74730  0.06230  0.63080  Biso   1.000  H
  C108     1.0000 0.81310  0.05970  0.71540  Biso   1.000  C
  H77      1.0000 0.85550  0.05990  0.69050  Biso   1.000  H
  C109     1.0000 0.61160  0.02750  0.61340  Biso   1.000  C
  H78      1.0000 0.64640  0.00730  0.58510  Biso   1.000  H
  C110     1.0000 0.51420  0.06250  0.64930  Biso   1.000  C
  H79      1.0000 0.46610  0.07220  0.65240  Biso   1.000  H
  C111     1.0000 0.56150  0.07820  0.69980  Biso   1.000  C
  H80      1.0000 0.55250  0.10070  0.74260  Biso   1.000  H
  C112     1.0000 0.62220  0.05570  0.67700  Biso   1.000  C
  N17      1.0000 0.90350  0.54364  0.46720  Biso   1.000  N
  C113     1.0000 0.78510  0.68760  0.44140  Biso   1.000  C
  C114     1.0000 0.82010  0.74800  0.43960  Biso   1.000  C
  H81      1.0000 0.86920  0.74730  0.43770  Biso   1.000  H
  C115     1.0000 0.78460  0.81310  0.44030  Biso   1.000  C
  H82      1.0000 0.80950  0.85550  0.44010  Biso   1.000  H
  C116     1.0000 0.88660  0.61160  0.47250  Biso   1.000  C
  H83      1.0000 0.91490  0.64640  0.49270  Biso   1.000  H
  C117     1.0000 0.85070  0.51420  0.43750  Biso   1.000  C
  H84      1.0000 0.84760  0.46610  0.42780  Biso   1.000  H
  C118     1.0000 0.80020  0.56150  0.42180  Biso   1.000  C
  H85      1.0000 0.75740  0.55250  0.39930  Biso   1.000  H
  C119     1.0000 0.82300  0.62220  0.44430  Biso   1.000  C
  N18      1.0000 0.90350  0.95636  0.03280  Biso   1.000  N
  C120     1.0000 0.78510  0.81240  0.05860  Biso   1.000  C
  C121     1.0000 0.82010  0.75200  0.06040  Biso   1.000  C
  H86      1.0000 0.86920  0.75270  0.06230  Biso   1.000  H
  C122     1.0000 0.78460  0.68690  0.05970  Biso   1.000  C
  H87      1.0000 0.80950  0.64450  0.05990  Biso   1.000  H
  C123     1.0000 0.88660  0.88840  0.02750  Biso   1.000  C
  H88      1.0000 0.91490  0.85360  0.00730  Biso   1.000  H
  C124     1.0000 0.85070  0.98580  0.06250  Biso   1.000  C
  H89      1.0000 0.84760  0.03390  0.07220  Biso   1.000  H
  C125     1.0000 0.80020  0.93850  0.07820  Biso   1.000  C
  H90      1.0000 0.75740  0.94750  0.10070  Biso   1.000  H
  C126     1.0000 0.82300  0.87780  0.05570  Biso   1.000  C
  N19      1.0000 0.59650  0.95636  0.46720  Biso   1.000  N
  C127     1.0000 0.71490  0.81240  0.44140  Biso   1.000  C
  C128     1.0000 0.67990  0.75200  0.43960  Biso   1.000  C
  H91      1.0000 0.63080  0.75270  0.43770  Biso   1.000  H
  C129     1.0000 0.71540  0.68690  0.44030  Biso   1.000  C
  H92      1.0000 0.69050  0.64450  0.44010  Biso   1.000  H
  C130     1.0000 0.61340  0.88840  0.47250  Biso   1.000  C
  H93      1.0000 0.58510  0.85360  0.49270  Biso   1.000  H
  C131     1.0000 0.64930  0.98580  0.43750  Biso   1.000  C
  H94      1.0000 0.65240  0.03390  0.42780  Biso   1.000  H
  C132     1.0000 0.69980  0.93850  0.42180  Biso   1.000  C
  H95      1.0000 0.74260  0.94750  0.39930  Biso   1.000  H
  C133     1.0000 0.67700  0.87780  0.44430  Biso   1.000  C
  N20      1.0000 0.59650  0.54364  0.03280  Biso   1.000  N
  C134     1.0000 0.71490  0.68760  0.05860  Biso   1.000  C
  C135     1.0000 0.67990  0.74800  0.06040  Biso   1.000  C
  H96      1.0000 0.63080  0.74730  0.06230  Biso   1.000  H
  C136     1.0000 0.71540  0.81310  0.05970  Biso   1.000  C
  H97      1.0000 0.69050  0.85550  0.05990  Biso   1.000  H
  C137     1.0000 0.61340  0.61160  0.02750  Biso   1.000  C
  H98      1.0000 0.58510  0.64640  0.00730  Biso   1.000  H
  C138     1.0000 0.64930  0.51420  0.06250  Biso   1.000  C
  H99      1.0000 0.65240  0.46610  0.07220  Biso   1.000  H
  C139     1.0000 0.69980  0.56150  0.07820  Biso   1.000  C
  H100     1.0000 0.74260  0.55250  0.10070  Biso   1.000  H
  C140     1.0000 0.67700  0.62220  0.05570  Biso   1.000  C
  N21      1.0000 0.46720  0.90350  0.54364  Biso   1.000  N
  C141     1.0000 0.44140  0.78510  0.68760  Biso   1.000  C
  C142     1.0000 0.43960  0.82010  0.74800  Biso   1.000  C
  H101     1.0000 0.43770  0.86920  0.74730  Biso   1.000  H
  C143     1.0000 0.44030  0.78460  0.81310  Biso   1.000  C
  H102     1.0000 0.44010  0.80950  0.85550  Biso   1.000  H
  C144     1.0000 0.47250  0.88660  0.61160  Biso   1.000  C
  H103     1.0000 0.49270  0.91490  0.64640  Biso   1.000  H
  C145     1.0000 0.43750  0.85070  0.51420  Biso   1.000  C
  H104     1.0000 0.42780  0.84760  0.46610  Biso   1.000  H
  C146     1.0000 0.42180  0.80020  0.56150  Biso   1.000  C
  H105     1.0000 0.39930  0.75740  0.55250  Biso   1.000  H
  C147     1.0000 0.44430  0.82300  0.62220  Biso   1.000  C
  N22      1.0000 0.03280  0.90350  0.95636  Biso   1.000  N
  C148     1.0000 0.05860  0.78510  0.81240  Biso   1.000  C
  C149     1.0000 0.06040  0.82010  0.75200  Biso   1.000  C
  H106     1.0000 0.06230  0.86920  0.75270  Biso   1.000  H
  C150     1.0000 0.05970  0.78460  0.68690  Biso   1.000  C
  H107     1.0000 0.05990  0.80950  0.64450  Biso   1.000  H
  C151     1.0000 0.02750  0.88660  0.88840  Biso   1.000  C
  H108     1.0000 0.00730  0.91490  0.85360  Biso   1.000  H
  C152     1.0000 0.06250  0.85070  0.98580  Biso   1.000  C
  H109     1.0000 0.07220  0.84760  0.03390  Biso   1.000  H
  C153     1.0000 0.07820  0.80020  0.93850  Biso   1.000  C
  H110     1.0000 0.10070  0.75740  0.94750  Biso   1.000  H
  C154     1.0000 0.05570  0.82300  0.87780  Biso   1.000  C
  N23      1.0000 0.46720  0.59650  0.95636  Biso   1.000  N
  C155     1.0000 0.44140  0.71490  0.81240  Biso   1.000  C
  C156     1.0000 0.43960  0.67990  0.75200  Biso   1.000  C
  H111     1.0000 0.43770  0.63080  0.75270  Biso   1.000  H
  C157     1.0000 0.44030  0.71540  0.68690  Biso   1.000  C
  H112     1.0000 0.44010  0.69050  0.64450  Biso   1.000  H
  C158     1.0000 0.47250  0.61340  0.88840  Biso   1.000  C
  H113     1.0000 0.49270  0.58510  0.85360  Biso   1.000  H
  C159     1.0000 0.43750  0.64930  0.98580  Biso   1.000  C
  H114     1.0000 0.42780  0.65240  0.03390  Biso   1.000  H
  C160     1.0000 0.42180  0.69980  0.93850  Biso   1.000  C
  H115     1.0000 0.39930  0.74260  0.94750  Biso   1.000  H
  C161     1.0000 0.44430  0.67700  0.87780  Biso   1.000  C
  N24      1.0000 0.03280  0.59650  0.54364  Biso   1.000  N
  C162     1.0000 0.05860  0.71490  0.68760  Biso   1.000  C
  C163     1.0000 0.06040  0.67990  0.74800  Biso   1.000  C
  H116     1.0000 0.06230  0.63080  0.74730  Biso   1.000  H
  C164     1.0000 0.05970  0.71540  0.81310  Biso   1.000  C
  H117     1.0000 0.05990  0.69050  0.85550  Biso   1.000  H
  C165     1.0000 0.02750  0.61340  0.61160  Biso   1.000  C
  H118     1.0000 0.00730  0.58510  0.64640  Biso   1.000  H
  C166     1.0000 0.06250  0.64930  0.51420  Biso   1.000  C
  H119     1.0000 0.07220  0.65240  0.46610  Biso   1.000  H
  C167     1.0000 0.07820  0.69980  0.56150  Biso   1.000  C
  H120     1.0000 0.10070  0.74260  0.55250  Biso   1.000  H
  C168     1.0000 0.05570  0.67700  0.62220  Biso   1.000  C
  Co1      1.0000 0.50000  0.50000  0.00000  Biso   1.000  Co
  Co2      1.0000 0.00000  0.00000  0.00000  Biso   1.000  Co
  Co3      1.0000 0.00000  0.50000  0.50000  Biso   1.000  Co
  Co4      1.0000 0.50000  0.00000  0.50000  Biso   1.000  Co
