data_image0
_cell_length_a       12.125
_cell_length_b       13.8332
_cell_length_c       21.6436
_cell_angle_alpha    90
_cell_angle_beta     90
_cell_angle_gamma    90

_symmetry_space_group_name_H-M    P 1
_symmetry_int_tables_number       1

loop_
  _symmetry_equiv_pos_as_xyz
  'x, y, z'

loop_
  _atom_site_label
  _atom_site_occupancy
  _atom_site_fract_x
  _atom_site_fract_y
  _atom_site_fract_z
  _atom_site_thermal_displace_type
  _atom_site_B_iso_or_equiv
  _atom_site_type_symbol
  Zn1      1.0000 0.24846  0.92514  0.24406  Biso   1.000  Zn
  Zn2      1.0000 0.23379  0.43234  0.12579  Biso   1.000  Zn
  Zn3      1.0000 0.24846  0.07486  0.75594  Biso   1.000  Zn
  Zn4      1.0000 0.23379  0.56766  0.87421  Biso   1.000  Zn
  Zn5      1.0000 0.75154  0.57486  0.74406  Biso   1.000  Zn
  Zn6      1.0000 0.76621  0.06766  0.62579  Biso   1.000  Zn
  Zn7      1.0000 0.75154  0.42514  0.25594  Biso   1.000  Zn
  Zn8      1.0000 0.76621  0.93234  0.37421  Biso   1.000  Zn
  H1       1.0000 0.23100  0.71890  0.21080  Biso   1.000  H
  H2       1.0000 0.94300  0.71820  0.34440  Biso   1.000  H
  H3       1.0000 0.04120  0.85720  0.32350  Biso   1.000  H
  H4       1.0000 0.25150  0.12980  0.19200  Biso   1.000  H
  H5       1.0000 0.60830  0.11360  0.25500  Biso   1.000  H
  H6       1.0000 0.49350  0.98560  0.26520  Biso   1.000  H
  H7       1.0000 0.37150  0.60430  0.08550  Biso   1.000  H
  H8       1.0000 0.46330  0.53040  0.10510  Biso   1.000  H
  H9       1.0000 0.60030  0.51850  0.96580  Biso   1.000  H
  H10      1.0000 0.37220  0.33210  0.01880  Biso   1.000  H
  H11      1.0000 0.46360  0.36420  0.06600  Biso   1.000  H
  H12      1.0000 0.23050  0.55330  0.01220  Biso   1.000  H
  H13      1.0000 0.23100  0.28110  0.78920  Biso   1.000  H
  H14      1.0000 0.94300  0.28180  0.65560  Biso   1.000  H
  H15      1.0000 0.04120  0.14280  0.67650  Biso   1.000  H
  H16      1.0000 0.25150  0.87020  0.80800  Biso   1.000  H
  H17      1.0000 0.60830  0.88640  0.74500  Biso   1.000  H
  H18      1.0000 0.49350  0.01440  0.73480  Biso   1.000  H
  H19      1.0000 0.37150  0.39570  0.91450  Biso   1.000  H
  H20      1.0000 0.46330  0.46960  0.89490  Biso   1.000  H
  H21      1.0000 0.60030  0.48150  0.03420  Biso   1.000  H
  H22      1.0000 0.37220  0.66790  0.98120  Biso   1.000  H
  H23      1.0000 0.46360  0.63580  0.93400  Biso   1.000  H
  H24      1.0000 0.23050  0.44670  0.98780  Biso   1.000  H
  H25      1.0000 0.76900  0.78110  0.71080  Biso   1.000  H
  H26      1.0000 0.05700  0.78180  0.84440  Biso   1.000  H
  H27      1.0000 0.95880  0.64280  0.82350  Biso   1.000  H
  H28      1.0000 0.74850  0.37020  0.69200  Biso   1.000  H
  H29      1.0000 0.39170  0.38640  0.75500  Biso   1.000  H
  H30      1.0000 0.50650  0.51440  0.76520  Biso   1.000  H
  H31      1.0000 0.62850  0.89570  0.58550  Biso   1.000  H
  H32      1.0000 0.53670  0.96960  0.60510  Biso   1.000  H
  H33      1.0000 0.39970  0.98150  0.46580  Biso   1.000  H
  H34      1.0000 0.62780  0.16790  0.51880  Biso   1.000  H
  H35      1.0000 0.53640  0.13580  0.56600  Biso   1.000  H
  H36      1.0000 0.76950  0.94670  0.51220  Biso   1.000  H
  H37      1.0000 0.76900  0.21890  0.28920  Biso   1.000  H
  H38      1.0000 0.05700  0.21820  0.15560  Biso   1.000  H
  H39      1.0000 0.95880  0.35720  0.17650  Biso   1.000  H
  H40      1.0000 0.74850  0.62980  0.30800  Biso   1.000  H
  H41      1.0000 0.39170  0.61360  0.24500  Biso   1.000  H
  H42      1.0000 0.50650  0.48560  0.23480  Biso   1.000  H
  H43      1.0000 0.62850  0.10430  0.41450  Biso   1.000  H
  H44      1.0000 0.53670  0.03040  0.39490  Biso   1.000  H
  H45      1.0000 0.39970  0.01850  0.53420  Biso   1.000  H
  H46      1.0000 0.62780  0.83210  0.48120  Biso   1.000  H
  H47      1.0000 0.53640  0.86420  0.43400  Biso   1.000  H
  H48      1.0000 0.76950  0.05330  0.48780  Biso   1.000  H
  C1       1.0000 0.17070  0.71880  0.23740  Biso   1.000  C
  C2       1.0000 0.11370  0.63220  0.24440  Biso   1.000  C
  C3       1.0000 0.15030  0.54620  0.20950  Biso   1.000  C
  C4       1.0000 0.02710  0.63170  0.28620  Biso   1.000  C
  C5       1.0000 0.04760  0.04340  0.20160  Biso   1.000  C
  C6       1.0000 0.00080  0.71660  0.31620  Biso   1.000  C
  C7       1.0000 0.06140  0.80010  0.30380  Biso   1.000  C
  C8       1.0000 0.32480  0.12650  0.20460  Biso   1.000  C
  C9       1.0000 0.39050  0.20920  0.19750  Biso   1.000  C
  C10      1.0000 0.33720  0.29840  0.17200  Biso   1.000  C
  C11      1.0000 0.49910  0.20480  0.21560  Biso   1.000  C
  C12      1.0000 0.42150  0.78930  0.29470  Biso   1.000  C
  C13      1.0000 0.53570  0.11870  0.24140  Biso   1.000  C
  C14      1.0000 0.46670  0.04200  0.24720  Biso   1.000  C
  C15      1.0000 0.41630  0.55070  0.07120  Biso   1.000  C
  C16      1.0000 0.41790  0.38590  0.03190  Biso   1.000  C
  C17      1.0000 0.17070  0.28120  0.76260  Biso   1.000  C
  C18      1.0000 0.11370  0.36780  0.75560  Biso   1.000  C
  C19      1.0000 0.15030  0.45380  0.79050  Biso   1.000  C
  C20      1.0000 0.02710  0.36830  0.71380  Biso   1.000  C
  C21      1.0000 0.04760  0.95660  0.79840  Biso   1.000  C
  C22      1.0000 0.00080  0.28340  0.68380  Biso   1.000  C
  C23      1.0000 0.06140  0.19990  0.69620  Biso   1.000  C
  C24      1.0000 0.32480  0.87350  0.79540  Biso   1.000  C
  C25      1.0000 0.39050  0.79080  0.80250  Biso   1.000  C
  C26      1.0000 0.33720  0.70160  0.82800  Biso   1.000  C
  C27      1.0000 0.49910  0.79520  0.78440  Biso   1.000  C
  C28      1.0000 0.42150  0.21070  0.70530  Biso   1.000  C
  C29      1.0000 0.53570  0.88130  0.75860  Biso   1.000  C
  C30      1.0000 0.46670  0.95800  0.75280  Biso   1.000  C
  C31      1.0000 0.41630  0.44930  0.92880  Biso   1.000  C
  C32      1.0000 0.41790  0.61410  0.96810  Biso   1.000  C
  C33      1.0000 0.82930  0.78120  0.73740  Biso   1.000  C
  C34      1.0000 0.88630  0.86780  0.74440  Biso   1.000  C
  C35      1.0000 0.84970  0.95380  0.70950  Biso   1.000  C
  C36      1.0000 0.97290  0.86830  0.78620  Biso   1.000  C
  C37      1.0000 0.95240  0.45660  0.70160  Biso   1.000  C
  C38      1.0000 0.99920  0.78340  0.81620  Biso   1.000  C
  C39      1.0000 0.93860  0.69990  0.80380  Biso   1.000  C
  C40      1.0000 0.67520  0.37350  0.70460  Biso   1.000  C
  C41      1.0000 0.60950  0.29080  0.69750  Biso   1.000  C
  C42      1.0000 0.66280  0.20160  0.67200  Biso   1.000  C
  C43      1.0000 0.50090  0.29520  0.71560  Biso   1.000  C
  C44      1.0000 0.57850  0.71070  0.79470  Biso   1.000  C
  C45      1.0000 0.46430  0.38130  0.74140  Biso   1.000  C
  C46      1.0000 0.53330  0.45800  0.74720  Biso   1.000  C
  C47      1.0000 0.58370  0.94930  0.57120  Biso   1.000  C
  C48      1.0000 0.58210  0.11410  0.53190  Biso   1.000  C
  C49      1.0000 0.82930  0.21880  0.26260  Biso   1.000  C
  C50      1.0000 0.88630  0.13220  0.25560  Biso   1.000  C
  C51      1.0000 0.84970  0.04620  0.29050  Biso   1.000  C
  C52      1.0000 0.97290  0.13170  0.21380  Biso   1.000  C
  C53      1.0000 0.95240  0.54340  0.29840  Biso   1.000  C
  C54      1.0000 0.99920  0.21660  0.18380  Biso   1.000  C
  C55      1.0000 0.93860  0.30010  0.19620  Biso   1.000  C
  C56      1.0000 0.67520  0.62650  0.29540  Biso   1.000  C
  C57      1.0000 0.60950  0.70920  0.30250  Biso   1.000  C
  C58      1.0000 0.66280  0.79840  0.32800  Biso   1.000  C
  C59      1.0000 0.50090  0.70480  0.28440  Biso   1.000  C
  C60      1.0000 0.57850  0.28930  0.20530  Biso   1.000  C
  C61      1.0000 0.46430  0.61870  0.25860  Biso   1.000  C
  C62      1.0000 0.53330  0.54200  0.25280  Biso   1.000  C
  C63      1.0000 0.58370  0.05070  0.42880  Biso   1.000  C
  C64      1.0000 0.58210  0.88590  0.46810  Biso   1.000  C
  C65      1.0000 0.55310  0.50000  0.00000  Biso   1.000  C
  C66      1.0000 0.27760  0.50000  0.00000  Biso   1.000  C
  C67      1.0000 0.44690  0.00000  0.50000  Biso   1.000  C
  C68      1.0000 0.72240  0.00000  0.50000  Biso   1.000  C
  N1       1.0000 0.36080  0.04410  0.22800  Biso   1.000  N
  N2       1.0000 0.14610  0.80160  0.26550  Biso   1.000  N
  N3       1.0000 0.34430  0.47020  0.05320  Biso   1.000  N
  N4       1.0000 0.48660  0.58340  0.01840  Biso   1.000  N
  N5       1.0000 0.36080  0.95590  0.77200  Biso   1.000  N
  N6       1.0000 0.14610  0.19840  0.73450  Biso   1.000  N
  N7       1.0000 0.34430  0.52980  0.94680  Biso   1.000  N
  N8       1.0000 0.48660  0.41660  0.98160  Biso   1.000  N
  N9       1.0000 0.63920  0.45590  0.72800  Biso   1.000  N
  N10      1.0000 0.85390  0.69840  0.76550  Biso   1.000  N
  N11      1.0000 0.65570  0.02980  0.55320  Biso   1.000  N
  N12      1.0000 0.51340  0.91660  0.51840  Biso   1.000  N
  N13      1.0000 0.63920  0.54410  0.27200  Biso   1.000  N
  N14      1.0000 0.85390  0.30160  0.23450  Biso   1.000  N
  N15      1.0000 0.65570  0.97020  0.44680  Biso   1.000  N
  N16      1.0000 0.51340  0.08340  0.48160  Biso   1.000  N
  O1       1.0000 0.21210  0.56350  0.16240  Biso   1.000  O
  O2       1.0000 0.12190  0.46420  0.22400  Biso   1.000  O
  O3       1.0000 0.11260  0.02180  0.24420  Biso   1.000  O
  O4       1.0000 0.03910  0.00640  0.15000  Biso   1.000  O
  O5       1.0000 0.25440  0.28840  0.13690  Biso   1.000  O
  O6       1.0000 0.37190  0.37990  0.18690  Biso   1.000  O
  O7       1.0000 0.38300  0.82800  0.24661  Biso   1.000  O
  O8       1.0000 0.40010  0.80930  0.34890  Biso   1.000  O
  O9       1.0000 0.26160  0.95800  0.34147  Biso   1.000  O
  O10      1.0000 0.22420  0.90330  0.14724  Biso   1.000  O
  O11      1.0000 0.08930  0.42730  0.07900  Biso   1.000  O
  O12      1.0000 0.21210  0.43650  0.83760  Biso   1.000  O
  O13      1.0000 0.12190  0.53580  0.77600  Biso   1.000  O
  O14      1.0000 0.11260  0.97820  0.75580  Biso   1.000  O
  O15      1.0000 0.03910  0.99360  0.85000  Biso   1.000  O
  O16      1.0000 0.25440  0.71160  0.86310  Biso   1.000  O
  O17      1.0000 0.37190  0.62010  0.81310  Biso   1.000  O
  O18      1.0000 0.38300  0.17200  0.75339  Biso   1.000  O
  O19      1.0000 0.40010  0.19070  0.65110  Biso   1.000  O
  O20      1.0000 0.26160  0.04200  0.65853  Biso   1.000  O
  O21      1.0000 0.22420  0.09670  0.85276  Biso   1.000  O
  O22      1.0000 0.08930  0.57270  0.92100  Biso   1.000  O
  O23      1.0000 0.78790  0.93650  0.66240  Biso   1.000  O
  O24      1.0000 0.87810  0.03580  0.72400  Biso   1.000  O
  O25      1.0000 0.88740  0.47820  0.74420  Biso   1.000  O
  O26      1.0000 0.96090  0.49360  0.65000  Biso   1.000  O
  O27      1.0000 0.74560  0.21160  0.63690  Biso   1.000  O
  O28      1.0000 0.62810  0.12010  0.68690  Biso   1.000  O
  O29      1.0000 0.61700  0.67200  0.74661  Biso   1.000  O
  O30      1.0000 0.59990  0.69070  0.84890  Biso   1.000  O
  O31      1.0000 0.73840  0.54200  0.84147  Biso   1.000  O
  O32      1.0000 0.77580  0.59670  0.64724  Biso   1.000  O
  O33      1.0000 0.91070  0.07270  0.57900  Biso   1.000  O
  O34      1.0000 0.78790  0.06350  0.33760  Biso   1.000  O
  O35      1.0000 0.87810  0.96420  0.27600  Biso   1.000  O
  O36      1.0000 0.88740  0.52180  0.25580  Biso   1.000  O
  O37      1.0000 0.96090  0.50640  0.35000  Biso   1.000  O
  O38      1.0000 0.74560  0.78840  0.36310  Biso   1.000  O
  O39      1.0000 0.62810  0.87990  0.31310  Biso   1.000  O
  O40      1.0000 0.61700  0.32800  0.25339  Biso   1.000  O
  O41      1.0000 0.59990  0.30930  0.15110  Biso   1.000  O
  O42      1.0000 0.73840  0.45800  0.15853  Biso   1.000  O
  O43      1.0000 0.77580  0.40330  0.35276  Biso   1.000  O
  O44      1.0000 0.91070  0.92730  0.42100  Biso   1.000  O
