data_image0
_cell_length_a       9.153
_cell_length_b       17.895
_cell_length_c       10.668
_cell_angle_alpha    90
_cell_angle_beta     96.395
_cell_angle_gamma    90

_symmetry_space_group_name_H-M    "P 1"
_symmetry_int_tables_number       1

loop_
  _symmetry_equiv_pos_as_xyz
  'x, y, z'

loop_
  _atom_site_label
  _atom_site_occupancy
  _atom_site_fract_x
  _atom_site_fract_y
  _atom_site_fract_z
  _atom_site_thermal_displace_type
  _atom_site_B_iso_or_equiv
  _atom_site_type_symbol
  Ag1      1.0000 0.63075  0.40979  0.97481  Biso   1.000  Ag
  Ag2      1.0000 0.95235  0.45099  0.82649  Biso   1.000  Ag
  N1       1.0000 0.64450  0.47560  0.15520  Biso   1.000  N
  N2       1.0000 0.55530  0.53720  0.17230  Biso   1.000  N
  N3       1.0000 0.71490  0.52430  0.33670  Biso   1.000  N
  N4       1.0000 0.78910  0.53380  0.45540  Biso   1.000  N
  N5       1.0000 0.93130  0.58090  0.61240  Biso   1.000  N
  N6       1.0000 0.88880  0.50860  0.64310  Biso   1.000  N
  N7       1.0000 0.82170  0.33780  0.76870  Biso   1.000  N
  N8       1.0000 0.69080  0.32670  0.82090  Biso   1.000  N
  N9       1.0000 0.72120  0.23540  0.69570  Biso   1.000  N
  N10      1.0000 0.69540  0.17060  0.62590  Biso   1.000  N
  N11      1.0000 0.59930  0.09350  0.48580  Biso   1.000  N
  N12      1.0000 0.69820  0.05420  0.57040  Biso   1.000  N
  C1       1.0000 0.73930  0.46880  0.25480  Biso   1.000  C
  H1       1.0000 0.81140  0.43210  0.26770  Biso   1.000  H
  C2       1.0000 0.59900  0.56490  0.28320  Biso   1.000  C
  H2       1.0000 0.55750  0.60580  0.31970  Biso   1.000  H
  C3       1.0000 0.87120  0.59400  0.49850  Biso   1.000  C
  H3       1.0000 0.88240  0.63770  0.45340  Biso   1.000  H
  C4       1.0000 0.80180  0.48250  0.54890  Biso   1.000  C
  H4       1.0000 0.75580  0.43610  0.54620  Biso   1.000  H
  C5       1.0000 0.83750  0.28150  0.69390  Biso   1.000  C
  H5       1.0000 0.91610  0.27430  0.64700  Biso   1.000  H
  C6       1.0000 0.63240  0.26470  0.77630  Biso   1.000  C
  H6       1.0000 0.54470  0.24410  0.79630  Biso   1.000  H
  C7       1.0000 0.59930  0.16270  0.52040  Biso   1.000  C
  H7       1.0000 0.54290  0.20070  0.47990  Biso   1.000  H
  C8       1.0000 0.75370  0.10220  0.65410  Biso   1.000  C
  H8       1.0000 0.82250  0.09130  0.72250  Biso   1.000  H
  Ag3      1.0000 0.86925  0.90979  0.52519  Biso   1.000  Ag
  Ag4      1.0000 0.54765  0.95099  0.67351  Biso   1.000  Ag
  N13      1.0000 0.85550  0.97560  0.34480  Biso   1.000  N
  N14      1.0000 0.94470  0.03720  0.32770  Biso   1.000  N
  N15      1.0000 0.78510  0.02430  0.16330  Biso   1.000  N
  N16      1.0000 0.71090  0.03380  0.04460  Biso   1.000  N
  N17      1.0000 0.56870  0.08090  0.88760  Biso   1.000  N
  N18      1.0000 0.61120  0.00860  0.85690  Biso   1.000  N
  N19      1.0000 0.67830  0.83780  0.73130  Biso   1.000  N
  N20      1.0000 0.80920  0.82670  0.67910  Biso   1.000  N
  N21      1.0000 0.77880  0.73540  0.80430  Biso   1.000  N
  N22      1.0000 0.80460  0.67060  0.87410  Biso   1.000  N
  N23      1.0000 0.90070  0.59350  0.01420  Biso   1.000  N
  N24      1.0000 0.80180  0.55420  0.92960  Biso   1.000  N
  C9       1.0000 0.76070  0.96880  0.24520  Biso   1.000  C
  H9       1.0000 0.68860  0.93210  0.23230  Biso   1.000  H
  C10      1.0000 0.90100  0.06490  0.21680  Biso   1.000  C
  H10      1.0000 0.94250  0.10580  0.18030  Biso   1.000  H
  C11      1.0000 0.62880  0.09400  0.00150  Biso   1.000  C
  H11      1.0000 0.61760  0.13770  0.04660  Biso   1.000  H
  C12      1.0000 0.69820  0.98250  0.95110  Biso   1.000  C
  H12      1.0000 0.74420  0.93610  0.95380  Biso   1.000  H
  C13      1.0000 0.66250  0.78150  0.80610  Biso   1.000  C
  H13      1.0000 0.58390  0.77430  0.85300  Biso   1.000  H
  C14      1.0000 0.86760  0.76470  0.72370  Biso   1.000  C
  H14      1.0000 0.95530  0.74410  0.70370  Biso   1.000  H
  C15      1.0000 0.90070  0.66270  0.97960  Biso   1.000  C
  H15      1.0000 0.95710  0.70070  0.02010  Biso   1.000  H
  C16      1.0000 0.74630  0.60220  0.84590  Biso   1.000  C
  H16      1.0000 0.67750  0.59130  0.77750  Biso   1.000  H
  Ag5      1.0000 0.36925  0.59021  0.02519  Biso   1.000  Ag
  Ag6      1.0000 0.04765  0.54901  0.17351  Biso   1.000  Ag
  N25      1.0000 0.35550  0.52440  0.84480  Biso   1.000  N
  N26      1.0000 0.44470  0.46280  0.82770  Biso   1.000  N
  N27      1.0000 0.28510  0.47570  0.66330  Biso   1.000  N
  N28      1.0000 0.21090  0.46620  0.54460  Biso   1.000  N
  N29      1.0000 0.06870  0.41910  0.38760  Biso   1.000  N
  N30      1.0000 0.11120  0.49140  0.35690  Biso   1.000  N
  N31      1.0000 0.17830  0.66220  0.23130  Biso   1.000  N
  N32      1.0000 0.30920  0.67330  0.17910  Biso   1.000  N
  N33      1.0000 0.27880  0.76460  0.30430  Biso   1.000  N
  N34      1.0000 0.30460  0.82940  0.37410  Biso   1.000  N
  N35      1.0000 0.40070  0.90650  0.51420  Biso   1.000  N
  N36      1.0000 0.30180  0.94580  0.42960  Biso   1.000  N
  C17      1.0000 0.26070  0.53120  0.74520  Biso   1.000  C
  H17      1.0000 0.18860  0.56790  0.73230  Biso   1.000  H
  C18      1.0000 0.40100  0.43510  0.71680  Biso   1.000  C
  H18      1.0000 0.44250  0.39420  0.68030  Biso   1.000  H
  C19      1.0000 0.12880  0.40600  0.50150  Biso   1.000  C
  H19      1.0000 0.11760  0.36230  0.54660  Biso   1.000  H
  C20      1.0000 0.19820  0.51750  0.45110  Biso   1.000  C
  H20      1.0000 0.24420  0.56390  0.45380  Biso   1.000  H
  C21      1.0000 0.16250  0.71850  0.30610  Biso   1.000  C
  H21      1.0000 0.08390  0.72570  0.35300  Biso   1.000  H
  C22      1.0000 0.36760  0.73530  0.22370  Biso   1.000  C
  H22      1.0000 0.45530  0.75590  0.20370  Biso   1.000  H
  C23      1.0000 0.40070  0.83730  0.47960  Biso   1.000  C
  H23      1.0000 0.45710  0.79930  0.52010  Biso   1.000  H
  C24      1.0000 0.24630  0.89780  0.34590  Biso   1.000  C
  H24      1.0000 0.17750  0.90870  0.27750  Biso   1.000  H
  Ag7      1.0000 0.13075  0.09021  0.47481  Biso   1.000  Ag
  Ag8      1.0000 0.45235  0.04901  0.32649  Biso   1.000  Ag
  N37      1.0000 0.14450  0.02440  0.65520  Biso   1.000  N
  N38      1.0000 0.05530  0.96280  0.67230  Biso   1.000  N
  N39      1.0000 0.21490  0.97570  0.83670  Biso   1.000  N
  N40      1.0000 0.28910  0.96620  0.95540  Biso   1.000  N
  N41      1.0000 0.43130  0.91910  0.11240  Biso   1.000  N
  N42      1.0000 0.38880  0.99140  0.14310  Biso   1.000  N
  N43      1.0000 0.32170  0.16220  0.26870  Biso   1.000  N
  N44      1.0000 0.19080  0.17330  0.32090  Biso   1.000  N
  N45      1.0000 0.22120  0.26460  0.19570  Biso   1.000  N
  N46      1.0000 0.19540  0.32940  0.12590  Biso   1.000  N
  N47      1.0000 0.09930  0.40650  0.98580  Biso   1.000  N
  N48      1.0000 0.19820  0.44580  0.07040  Biso   1.000  N
  C25      1.0000 0.23930  0.03120  0.75480  Biso   1.000  C
  H25      1.0000 0.31140  0.06790  0.76770  Biso   1.000  H
  C26      1.0000 0.09900  0.93510  0.78320  Biso   1.000  C
  H26      1.0000 0.05750  0.89420  0.81970  Biso   1.000  H
  C27      1.0000 0.37120  0.90600  0.99850  Biso   1.000  C
  H27      1.0000 0.38240  0.86230  0.95340  Biso   1.000  H
  C28      1.0000 0.30180  0.01750  0.04890  Biso   1.000  C
  H28      1.0000 0.25580  0.06390  0.04620  Biso   1.000  H
  C29      1.0000 0.33750  0.21850  0.19390  Biso   1.000  C
  H29      1.0000 0.41610  0.22570  0.14700  Biso   1.000  H
  C30      1.0000 0.13240  0.23530  0.27630  Biso   1.000  C
  H30      1.0000 0.04470  0.25590  0.29630  Biso   1.000  H
  C31      1.0000 0.09930  0.33730  0.02040  Biso   1.000  C
  H31      1.0000 0.04290  0.29930  0.97990  Biso   1.000  H
  C32      1.0000 0.25370  0.39780  0.15410  Biso   1.000  C
  H32      1.0000 0.32250  0.40870  0.22250  Biso   1.000  H
