data_image0
_cell_length_a       9.32336
_cell_length_b       18.823
_cell_length_c       18.823
_cell_angle_alpha    62.6703
_cell_angle_beta     80.4966
_cell_angle_gamma    99.5034

_symmetry_space_group_name_H-M    P 1
_symmetry_int_tables_number       1

loop_
  _symmetry_equiv_pos_as_xyz
  'x, y, z'

loop_
  _atom_site_label
  _atom_site_occupancy
  _atom_site_fract_x
  _atom_site_fract_y
  _atom_site_fract_z
  _atom_site_thermal_displace_type
  _atom_site_B_iso_or_equiv
  _atom_site_type_symbol
  Sn1      1.0000 0.88542  0.49437  0.44323  Biso   1.000  Sn
  Sn2      1.0000 0.57114  0.00209  0.66504  Biso   1.000  Sn
  Sn3      1.0000 0.32865  0.44323  0.06240  Biso   1.000  Sn
  Sn4      1.0000 0.23618  0.66504  0.33287  Biso   1.000  Sn
  Sn5      1.0000 0.39105  0.06240  0.49437  Biso   1.000  Sn
  Sn6      1.0000 0.56905  0.33287  0.00209  Biso   1.000  Sn
  Sn7      1.0000 0.11458  0.50563  0.55677  Biso   1.000  Sn
  Sn8      1.0000 0.42886  0.99791  0.33496  Biso   1.000  Sn
  Sn9      1.0000 0.67135  0.55677  0.93760  Biso   1.000  Sn
  Sn10     1.0000 0.76382  0.33496  0.66713  Biso   1.000  Sn
  Sn11     1.0000 0.60895  0.93760  0.50563  Biso   1.000  Sn
  Sn12     1.0000 0.43095  0.66713  0.99791  Biso   1.000  Sn
  H1       1.0000 0.39640  0.21920  0.69330  Biso   1.000  H
  H2       1.0000 0.25310  0.14620  0.71450  Biso   1.000  H
  H3       1.0000 0.11930  0.15960  0.62050  Biso   1.000  H
  H4       1.0000 0.06910  0.23320  0.49400  Biso   1.000  H
  H5       1.0000 0.24970  0.35320  0.38540  Biso   1.000  H
  H6       1.0000 0.47650  0.39930  0.40750  Biso   1.000  H
  H7       1.0000 0.86100  0.05560  0.59660  Biso   1.000  H
  H8       1.0000 0.82980  0.06030  0.68020  Biso   1.000  H
  H9       1.0000 0.80440  0.13090  0.59780  Biso   1.000  H
  H10      1.0000 0.30650  0.94980  0.76950  Biso   1.000  H
  H11      1.0000 0.41200  0.89680  0.81700  Biso   1.000  H
  H12      1.0000 0.33640  0.87460  0.75670  Biso   1.000  H
  H13      1.0000 0.05900  0.44920  0.35810  Biso   1.000  H
  H14      1.0000 0.94650  0.36690  0.43750  Biso   1.000  H
  H15      1.0000 0.88870  0.41780  0.35820  Biso   1.000  H
  H16      1.0000 0.68170  0.57500  0.43320  Biso   1.000  H
  H17      1.0000 0.83530  0.63170  0.42840  Biso   1.000  H
  H18      1.0000 0.81400  0.62750  0.34770  Biso   1.000  H
  H19      1.0000 0.08970  0.69330  0.08750  Biso   1.000  H
  H20      1.0000 0.96760  0.71450  0.13930  Biso   1.000  H
  H21      1.0000 0.73980  0.62050  0.21990  Biso   1.000  H
  H22      1.0000 0.56310  0.49400  0.27280  Biso   1.000  H
  H23      1.0000 0.63510  0.38540  0.26140  Biso   1.000  H
  H24      1.0000 0.88400  0.40750  0.19320  Biso   1.000  H
  H25      1.0000 0.45760  0.59660  0.34780  Biso   1.000  H
  H26      1.0000 0.51000  0.68020  0.25950  Biso   1.000  H
  H27      1.0000 0.40220  0.59780  0.27130  Biso   1.000  H
  H28      1.0000 0.07600  0.76950  0.28070  Biso   1.000  H
  H29      1.0000 0.22900  0.81700  0.28620  Biso   1.000  H
  H30      1.0000 0.09310  0.75670  0.36870  Biso   1.000  H
  H31      1.0000 0.41710  0.35810  0.19270  Biso   1.000  H
  H32      1.0000 0.38400  0.43750  0.19560  Biso   1.000  H
  H33      1.0000 0.24690  0.35820  0.22400  Biso   1.000  H
  H34      1.0000 0.11490  0.43320  0.99180  Biso   1.000  H
  H35      1.0000 0.26370  0.42840  0.93990  Biso   1.000  H
  H36      1.0000 0.16170  0.34770  0.02480  Biso   1.000  H
  H37      1.0000 0.17720  0.08750  0.21920  Biso   1.000  H
  H38      1.0000 0.10690  0.13930  0.14620  Biso   1.000  H
  H39      1.0000 0.95970  0.21990  0.15960  Biso   1.000  H
  H40      1.0000 0.83590  0.27280  0.23320  Biso   1.000  H
  H41      1.0000 0.89650  0.26140  0.35320  Biso   1.000  H
  H42      1.0000 0.07720  0.19320  0.39930  Biso   1.000  H
  H43      1.0000 0.80540  0.34780  0.05560  Biso   1.000  H
  H44      1.0000 0.76950  0.25950  0.06030  Biso   1.000  H
  H45      1.0000 0.67350  0.27130  0.13090  Biso   1.000  H
  H46      1.0000 0.35670  0.28070  0.94980  Biso   1.000  H
  H47      1.0000 0.51520  0.28620  0.89680  Biso   1.000  H
  H48      1.0000 0.46180  0.36870  0.87460  Biso   1.000  H
  H49      1.0000 0.60980  0.19270  0.44920  Biso   1.000  H
  H50      1.0000 0.57960  0.19560  0.36690  Biso   1.000  H
  H51      1.0000 0.47090  0.22400  0.41780  Biso   1.000  H
  H52      1.0000 0.10670  0.99180  0.57500  Biso   1.000  H
  H53      1.0000 0.20360  0.93990  0.63170  Biso   1.000  H
  H54      1.0000 0.18650  0.02480  0.62750  Biso   1.000  H
  H55      1.0000 0.60360  0.78080  0.30670  Biso   1.000  H
  H56      1.0000 0.74690  0.85380  0.28550  Biso   1.000  H
  H57      1.0000 0.88070  0.84040  0.37950  Biso   1.000  H
  H58      1.0000 0.93090  0.76680  0.50600  Biso   1.000  H
  H59      1.0000 0.75030  0.64680  0.61460  Biso   1.000  H
  H60      1.0000 0.52350  0.60070  0.59250  Biso   1.000  H
  H61      1.0000 0.13900  0.94440  0.40340  Biso   1.000  H
  H62      1.0000 0.17020  0.93970  0.31980  Biso   1.000  H
  H63      1.0000 0.19560  0.86910  0.40220  Biso   1.000  H
  H64      1.0000 0.69350  0.05020  0.23050  Biso   1.000  H
  H65      1.0000 0.58800  0.10320  0.18300  Biso   1.000  H
  H66      1.0000 0.66360  0.12540  0.24330  Biso   1.000  H
  H67      1.0000 0.94100  0.55080  0.64190  Biso   1.000  H
  H68      1.0000 0.05350  0.63310  0.56250  Biso   1.000  H
  H69      1.0000 0.11130  0.58220  0.64180  Biso   1.000  H
  H70      1.0000 0.31830  0.42500  0.56680  Biso   1.000  H
  H71      1.0000 0.16470  0.36830  0.57160  Biso   1.000  H
  H72      1.0000 0.18600  0.37250  0.65230  Biso   1.000  H
  H73      1.0000 0.91030  0.30670  0.91250  Biso   1.000  H
  H74      1.0000 0.03240  0.28550  0.86070  Biso   1.000  H
  H75      1.0000 0.26020  0.37950  0.78010  Biso   1.000  H
  H76      1.0000 0.43690  0.50600  0.72720  Biso   1.000  H
  H77      1.0000 0.36490  0.61460  0.73860  Biso   1.000  H
  H78      1.0000 0.11600  0.59250  0.80680  Biso   1.000  H
  H79      1.0000 0.54240  0.40340  0.65220  Biso   1.000  H
  H80      1.0000 0.49000  0.31980  0.74050  Biso   1.000  H
  H81      1.0000 0.59780  0.40220  0.72870  Biso   1.000  H
  H82      1.0000 0.92400  0.23050  0.71930  Biso   1.000  H
  H83      1.0000 0.77100  0.18300  0.71380  Biso   1.000  H
  H84      1.0000 0.90690  0.24330  0.63130  Biso   1.000  H
  H85      1.0000 0.58290  0.64190  0.80730  Biso   1.000  H
  H86      1.0000 0.61600  0.56250  0.80440  Biso   1.000  H
  H87      1.0000 0.75310  0.64180  0.77600  Biso   1.000  H
  H88      1.0000 0.88510  0.56680  0.00820  Biso   1.000  H
  H89      1.0000 0.73630  0.57160  0.06010  Biso   1.000  H
  H90      1.0000 0.83830  0.65230  0.97520  Biso   1.000  H
  H91      1.0000 0.82280  0.91250  0.78080  Biso   1.000  H
  H92      1.0000 0.89310  0.86070  0.85380  Biso   1.000  H
  H93      1.0000 0.04030  0.78010  0.84040  Biso   1.000  H
  H94      1.0000 0.16410  0.72720  0.76680  Biso   1.000  H
  H95      1.0000 0.10350  0.73860  0.64680  Biso   1.000  H
  H96      1.0000 0.92280  0.80680  0.60070  Biso   1.000  H
  H97      1.0000 0.19460  0.65220  0.94440  Biso   1.000  H
  H98      1.0000 0.23050  0.74050  0.93970  Biso   1.000  H
  H99      1.0000 0.32650  0.72870  0.86910  Biso   1.000  H
  H100     1.0000 0.64330  0.71930  0.05020  Biso   1.000  H
  H101     1.0000 0.48480  0.71380  0.10320  Biso   1.000  H
  H102     1.0000 0.53820  0.63130  0.12540  Biso   1.000  H
  H103     1.0000 0.39020  0.80730  0.55080  Biso   1.000  H
  H104     1.0000 0.42040  0.80440  0.63310  Biso   1.000  H
  H105     1.0000 0.52910  0.77600  0.58220  Biso   1.000  H
  H106     1.0000 0.89330  0.00820  0.42500  Biso   1.000  H
  H107     1.0000 0.79640  0.06010  0.36830  Biso   1.000  H
  H108     1.0000 0.81350  0.97520  0.37250  Biso   1.000  H
  C1       1.0000 0.45454  0.12583  0.67781  Biso   1.000  C
  C2       1.0000 0.35317  0.18124  0.67463  Biso   1.000  C
  C3       1.0000 0.33055  0.23256  0.59041  Biso   1.000  C
  C4       1.0000 0.19386  0.20797  0.57689  Biso   1.000  C
  C5       1.0000 0.16328  0.25196  0.50172  Biso   1.000  C
  C6       1.0000 0.26938  0.32317  0.43763  Biso   1.000  C
  C7       1.0000 0.40433  0.34975  0.45086  Biso   1.000  C
  C8       1.0000 0.43710  0.30587  0.52587  Biso   1.000  C
  C9       1.0000 0.58482  0.34138  0.53492  Biso   1.000  C
  C10      1.0000 0.79666  0.07148  0.63030  Biso   1.000  C
  C11      1.0000 0.38118  0.91989  0.76545  Biso   1.000  C
  C12      1.0000 0.95404  0.42249  0.39247  Biso   1.000  C
  C13      1.0000 0.79163  0.59568  0.40849  Biso   1.000  C
  C14      1.0000 0.13235  0.67781  0.19636  Biso   1.000  C
  C15      1.0000 0.02780  0.67463  0.14413  Biso   1.000  C
  C16      1.0000 0.92096  0.59041  0.17703  Biso   1.000  C
  C17      1.0000 0.77075  0.57689  0.21514  Biso   1.000  C
  C18      1.0000 0.66500  0.50172  0.24632  Biso   1.000  C
  C19      1.0000 0.70701  0.43763  0.23920  Biso   1.000  C
  C20      1.0000 0.85519  0.45086  0.19939  Biso   1.000  C
  C21      1.0000 0.96297  0.52587  0.16826  Biso   1.000  C
  C22      1.0000 0.11974  0.53492  0.12370  Biso   1.000  C
  C23      1.0000 0.42696  0.63030  0.29822  Biso   1.000  C
  C24      1.0000 0.14663  0.76545  0.31466  Biso   1.000  C
  C25      1.0000 0.34651  0.39247  0.18504  Biso   1.000  C
  C26      1.0000 0.20012  0.40849  0.99583  Biso   1.000  C
  C27      1.0000 0.32871  0.19636  0.12583  Biso   1.000  C
  C28      1.0000 0.17193  0.14413  0.18124  Biso   1.000  C
  C29      1.0000 0.09799  0.17703  0.23256  Biso   1.000  C
  C30      1.0000 0.98589  0.21514  0.20797  Biso   1.000  C
  C31      1.0000 0.91132  0.24632  0.25196  Biso   1.000  C
  C32      1.0000 0.94621  0.23920  0.32317  Biso   1.000  C
  C33      1.0000 0.05458  0.19939  0.34975  Biso   1.000  C
  C34      1.0000 0.13123  0.16826  0.30587  Biso   1.000  C
  C35      1.0000 0.24344  0.12370  0.34138  Biso   1.000  C
  C36      1.0000 0.72518  0.29822  0.07148  Biso   1.000  C
  C37      1.0000 0.46129  0.31466  0.91989  Biso   1.000  C
  C38      1.0000 0.53155  0.18504  0.42249  Biso   1.000  C
  C39      1.0000 0.19595  0.99583  0.59568  Biso   1.000  C
  C40      1.0000 0.54546  0.87417  0.32219  Biso   1.000  C
  C41      1.0000 0.64683  0.81876  0.32537  Biso   1.000  C
  C42      1.0000 0.66945  0.76744  0.40959  Biso   1.000  C
  C43      1.0000 0.80614  0.79203  0.42311  Biso   1.000  C
  C44      1.0000 0.83672  0.74804  0.49828  Biso   1.000  C
  C45      1.0000 0.73062  0.67683  0.56237  Biso   1.000  C
  C46      1.0000 0.59567  0.65025  0.54914  Biso   1.000  C
  C47      1.0000 0.56290  0.69413  0.47413  Biso   1.000  C
  C48      1.0000 0.41518  0.65862  0.46508  Biso   1.000  C
  C49      1.0000 0.20334  0.92852  0.36970  Biso   1.000  C
  C50      1.0000 0.61882  0.08011  0.23455  Biso   1.000  C
  C51      1.0000 0.04596  0.57751  0.60753  Biso   1.000  C
  C52      1.0000 0.20837  0.40432  0.59151  Biso   1.000  C
  C53      1.0000 0.86765  0.32219  0.80364  Biso   1.000  C
  C54      1.0000 0.97220  0.32537  0.85587  Biso   1.000  C
  C55      1.0000 0.07904  0.40959  0.82297  Biso   1.000  C
  C56      1.0000 0.22925  0.42311  0.78486  Biso   1.000  C
  C57      1.0000 0.33500  0.49828  0.75368  Biso   1.000  C
  C58      1.0000 0.29299  0.56237  0.76080  Biso   1.000  C
  C59      1.0000 0.14481  0.54914  0.80061  Biso   1.000  C
  C60      1.0000 0.03703  0.47413  0.83174  Biso   1.000  C
  C61      1.0000 0.88026  0.46508  0.87630  Biso   1.000  C
  C62      1.0000 0.57304  0.36970  0.70178  Biso   1.000  C
  C63      1.0000 0.85337  0.23455  0.68534  Biso   1.000  C
  C64      1.0000 0.65349  0.60753  0.81496  Biso   1.000  C
  C65      1.0000 0.79988  0.59151  0.00417  Biso   1.000  C
  C66      1.0000 0.67129  0.80364  0.87417  Biso   1.000  C
  C67      1.0000 0.82807  0.85587  0.81876  Biso   1.000  C
  C68      1.0000 0.90201  0.82297  0.76744  Biso   1.000  C
  C69      1.0000 0.01411  0.78486  0.79203  Biso   1.000  C
  C70      1.0000 0.08868  0.75368  0.74804  Biso   1.000  C
  C71      1.0000 0.05379  0.76080  0.67683  Biso   1.000  C
  C72      1.0000 0.94542  0.80061  0.65025  Biso   1.000  C
  C73      1.0000 0.86877  0.83174  0.69413  Biso   1.000  C
  C74      1.0000 0.75656  0.87630  0.65862  Biso   1.000  C
  C75      1.0000 0.27482  0.70178  0.92852  Biso   1.000  C
  C76      1.0000 0.53871  0.68534  0.08011  Biso   1.000  C
  C77      1.0000 0.46845  0.81496  0.57751  Biso   1.000  C
  C78      1.0000 0.80405  0.00417  0.40432  Biso   1.000  C
  O1       1.0000 0.47034  0.10503  0.62131  Biso   1.000  O
  O2       1.0000 0.51293  0.09774  0.73585  Biso   1.000  O
  O3       1.0000 0.63969  0.29515  0.58988  Biso   1.000  O
  O4       1.0000 0.64538  0.41832  0.48568  Biso   1.000  O
  O5       1.0000 0.89592  0.43979  0.56313  Biso   1.000  O
  O6       1.0000 0.09165  0.62131  0.27366  Biso   1.000  O
  O7       1.0000 0.24878  0.73585  0.16641  Biso   1.000  O
  O8       1.0000 0.22957  0.58988  0.11497  Biso   1.000  O
  O9       1.0000 0.13106  0.48568  0.09600  Biso   1.000  O
  O10      1.0000 0.45905  0.56313  0.99708  Biso   1.000  O
  O11      1.0000 0.36531  0.27366  0.10503  Biso   1.000  O
  O12      1.0000 0.41519  0.16641  0.09774  Biso   1.000  O
  O13      1.0000 0.34454  0.11497  0.29515  Biso   1.000  O
  O14      1.0000 0.22706  0.09600  0.41832  Biso   1.000  O
  O15      1.0000 0.45613  0.99708  0.43979  Biso   1.000  O
  O16      1.0000 0.52966  0.89497  0.37869  Biso   1.000  O
  O17      1.0000 0.48707  0.90226  0.26415  Biso   1.000  O
  O18      1.0000 0.36031  0.70485  0.41012  Biso   1.000  O
  O19      1.0000 0.35462  0.58168  0.51432  Biso   1.000  O
  O20      1.0000 0.10408  0.56021  0.43687  Biso   1.000  O
  O21      1.0000 0.90835  0.37869  0.72634  Biso   1.000  O
  O22      1.0000 0.75122  0.26415  0.83359  Biso   1.000  O
  O23      1.0000 0.77043  0.41012  0.88503  Biso   1.000  O
  O24      1.0000 0.86894  0.51432  0.90400  Biso   1.000  O
  O25      1.0000 0.54095  0.43687  0.00292  Biso   1.000  O
  O26      1.0000 0.63469  0.72634  0.89497  Biso   1.000  O
  O27      1.0000 0.58481  0.83359  0.90226  Biso   1.000  O
  O28      1.0000 0.65546  0.88503  0.70485  Biso   1.000  O
  O29      1.0000 0.77294  0.90400  0.58168  Biso   1.000  O
  O30      1.0000 0.54387  0.00292  0.56021  Biso   1.000  O
