data_HOXJIO_charged
_audit_creation_date              2014-07-02
_audit_creation_method            'Materials Studio'
_symmetry_space_group_name_H-M    'P1'
_symmetry_Int_Tables_number       1
_symmetry_cell_setting            triclinic
loop_
_symmetry_equiv_pos_as_xyz
  x,y,z
_cell_length_a                    13.0479
_cell_length_b                    19.1477
_cell_length_c                    19.9355
_cell_angle_alpha                 73.2160
_cell_angle_beta                  84.3200
_cell_angle_gamma                 73.0120
loop_
_atom_site_label
_atom_site_type_symbol
_atom_site_fract_x
_atom_site_fract_y
_atom_site_fract_z
_atom_site_U_iso_or_equiv
_atom_site_adp_type
_atom_site_occupancy
Ag1    Ag    0.69637   0.51426   0.78954   0.01267  Uiso   1.00
Ag2    Ag    0.72661   0.17215   0.47953   0.01267  Uiso   1.00
Ag3    Ag    0.98057   0.01942   0.52387   0.01267  Uiso   1.00
Ag4    Ag    0.30363   0.48574   0.21046   0.01267  Uiso   1.00
Ag5    Ag    0.27339   0.82785   0.52047   0.01267  Uiso   1.00
Ag6    Ag    0.01943   0.98058   0.47613   0.01267  Uiso   1.00
H1     H     0.54830   0.80310   0.12320   0.01267  Uiso   1.00
H2     H     0.56130   0.85840   0.19520   0.01267  Uiso   1.00
H3     H     0.70390   0.06350   0.12300   0.01267  Uiso   1.00
H4     H     0.70600   0.11900   0.02000   0.01267  Uiso   1.00
H5     H     0.66760   0.99680   0.85820   0.01267  Uiso   1.00
H6     H     0.63340   0.89920   0.89010   0.01267  Uiso   1.00
H7     H     0.70360   0.66870   0.96300   0.01267  Uiso   1.00
H8     H     0.75090   0.60630   0.87550   0.01267  Uiso   1.00
H9     H     0.57350   0.79280   0.73750   0.01267  Uiso   1.00
H10    H     0.52830   0.85520   0.82630   0.01267  Uiso   1.00
H11    H     0.60300   0.74740   0.65440   0.01267  Uiso   1.00
H12    H     0.64680   0.67690   0.62170   0.01267  Uiso   1.00
H13    H     0.55210   0.67730   0.67920   0.01267  Uiso   1.00
H14    H     0.42160   0.73930   0.97220   0.01267  Uiso   1.00
H15    H     0.37800   0.62430   0.00380   0.01267  Uiso   1.00
H16    H     0.56560   0.54910   0.17300   0.01267  Uiso   1.00
H17    H     0.61680   0.66190   0.13900   0.01267  Uiso   1.00
H18    H     0.55970   0.41680   0.19540   0.01267  Uiso   1.00
H19    H     0.54840   0.36490   0.14800   0.01267  Uiso   1.00
H20    H     0.61850   0.42380   0.12040   0.01267  Uiso   1.00
H21    H     0.63700   0.78920   0.31310   0.01267  Uiso   1.00
H22    H     0.58450   0.74610   0.42690   0.01267  Uiso   1.00
H23    H     0.45560   0.96360   0.43400   0.01267  Uiso   1.00
H24    H     0.51640   0.00410   0.32140   0.01267  Uiso   1.00
H25    H     0.41200   0.93520   0.54800   0.01267  Uiso   1.00
H26    H     0.44660   0.87130   0.62020   0.01267  Uiso   1.00
H27    H     0.53630   0.89670   0.56560   0.01267  Uiso   1.00
H28    H     0.78570   0.91250   0.31890   0.01267  Uiso   1.00
H29    H     0.87110   0.95430   0.39200   0.01267  Uiso   1.00
H30    H     0.72900   0.17240   0.28800   0.01267  Uiso   1.00
H31    H     0.65120   0.13040   0.21120   0.01267  Uiso   1.00
H32    H     0.87430   0.20540   0.31250   0.01267  Uiso   1.00
H33    H     0.96540   0.18800   0.36790   0.01267  Uiso   1.00
H34    H     0.98270   0.13900   0.31280   0.01267  Uiso   1.00
H35    H     0.86210   0.16740   0.97210   0.01267  Uiso   1.00
H36    H     0.91950   0.27760   0.93200   0.01267  Uiso   1.00
H37    H     0.70430   0.36000   0.77760   0.01267  Uiso   1.00
H38    H     0.64990   0.24900   0.81410   0.01267  Uiso   1.00
H39    H     0.88030   0.40570   0.70560   0.01267  Uiso   1.00
H40    H     0.97200   0.43810   0.72240   0.01267  Uiso   1.00
H41    H     0.98390   0.34890   0.74800   0.01267  Uiso   1.00
H42    H     0.89190   0.12190   0.80930   0.01267  Uiso   1.00
H43    H     0.95130   0.14390   0.69460   0.01267  Uiso   1.00
H44    H     0.68080   0.11480   0.63660   0.01267  Uiso   1.00
H45    H     0.62170   0.09270   0.75290   0.01267  Uiso   1.00
H46    H     0.98540   0.19730   0.58750   0.01267  Uiso   1.00
H47    H     0.96940   0.21440   0.50510   0.01267  Uiso   1.00
H48    H     0.87920   0.25770   0.55100   0.01267  Uiso   1.00
H49    H     0.64800   0.47600   0.67400   0.01267  Uiso   1.00
H50    H     0.54600   0.50500   0.67600   0.01267  Uiso   1.00
H51    H     0.45170   0.19690   0.87680   0.01267  Uiso   1.00
H52    H     0.43870   0.14160   0.80480   0.01267  Uiso   1.00
H53    H     0.29610   0.93650   0.87700   0.01267  Uiso   1.00
H54    H     0.29400   0.88100   0.98000   0.01267  Uiso   1.00
H55    H     0.33240   0.00320   0.14180   0.01267  Uiso   1.00
H56    H     0.36660   0.10080   0.10990   0.01267  Uiso   1.00
H57    H     0.29640   0.33130   0.03700   0.01267  Uiso   1.00
H58    H     0.24910   0.39370   0.12450   0.01267  Uiso   1.00
H59    H     0.42650   0.20720   0.26250   0.01267  Uiso   1.00
H60    H     0.47170   0.14480   0.17370   0.01267  Uiso   1.00
H61    H     0.39700   0.25260   0.34560   0.01267  Uiso   1.00
H62    H     0.35320   0.32310   0.37830   0.01267  Uiso   1.00
H63    H     0.44790   0.32270   0.32080   0.01267  Uiso   1.00
H64    H     0.57840   0.26070   0.02780   0.01267  Uiso   1.00
H65    H     0.62200   0.37570   0.99620   0.01267  Uiso   1.00
H66    H     0.43440   0.45090   0.82700   0.01267  Uiso   1.00
H67    H     0.38320   0.33810   0.86100   0.01267  Uiso   1.00
H68    H     0.44030   0.58320   0.80460   0.01267  Uiso   1.00
H69    H     0.45160   0.63510   0.85200   0.01267  Uiso   1.00
H70    H     0.38150   0.57620   0.87960   0.01267  Uiso   1.00
H71    H     0.36300   0.21080   0.68690   0.01267  Uiso   1.00
H72    H     0.41550   0.25390   0.57310   0.01267  Uiso   1.00
H73    H     0.54440   0.03640   0.56600   0.01267  Uiso   1.00
H74    H     0.48360   0.99590   0.67860   0.01267  Uiso   1.00
H75    H     0.58800   0.06480   0.45200   0.01267  Uiso   1.00
H76    H     0.55340   0.12870   0.37980   0.01267  Uiso   1.00
H77    H     0.46370   0.10330   0.43440   0.01267  Uiso   1.00
H78    H     0.21430   0.08750   0.68110   0.01267  Uiso   1.00
H79    H     0.12890   0.04570   0.60800   0.01267  Uiso   1.00
H80    H     0.27100   0.82760   0.71200   0.01267  Uiso   1.00
H81    H     0.34880   0.86960   0.78880   0.01267  Uiso   1.00
H82    H     0.12570   0.79460   0.68750   0.01267  Uiso   1.00
H83    H     0.03460   0.81200   0.63210   0.01267  Uiso   1.00
H84    H     0.01730   0.86100   0.68720   0.01267  Uiso   1.00
H85    H     0.13790   0.83260   0.02790   0.01267  Uiso   1.00
H86    H     0.08050   0.72240   0.06800   0.01267  Uiso   1.00
H87    H     0.29570   0.64000   0.22240   0.01267  Uiso   1.00
H88    H     0.35010   0.75100   0.18590   0.01267  Uiso   1.00
H89    H     0.11970   0.59430   0.29440   0.01267  Uiso   1.00
H90    H     0.02800   0.56190   0.27760   0.01267  Uiso   1.00
H91    H     0.01610   0.65110   0.25200   0.01267  Uiso   1.00
H92    H     0.10810   0.87810   0.19070   0.01267  Uiso   1.00
H93    H     0.04870   0.85610   0.30540   0.01267  Uiso   1.00
H94    H     0.31920   0.88520   0.36340   0.01267  Uiso   1.00
H95    H     0.37830   0.90730   0.24710   0.01267  Uiso   1.00
H96    H     0.01460   0.80270   0.41250   0.01267  Uiso   1.00
H97    H     0.03060   0.78560   0.49490   0.01267  Uiso   1.00
H98    H     0.12080   0.74230   0.44900   0.01267  Uiso   1.00
H99    H     0.35200   0.52400   0.32600   0.01267  Uiso   1.00
H100   H     0.45400   0.49500   0.32400   0.01267  Uiso   1.00
C1     C     0.59210   0.81110   0.95750   0.01267  Uiso   1.00
C2     C     0.56140   0.78300   0.02800   0.01267  Uiso   1.00
C3     C     0.56630   0.82280   0.07550   0.01267  Uiso   1.00
C4     C     0.59610   0.89010   0.05650   0.01267  Uiso   1.00
C5     C     0.61010   0.92780   0.10810   0.01267  Uiso   1.00
C6     C     0.59170   0.89990   0.18000   0.01267  Uiso   1.00
C7     C     0.61540   0.92960   0.22990   0.01267  Uiso   1.00
C8     C     0.66310   0.99030   0.20820   0.01267  Uiso   1.00
C9     C     0.67570   0.02100   0.13760   0.01267  Uiso   1.00
C10    C     0.64930   0.99310   0.08590   0.01267  Uiso   1.00
C11    C     0.66880   0.02610   0.01130   0.01267  Uiso   1.00
C12    C     0.70020   0.09320   0.98710   0.01267  Uiso   1.00
C13    C     0.72310   0.12340   0.91740   0.01267  Uiso   1.00
C14    C     0.71380   0.08530   0.86800   0.01267  Uiso   1.00
C15    C     0.67720   0.02100   0.89160   0.01267  Uiso   1.00
C16    C     0.65360   0.99000   0.96240   0.01267  Uiso   1.00
C17    C     0.61940   0.92100   0.98480   0.01267  Uiso   1.00
C18    C     0.61690   0.87920   0.93810   0.01267  Uiso   1.00
C19    C     0.61210   0.76900   0.90330   0.01267  Uiso   1.00
C20    C     0.67780   0.69440   0.91700   0.01267  Uiso   1.00
C21    C     0.70610   0.65700   0.86520   0.01267  Uiso   1.00
C22    C     0.66800   0.69490   0.79790   0.01267  Uiso   1.00
C23    C     0.60100   0.76780   0.78330   0.01267  Uiso   1.00
C24    C     0.57380   0.80480   0.83650   0.01267  Uiso   1.00
C25    C     0.61830   0.69220   0.66420   0.01267  Uiso   1.00
C26    C     0.52840   0.71060   0.05150   0.01267  Uiso   1.00
C27    C     0.45360   0.70000   0.01180   0.01267  Uiso   1.00
C28    C     0.42730   0.63200   0.03100   0.01267  Uiso   1.00
C29    C     0.47180   0.57530   0.08930   0.01267  Uiso   1.00
C30    C     0.53910   0.58670   0.13100   0.01267  Uiso   1.00
C31    C     0.56830   0.65440   0.11100   0.01267  Uiso   1.00
C32    C     0.55430   0.41490   0.14730   0.01267  Uiso   1.00
C33    C     0.58230   0.90030   0.30440   0.01267  Uiso   1.00
C34    C     0.60060   0.82510   0.33800   0.01267  Uiso   1.00
C35    C     0.56930   0.79910   0.40520   0.01267  Uiso   1.00
C36    C     0.51380   0.85160   0.44260   0.01267  Uiso   1.00
C37    C     0.49390   0.92750   0.40990   0.01267  Uiso   1.00
C38    C     0.52880   0.95120   0.34280   0.01267  Uiso   1.00
C39    C     0.46520   0.88800   0.57040   0.01267  Uiso   1.00
C40    C     0.71020   0.01690   0.25840   0.01267  Uiso   1.00
C41    C     0.77510   0.96530   0.31200   0.01267  Uiso   1.00
C42    C     0.82540   0.98980   0.35590   0.01267  Uiso   1.00
C43    C     0.80710   0.06660   0.34580   0.01267  Uiso   1.00
C44    C     0.74160   0.11970   0.29340   0.01267  Uiso   1.00
C45    C     0.69430   0.09470   0.24850   0.01267  Uiso   1.00
C46    C     0.92980   0.16540   0.34220   0.01267  Uiso   1.00
C47    C     0.75340   0.19560   0.89560   0.01267  Uiso   1.00
C48    C     0.83130   0.20560   0.93150   0.01267  Uiso   1.00
C49    C     0.86450   0.27160   0.90810   0.01267  Uiso   1.00
C50    C     0.81850   0.32750   0.85140   0.01267  Uiso   1.00
C51    C     0.73750   0.32010   0.81640   0.01267  Uiso   1.00
C52    C     0.70520   0.25440   0.83830   0.01267  Uiso   1.00
C53    C     0.93320   0.39950   0.74010   0.01267  Uiso   1.00
C54    C     0.74950   0.10530   0.79290   0.01267  Uiso   1.00
C55    C     0.84890   0.12040   0.77430   0.01267  Uiso   1.00
C56    C     0.88430   0.13280   0.70650   0.01267  Uiso   1.00
C57    C     0.82360   0.12950   0.65410   0.01267  Uiso   1.00
C58    C     0.72420   0.11560   0.67170   0.01267  Uiso   1.00
C59    C     0.68900   0.10310   0.74090   0.01267  Uiso   1.00
C60    C     0.93290   0.20960   0.55090   0.01267  Uiso   1.00
C61    C     0.78060   0.39140   0.30490   0.01267  Uiso   1.00
C62    C     0.22640   0.10260   0.35800   0.01267  Uiso   1.00
C63    C     0.40790   0.18890   0.04250   0.01267  Uiso   1.00
C64    C     0.43860   0.21700   0.97200   0.01267  Uiso   1.00
C65    C     0.43370   0.17720   0.92450   0.01267  Uiso   1.00
C66    C     0.40390   0.10990   0.94350   0.01267  Uiso   1.00
C67    C     0.38990   0.07220   0.89190   0.01267  Uiso   1.00
C68    C     0.40830   0.10010   0.82000   0.01267  Uiso   1.00
C69    C     0.38460   0.07040   0.77010   0.01267  Uiso   1.00
C70    C     0.33690   0.00970   0.79180   0.01267  Uiso   1.00
C71    C     0.32430   0.97900   0.86240   0.01267  Uiso   1.00
C72    C     0.35070   0.00690   0.91410   0.01267  Uiso   1.00
C73    C     0.33120   0.97390   0.98870   0.01267  Uiso   1.00
C74    C     0.29980   0.90680   0.01290   0.01267  Uiso   1.00
C75    C     0.27690   0.87660   0.08260   0.01267  Uiso   1.00
C76    C     0.28620   0.91470   0.13200   0.01267  Uiso   1.00
C77    C     0.32280   0.97900   0.10840   0.01267  Uiso   1.00
C78    C     0.34640   0.01000   0.03760   0.01267  Uiso   1.00
C79    C     0.38060   0.07900   0.01520   0.01267  Uiso   1.00
C80    C     0.38310   0.12080   0.06190   0.01267  Uiso   1.00
C81    C     0.38790   0.23100   0.09670   0.01267  Uiso   1.00
C82    C     0.32220   0.30560   0.08300   0.01267  Uiso   1.00
C83    C     0.29390   0.34300   0.13480   0.01267  Uiso   1.00
C84    C     0.33200   0.30510   0.20210   0.01267  Uiso   1.00
C85    C     0.39900   0.23220   0.21670   0.01267  Uiso   1.00
C86    C     0.42620   0.19520   0.16350   0.01267  Uiso   1.00
C87    C     0.38170   0.30780   0.33580   0.01267  Uiso   1.00
C88    C     0.47160   0.28940   0.94850   0.01267  Uiso   1.00
C89    C     0.54640   0.30000   0.98820   0.01267  Uiso   1.00
C90    C     0.57270   0.36800   0.96900   0.01267  Uiso   1.00
C91    C     0.52820   0.42470   0.91070   0.01267  Uiso   1.00
C92    C     0.46090   0.41330   0.86900   0.01267  Uiso   1.00
C93    C     0.43170   0.34560   0.88900   0.01267  Uiso   1.00
C94    C     0.44570   0.58510   0.85270   0.01267  Uiso   1.00
C95    C     0.41770   0.09970   0.69560   0.01267  Uiso   1.00
C96    C     0.39940   0.17490   0.66200   0.01267  Uiso   1.00
C97    C     0.43070   0.20090   0.59480   0.01267  Uiso   1.00
C98    C     0.48620   0.14840   0.55740   0.01267  Uiso   1.00
C99    C     0.50610   0.07250   0.59010   0.01267  Uiso   1.00
C100   C     0.47120   0.04880   0.65720   0.01267  Uiso   1.00
C101   C     0.53480   0.11200   0.42960   0.01267  Uiso   1.00
C102   C     0.28980   0.98310   0.74160   0.01267  Uiso   1.00
C103   C     0.22490   0.03470   0.68800   0.01267  Uiso   1.00
C104   C     0.17460   0.01020   0.64410   0.01267  Uiso   1.00
C105   C     0.19290   0.93340   0.65420   0.01267  Uiso   1.00
C106   C     0.25840   0.88030   0.70660   0.01267  Uiso   1.00
C107   C     0.30570   0.90530   0.75150   0.01267  Uiso   1.00
C108   C     0.07020   0.83460   0.65780   0.01267  Uiso   1.00
C109   C     0.24660   0.80440   0.10440   0.01267  Uiso   1.00
C110   C     0.16870   0.79440   0.06850   0.01267  Uiso   1.00
C111   C     0.13550   0.72840   0.09190   0.01267  Uiso   1.00
C112   C     0.18150   0.67250   0.14860   0.01267  Uiso   1.00
C113   C     0.26250   0.67990   0.18360   0.01267  Uiso   1.00
C114   C     0.29480   0.74560   0.16170   0.01267  Uiso   1.00
C115   C     0.06680   0.60050   0.25990   0.01267  Uiso   1.00
C116   C     0.25050   0.89470   0.20710   0.01267  Uiso   1.00
C117   C     0.15110   0.87960   0.22570   0.01267  Uiso   1.00
C118   C     0.11570   0.86720   0.29350   0.01267  Uiso   1.00
C119   C     0.17640   0.87050   0.34590   0.01267  Uiso   1.00
C120   C     0.27580   0.88440   0.32830   0.01267  Uiso   1.00
C121   C     0.31100   0.89690   0.25910   0.01267  Uiso   1.00
C122   C     0.06710   0.79040   0.44910   0.01267  Uiso   1.00
C123   C     0.21940   0.60860   0.69510   0.01267  Uiso   1.00
C124   C     0.77360   0.89740   0.64200   0.01267  Uiso   1.00
S1     S     0.21277   0.07159   0.44933   0.01267  Uiso   1.00
S2     S     0.71478   0.64672   0.73219   0.01267  Uiso   1.00
S3     S     0.43551   0.48831   0.10653   0.01267  Uiso   1.00
S4     S     0.46647   0.81523   0.52842   0.01267  Uiso   1.00
S5     S     0.86884   0.09815   0.40382   0.01267  Uiso   1.00
S6     S     0.86592   0.41012   0.82114   0.01267  Uiso   1.00
S7     S     0.87113   0.13898   0.56706   0.01267  Uiso   1.00
S8     S     0.69180   0.34101   0.34695   0.01267  Uiso   1.00
S9     S     0.78723   0.92841   0.55067   0.01267  Uiso   1.00
S10    S     0.28522   0.35328   0.26781   0.01267  Uiso   1.00
S11    S     0.56449   0.51169   0.89347   0.01267  Uiso   1.00
S12    S     0.53353   0.18477   0.47158   0.01267  Uiso   1.00
S13    S     0.13116   0.90185   0.59618   0.01267  Uiso   1.00
S14    S     0.13408   0.58988   0.17886   0.01267  Uiso   1.00
S15    S     0.12887   0.86102   0.43294   0.01267  Uiso   1.00
S16    S     0.30820   0.65899   0.65305   0.01267  Uiso   1.00
O1     O     0.10160   0.09880   0.46700   0.01267  Uiso   1.00
O2     O     0.26000   0.99220   0.46990   0.01267  Uiso   1.00
O3     O     0.27930   0.11350   0.47130   0.01267  Uiso   1.00
O4     O     0.74920   0.29770   0.41470   0.01267  Uiso   1.00
O5     O     0.59700   0.39910   0.35380   0.01267  Uiso   1.00
O6     O     0.67880   0.29500   0.30700   0.01267  Uiso   1.00
O7     O     0.60210   0.50040   0.69850   0.01267  Uiso   1.00
O8     O     0.89840   0.90120   0.53300   0.01267  Uiso   1.00
O9     O     0.74000   0.00780   0.53010   0.01267  Uiso   1.00
O10    O     0.72070   0.88650   0.52870   0.01267  Uiso   1.00
O11    O     0.25080   0.70230   0.58530   0.01267  Uiso   1.00
O12    O     0.40300   0.60090   0.64620   0.01267  Uiso   1.00
O13    O     0.32120   0.70500   0.69300   0.01267  Uiso   1.00
O14    O     0.39790   0.49960   0.30150   0.01267  Uiso   1.00
F1     F     0.87850   0.34670   0.28920   0.01267  Uiso   1.00
F2     F     0.74070   0.44080   0.24070   0.01267  Uiso   1.00
F3     F     0.80420   0.43650   0.33910   0.01267  Uiso   1.00
F4     F     0.17130   0.06520   0.33050   0.01267  Uiso   1.00
F5     F     0.32720   0.08880   0.33670   0.01267  Uiso   1.00
F6     F     0.17820   0.17560   0.33000   0.01267  Uiso   1.00
F7     F     0.12150   0.65330   0.71080   0.01267  Uiso   1.00
F8     F     0.25930   0.55920   0.75930   0.01267  Uiso   1.00
F9     F     0.19580   0.56350   0.66090   0.01267  Uiso   1.00
F10    F     0.82870   0.93480   0.66950   0.01267  Uiso   1.00
F11    F     0.67280   0.91120   0.66330   0.01267  Uiso   1.00
F12    F     0.82180   0.82440   0.67000   0.01267  Uiso   1.00
