data_image0
_cell_length_a       10.8783
_cell_length_b       28.3945
_cell_length_c       9.2141
_cell_angle_alpha    90
_cell_angle_beta     90
_cell_angle_gamma    90

_symmetry_space_group_name_H-M    "P 1"
_symmetry_int_tables_number       1

loop_
  _symmetry_equiv_pos_as_xyz
  'x, y, z'

loop_
  _atom_site_label
  _atom_site_occupancy
  _atom_site_fract_x
  _atom_site_fract_y
  _atom_site_fract_z
  _atom_site_thermal_displace_type
  _atom_site_B_iso_or_equiv
  _atom_site_type_symbol
  Ba1      1.0000 0.14080  0.44519  0.02788  Biso   1.000  Ba
  Li1      1.0000 0.41000  0.16130  0.84250  Biso   1.000  Li
  Li2      1.0000 0.41820  0.38530  0.94090  Biso   1.000  Li
  Li3      1.0000 0.72230  0.43960  0.08840  Biso   1.000  Li
  O1       1.0000 0.07470  0.34533  0.07850  Biso   1.000  O
  O2       1.0000 0.26580  0.35896  0.00250  Biso   1.000  O
  O3       1.0000 0.08230  0.13693  0.04340  Biso   1.000  O
  O4       1.0000 0.26260  0.12653  0.92860  Biso   1.000  O
  O5       1.0000 0.42130  0.44529  0.06140  Biso   1.000  O
  O6       1.0000 0.58210  0.45078  0.21160  Biso   1.000  O
  O7       1.0000 0.17200  0.41855  0.72660  Biso   1.000  O
  O8       1.0000 0.37480  0.42055  0.76810  Biso   1.000  O
  O9       1.0000 0.72670  0.47477  0.90490  Biso   1.000  O
  O10      1.0000 0.92340  0.45523  0.88530  Biso   1.000  O
  O11      1.0000 0.84700  0.47275  0.19240  Biso   1.000  O
  O12      1.0000 0.00880  0.43460  0.28200  Biso   1.000  O
  O13      1.0000 0.41660  0.16893  0.63400  Biso   1.000  O
  N1       1.0000 0.29970  0.26627  0.93480  Biso   1.000  N
  H1       1.0000 0.35500  0.28550  0.89810  Biso   1.000  H
  N2       1.0000 0.30350  0.21928  0.92070  Biso   1.000  N
  N3       1.0000 0.26850  0.42856  0.29180  Biso   1.000  N
  N4       1.0000 0.22170  0.42172  0.42420  Biso   1.000  N
  H2       1.0000 0.14300  0.41720  0.44120  Biso   1.000  H
  N5       1.0000 0.70100  0.46605  0.60500  Biso   1.000  N
  N6       1.0000 0.73020  0.46405  0.46340  Biso   1.000  N
  H3       1.0000 0.67660  0.46820  0.39300  Biso   1.000  H
  N7       1.0000 0.51710  0.18297  0.42200  Biso   1.000  N
  C1       1.0000 0.17930  0.33220  0.03440  Biso   1.000  C
  C2       1.0000 0.20110  0.28053  0.01200  Biso   1.000  C
  C3       1.0000 0.13740  0.24067  0.05160  Biso   1.000  C
  H4       1.0000 0.06410  0.23890  0.10750  Biso   1.000  H
  C4       1.0000 0.20420  0.20350  0.99170  Biso   1.000  C
  C5       1.0000 0.18070  0.15140  0.98920  Biso   1.000  C
  C6       1.0000 0.47030  0.44411  0.18550  Biso   1.000  C
  C7       1.0000 0.38960  0.43380  0.31150  Biso   1.000  C
  C8       1.0000 0.41900  0.43006  0.45980  Biso   1.000  C
  H5       1.0000 0.49820  0.43220  0.50270  Biso   1.000  H
  C9       1.0000 0.30870  0.42258  0.52970  Biso   1.000  C
  C10      1.0000 0.28050  0.41952  0.68680  Biso   1.000  C
  C11      1.0000 0.82080  0.46200  0.83240  Biso   1.000  C
  C12      1.0000 0.80890  0.45850  0.67250  Biso   1.000  C
  C13      1.0000 0.90410  0.45118  0.57490  Biso   1.000  C
  H6       1.0000 0.98790  0.44490  0.59660  Biso   1.000  H
  C14      1.0000 0.85150  0.45499  0.44070  Biso   1.000  C
  C15      1.0000 0.90640  0.45372  0.29350  Biso   1.000  C
  C16      1.0000 0.50590  0.18167  0.56550  Biso   1.000  C
  H7       1.0000 0.57510  0.19180  0.62020  Biso   1.000  H
  C17      1.0000 0.62930  0.19890  0.35250  Biso   1.000  C
  H8       1.0000 0.68970  0.20760  0.42680  Biso   1.000  H
  H9       1.0000 0.61130  0.22640  0.29170  Biso   1.000  H
  H10      1.0000 0.66270  0.17360  0.29190  Biso   1.000  H
  C18      1.0000 0.42050  0.16770  0.32630  Biso   1.000  C
  H11      1.0000 0.35430  0.15340  0.38330  Biso   1.000  H
  H12      1.0000 0.45310  0.14460  0.25750  Biso   1.000  H
  H13      1.0000 0.38830  0.19490  0.27280  Biso   1.000  H
  Ba2      1.0000 0.85920  0.55481  0.02788  Biso   1.000  Ba
  Li4      1.0000 0.59000  0.83870  0.84250  Biso   1.000  Li
  Li5      1.0000 0.58180  0.61470  0.94090  Biso   1.000  Li
  Li6      1.0000 0.27770  0.56040  0.08840  Biso   1.000  Li
  O14      1.0000 0.92530  0.65467  0.07850  Biso   1.000  O
  O15      1.0000 0.73420  0.64104  0.00250  Biso   1.000  O
  O16      1.0000 0.91770  0.86307  0.04340  Biso   1.000  O
  O17      1.0000 0.73740  0.87347  0.92860  Biso   1.000  O
  O18      1.0000 0.57870  0.55471  0.06140  Biso   1.000  O
  O19      1.0000 0.41790  0.54922  0.21160  Biso   1.000  O
  O20      1.0000 0.82800  0.58145  0.72660  Biso   1.000  O
  O21      1.0000 0.62520  0.57945  0.76810  Biso   1.000  O
  O22      1.0000 0.27330  0.52523  0.90490  Biso   1.000  O
  O23      1.0000 0.07660  0.54477  0.88530  Biso   1.000  O
  O24      1.0000 0.15300  0.52725  0.19240  Biso   1.000  O
  O25      1.0000 0.99120  0.56540  0.28200  Biso   1.000  O
  O26      1.0000 0.58340  0.83107  0.63400  Biso   1.000  O
  N8       1.0000 0.70030  0.73373  0.93480  Biso   1.000  N
  H14      1.0000 0.64500  0.71450  0.89810  Biso   1.000  H
  N9       1.0000 0.69650  0.78072  0.92070  Biso   1.000  N
  N10      1.0000 0.73150  0.57144  0.29180  Biso   1.000  N
  N11      1.0000 0.77830  0.57828  0.42420  Biso   1.000  N
  H15      1.0000 0.85700  0.58280  0.44120  Biso   1.000  H
  N12      1.0000 0.29900  0.53395  0.60500  Biso   1.000  N
  N13      1.0000 0.26980  0.53595  0.46340  Biso   1.000  N
  H16      1.0000 0.32340  0.53180  0.39300  Biso   1.000  H
  N14      1.0000 0.48290  0.81703  0.42200  Biso   1.000  N
  C19      1.0000 0.82070  0.66780  0.03440  Biso   1.000  C
  C20      1.0000 0.79890  0.71947  0.01200  Biso   1.000  C
  C21      1.0000 0.86260  0.75933  0.05160  Biso   1.000  C
  H17      1.0000 0.93590  0.76110  0.10750  Biso   1.000  H
  C22      1.0000 0.79580  0.79650  0.99170  Biso   1.000  C
  C23      1.0000 0.81930  0.84860  0.98920  Biso   1.000  C
  C24      1.0000 0.52970  0.55589  0.18550  Biso   1.000  C
  C25      1.0000 0.61040  0.56620  0.31150  Biso   1.000  C
  C26      1.0000 0.58100  0.56994  0.45980  Biso   1.000  C
  H18      1.0000 0.50180  0.56780  0.50270  Biso   1.000  H
  C27      1.0000 0.69130  0.57742  0.52970  Biso   1.000  C
  C28      1.0000 0.71950  0.58048  0.68680  Biso   1.000  C
  C29      1.0000 0.17920  0.53800  0.83240  Biso   1.000  C
  C30      1.0000 0.19110  0.54150  0.67250  Biso   1.000  C
  C31      1.0000 0.09590  0.54882  0.57490  Biso   1.000  C
  H19      1.0000 0.01210  0.55510  0.59660  Biso   1.000  H
  C32      1.0000 0.14850  0.54501  0.44070  Biso   1.000  C
  C33      1.0000 0.09360  0.54628  0.29350  Biso   1.000  C
  C34      1.0000 0.49410  0.81833  0.56550  Biso   1.000  C
  H20      1.0000 0.42490  0.80820  0.62020  Biso   1.000  H
  C35      1.0000 0.37070  0.80110  0.35250  Biso   1.000  C
  H21      1.0000 0.31030  0.79240  0.42680  Biso   1.000  H
  H22      1.0000 0.38870  0.77360  0.29170  Biso   1.000  H
  H23      1.0000 0.33730  0.82640  0.29190  Biso   1.000  H
  C36      1.0000 0.57950  0.83230  0.32630  Biso   1.000  C
  H24      1.0000 0.64570  0.84660  0.38330  Biso   1.000  H
  H25      1.0000 0.54690  0.85540  0.25750  Biso   1.000  H
  H26      1.0000 0.61170  0.80510  0.27280  Biso   1.000  H
  Ba3      1.0000 0.35920  0.94519  0.97212  Biso   1.000  Ba
  Li7      1.0000 0.09000  0.66130  0.15750  Biso   1.000  Li
  Li8      1.0000 0.08180  0.88530  0.05910  Biso   1.000  Li
  Li9      1.0000 0.77770  0.93960  0.91160  Biso   1.000  Li
  O27      1.0000 0.42530  0.84533  0.92150  Biso   1.000  O
  O28      1.0000 0.23420  0.85896  0.99750  Biso   1.000  O
  O29      1.0000 0.41770  0.63693  0.95660  Biso   1.000  O
  O30      1.0000 0.23740  0.62653  0.07140  Biso   1.000  O
  O31      1.0000 0.07870  0.94529  0.93860  Biso   1.000  O
  O32      1.0000 0.91790  0.95078  0.78840  Biso   1.000  O
  O33      1.0000 0.32800  0.91855  0.27340  Biso   1.000  O
  O34      1.0000 0.12520  0.92055  0.23190  Biso   1.000  O
  O35      1.0000 0.77330  0.97477  0.09510  Biso   1.000  O
  O36      1.0000 0.57660  0.95523  0.11470  Biso   1.000  O
  O37      1.0000 0.65300  0.97275  0.80760  Biso   1.000  O
  O38      1.0000 0.49120  0.93460  0.71800  Biso   1.000  O
  O39      1.0000 0.08340  0.66893  0.36600  Biso   1.000  O
  N15      1.0000 0.20030  0.76627  0.06520  Biso   1.000  N
  H27      1.0000 0.14500  0.78550  0.10190  Biso   1.000  H
  N16      1.0000 0.19650  0.71928  0.07930  Biso   1.000  N
  N17      1.0000 0.23150  0.92856  0.70820  Biso   1.000  N
  N18      1.0000 0.27830  0.92172  0.57580  Biso   1.000  N
  H28      1.0000 0.35700  0.91720  0.55880  Biso   1.000  H
  N19      1.0000 0.79900  0.96605  0.39500  Biso   1.000  N
  N20      1.0000 0.76980  0.96405  0.53660  Biso   1.000  N
  H29      1.0000 0.82340  0.96820  0.60700  Biso   1.000  H
  N21      1.0000 0.98290  0.68297  0.57800  Biso   1.000  N
  C37      1.0000 0.32070  0.83220  0.96560  Biso   1.000  C
  C38      1.0000 0.29890  0.78053  0.98800  Biso   1.000  C
  C39      1.0000 0.36260  0.74067  0.94840  Biso   1.000  C
  H30      1.0000 0.43590  0.73890  0.89250  Biso   1.000  H
  C40      1.0000 0.29580  0.70350  0.00830  Biso   1.000  C
  C41      1.0000 0.31930  0.65140  0.01080  Biso   1.000  C
  C42      1.0000 0.02970  0.94411  0.81450  Biso   1.000  C
  C43      1.0000 0.11040  0.93380  0.68850  Biso   1.000  C
  C44      1.0000 0.08100  0.93006  0.54020  Biso   1.000  C
  H31      1.0000 0.00180  0.93220  0.49730  Biso   1.000  H
  C45      1.0000 0.19130  0.92258  0.47030  Biso   1.000  C
  C46      1.0000 0.21950  0.91952  0.31320  Biso   1.000  C
  C47      1.0000 0.67920  0.96200  0.16760  Biso   1.000  C
  C48      1.0000 0.69110  0.95850  0.32750  Biso   1.000  C
  C49      1.0000 0.59590  0.95118  0.42510  Biso   1.000  C
  H32      1.0000 0.51210  0.94490  0.40340  Biso   1.000  H
  C50      1.0000 0.64850  0.95499  0.55930  Biso   1.000  C
  C51      1.0000 0.59360  0.95372  0.70650  Biso   1.000  C
  C52      1.0000 0.99410  0.68167  0.43450  Biso   1.000  C
  H33      1.0000 0.92490  0.69180  0.37980  Biso   1.000  H
  C53      1.0000 0.87070  0.69890  0.64750  Biso   1.000  C
  H34      1.0000 0.81030  0.70760  0.57320  Biso   1.000  H
  H35      1.0000 0.88870  0.72640  0.70830  Biso   1.000  H
  H36      1.0000 0.83730  0.67360  0.70810  Biso   1.000  H
  C54      1.0000 0.07950  0.66770  0.67370  Biso   1.000  C
  H37      1.0000 0.14570  0.65340  0.61670  Biso   1.000  H
  H38      1.0000 0.04690  0.64460  0.74250  Biso   1.000  H
  H39      1.0000 0.11170  0.69490  0.72720  Biso   1.000  H
  Ba4      1.0000 0.64080  0.05481  0.97212  Biso   1.000  Ba
  Li10     1.0000 0.91000  0.33870  0.15750  Biso   1.000  Li
  Li11     1.0000 0.91820  0.11470  0.05910  Biso   1.000  Li
  Li12     1.0000 0.22230  0.06040  0.91160  Biso   1.000  Li
  O40      1.0000 0.57470  0.15467  0.92150  Biso   1.000  O
  O41      1.0000 0.76580  0.14104  0.99750  Biso   1.000  O
  O42      1.0000 0.58230  0.36307  0.95660  Biso   1.000  O
  O43      1.0000 0.76260  0.37347  0.07140  Biso   1.000  O
  O44      1.0000 0.92130  0.05471  0.93860  Biso   1.000  O
  O45      1.0000 0.08210  0.04922  0.78840  Biso   1.000  O
  O46      1.0000 0.67200  0.08145  0.27340  Biso   1.000  O
  O47      1.0000 0.87480  0.07945  0.23190  Biso   1.000  O
  O48      1.0000 0.22670  0.02523  0.09510  Biso   1.000  O
  O49      1.0000 0.42340  0.04477  0.11470  Biso   1.000  O
  O50      1.0000 0.34700  0.02725  0.80760  Biso   1.000  O
  O51      1.0000 0.50880  0.06540  0.71800  Biso   1.000  O
  O52      1.0000 0.91660  0.33107  0.36600  Biso   1.000  O
  N22      1.0000 0.79970  0.23373  0.06520  Biso   1.000  N
  H40      1.0000 0.85500  0.21450  0.10190  Biso   1.000  H
  N23      1.0000 0.80350  0.28072  0.07930  Biso   1.000  N
  N24      1.0000 0.76850  0.07144  0.70820  Biso   1.000  N
  N25      1.0000 0.72170  0.07828  0.57580  Biso   1.000  N
  H41      1.0000 0.64300  0.08280  0.55880  Biso   1.000  H
  N26      1.0000 0.20100  0.03395  0.39500  Biso   1.000  N
  N27      1.0000 0.23020  0.03595  0.53660  Biso   1.000  N
  H42      1.0000 0.17660  0.03180  0.60700  Biso   1.000  H
  N28      1.0000 0.01710  0.31703  0.57800  Biso   1.000  N
  C55      1.0000 0.67930  0.16780  0.96560  Biso   1.000  C
  C56      1.0000 0.70110  0.21947  0.98800  Biso   1.000  C
  C57      1.0000 0.63740  0.25933  0.94840  Biso   1.000  C
  H43      1.0000 0.56410  0.26110  0.89250  Biso   1.000  H
  C58      1.0000 0.70420  0.29650  0.00830  Biso   1.000  C
  C59      1.0000 0.68070  0.34860  0.01080  Biso   1.000  C
  C60      1.0000 0.97030  0.05589  0.81450  Biso   1.000  C
  C61      1.0000 0.88960  0.06620  0.68850  Biso   1.000  C
  C62      1.0000 0.91900  0.06994  0.54020  Biso   1.000  C
  H44      1.0000 0.99820  0.06780  0.49730  Biso   1.000  H
  C63      1.0000 0.80870  0.07742  0.47030  Biso   1.000  C
  C64      1.0000 0.78050  0.08048  0.31320  Biso   1.000  C
  C65      1.0000 0.32080  0.03800  0.16760  Biso   1.000  C
  C66      1.0000 0.30890  0.04150  0.32750  Biso   1.000  C
  C67      1.0000 0.40410  0.04882  0.42510  Biso   1.000  C
  H45      1.0000 0.48790  0.05510  0.40340  Biso   1.000  H
  C68      1.0000 0.35150  0.04501  0.55930  Biso   1.000  C
  C69      1.0000 0.40640  0.04628  0.70650  Biso   1.000  C
  C70      1.0000 0.00590  0.31833  0.43450  Biso   1.000  C
  H46      1.0000 0.07510  0.30820  0.37980  Biso   1.000  H
  C71      1.0000 0.12930  0.30110  0.64750  Biso   1.000  C
  H47      1.0000 0.18970  0.29240  0.57320  Biso   1.000  H
  H48      1.0000 0.11130  0.27360  0.70830  Biso   1.000  H
  H49      1.0000 0.16270  0.32640  0.70810  Biso   1.000  H
  C72      1.0000 0.92050  0.33230  0.67370  Biso   1.000  C
  H50      1.0000 0.85430  0.34660  0.61670  Biso   1.000  H
  H51      1.0000 0.95310  0.35540  0.74250  Biso   1.000  H
  H52      1.0000 0.88830  0.30510  0.72720  Biso   1.000  H
  Ba5      1.0000 0.50000  0.50000  0.82337  Biso   1.000  Ba
  Ba6      1.0000 0.00000  0.00000  0.17663  Biso   1.000  Ba
