data_image0
_cell_length_a       4.9748
_cell_length_b       37.2189
_cell_length_c       16.0246
_cell_angle_alpha    90
_cell_angle_beta     92.582
_cell_angle_gamma    90

_symmetry_space_group_name_H-M    "P 1"
_symmetry_int_tables_number       1

loop_
  _symmetry_equiv_pos_as_xyz
  'x, y, z'

loop_
  _atom_site_label
  _atom_site_occupancy
  _atom_site_fract_x
  _atom_site_fract_y
  _atom_site_fract_z
  _atom_site_thermal_displace_type
  _atom_site_B_iso_or_equiv
  _atom_site_type_symbol
  Li1      1.0000 0.79880  0.47669  0.51440  Biso   1.000  Li
  C1       1.0000 0.21080  0.30274  0.77723  Biso   1.000  C
  N1       1.0000 0.41620  0.31275  0.82727  Biso   1.000  N
  C2       1.0000 0.54200  0.28546  0.86873  Biso   1.000  C
  N2       1.0000 0.48610  0.25034  0.86144  Biso   1.000  N
  C3       1.0000 0.26930  0.24384  0.81104  Biso   1.000  C
  N3       1.0000 0.11930  0.26849  0.76920  Biso   1.000  N
  N4       1.0000 0.07150  0.32681  0.72844  Biso   1.000  N
  H1       1.0000 0.90660  0.32040  0.71280  Biso   1.000  H
  O1       1.0000 0.17460  0.47757  0.54413  Biso   1.000  O
  O2       1.0000 0.57290  0.47672  0.61208  Biso   1.000  O
  C4       1.0000 0.34390  0.46274  0.59323  Biso   1.000  C
  C5       1.0000 0.27960  0.42714  0.62998  Biso   1.000  C
  C6       1.0000 0.43110  0.41348  0.69733  Biso   1.000  C
  H2       1.0000 0.57970  0.42690  0.71990  Biso   1.000  H
  C7       1.0000 0.36940  0.38042  0.73262  Biso   1.000  C
  H3       1.0000 0.47450  0.37150  0.77910  Biso   1.000  H
  C8       1.0000 0.15340  0.36056  0.69947  Biso   1.000  C
  C9       1.0000 0.00310  0.37404  0.63079  Biso   1.000  C
  H4       1.0000 0.85570  0.36060  0.60760  Biso   1.000  H
  C10      1.0000 0.06690  0.40681  0.59630  Biso   1.000  C
  H5       1.0000 0.96440  0.41550  0.54910  Biso   1.000  H
  N5       1.0000 0.74560  0.29738  0.92128  Biso   1.000  N
  H6       1.0000 0.76350  0.32090  0.92190  Biso   1.000  H
  O3       1.0000 0.70410  0.25683  0.17621  Biso   1.000  O
  H7       1.0000 0.82590  0.24600  0.20410  Biso   1.000  H
  O4       1.0000 0.60240  0.20102  0.13329  Biso   1.000  O
  C11      1.0000 0.55870  0.23341  0.13177  Biso   1.000  C
  C12      1.0000 0.33670  0.24979  0.07956  Biso   1.000  C
  C13      1.0000 0.15440  0.22785  0.03473  Biso   1.000  C
  H8       1.0000 0.16870  0.20250  0.04020  Biso   1.000  H
  C14      1.0000 0.95320  0.24227  0.98250  Biso   1.000  C
  H9       1.0000 0.83080  0.22690  0.95250  Biso   1.000  H
  C15      1.0000 0.93130  0.27955  0.97424  Biso   1.000  C
  C16      1.0000 0.11150  0.30185  0.02055  Biso   1.000  C
  H10      1.0000 0.09590  0.32720  0.01610  Biso   1.000  H
  C17      1.0000 0.31080  0.28695  0.07234  Biso   1.000  C
  H11      1.0000 0.43150  0.30220  0.10340  Biso   1.000  H
  N6       1.0000 0.17880  0.20972  0.79629  Biso   1.000  N
  H12      1.0000 0.03140  0.20890  0.76390  Biso   1.000  H
  O5       1.0000 0.65520  0.06148  0.94496  Biso   1.000  O
  O6       1.0000 0.34980  0.04327  0.84834  Biso   1.000  O
  H13      1.0000 0.39230  0.02290  0.86740  Biso   1.000  H
  C18      1.0000 0.48530  0.06819  0.89053  Biso   1.000  C
  C19      1.0000 0.40990  0.10537  0.86575  Biso   1.000  C
  C20      1.0000 0.21600  0.11215  0.80490  Biso   1.000  C
  H14      1.0000 0.12690  0.09270  0.77700  Biso   1.000  H
  C21      1.0000 0.14780  0.14703  0.78340  Biso   1.000  C
  H15      1.0000 0.01210  0.15110  0.74080  Biso   1.000  H
  C22      1.0000 0.27160  0.17584  0.82194  Biso   1.000  C
  C23      1.0000 0.45850  0.16925  0.88470  Biso   1.000  C
  H16      1.0000 0.54190  0.18870  0.91410  Biso   1.000  H
  C24      1.0000 0.52770  0.13424  0.90590  Biso   1.000  C
  H17      1.0000 0.66020  0.13020  0.94950  Biso   1.000  H
  Li2      1.0000 0.20120  0.97669  0.98560  Biso   1.000  Li
  C25      1.0000 0.78920  0.80274  0.72277  Biso   1.000  C
  N7       1.0000 0.58380  0.81275  0.67273  Biso   1.000  N
  C26      1.0000 0.45800  0.78546  0.63127  Biso   1.000  C
  N8       1.0000 0.51390  0.75034  0.63856  Biso   1.000  N
  C27      1.0000 0.73070  0.74384  0.68896  Biso   1.000  C
  N9       1.0000 0.88070  0.76849  0.73080  Biso   1.000  N
  N10      1.0000 0.92850  0.82681  0.77156  Biso   1.000  N
  H18      1.0000 0.09340  0.82040  0.78720  Biso   1.000  H
  O7       1.0000 0.82540  0.97757  0.95587  Biso   1.000  O
  O8       1.0000 0.42710  0.97672  0.88792  Biso   1.000  O
  C28      1.0000 0.65610  0.96274  0.90677  Biso   1.000  C
  C29      1.0000 0.72040  0.92714  0.87002  Biso   1.000  C
  C30      1.0000 0.56890  0.91348  0.80267  Biso   1.000  C
  H19      1.0000 0.42030  0.92690  0.78010  Biso   1.000  H
  C31      1.0000 0.63060  0.88042  0.76738  Biso   1.000  C
  H20      1.0000 0.52550  0.87150  0.72090  Biso   1.000  H
  C32      1.0000 0.84660  0.86056  0.80053  Biso   1.000  C
  C33      1.0000 0.99690  0.87404  0.86921  Biso   1.000  C
  H21      1.0000 0.14430  0.86060  0.89240  Biso   1.000  H
  C34      1.0000 0.93310  0.90681  0.90370  Biso   1.000  C
  H22      1.0000 0.03560  0.91550  0.95090  Biso   1.000  H
  N11      1.0000 0.25440  0.79738  0.57872  Biso   1.000  N
  H23      1.0000 0.23650  0.82090  0.57810  Biso   1.000  H
  O9       1.0000 0.29590  0.75683  0.32379  Biso   1.000  O
  H24      1.0000 0.17410  0.74600  0.29590  Biso   1.000  H
  O10      1.0000 0.39760  0.70102  0.36671  Biso   1.000  O
  C35      1.0000 0.44130  0.73341  0.36823  Biso   1.000  C
  C36      1.0000 0.66330  0.74979  0.42044  Biso   1.000  C
  C37      1.0000 0.84560  0.72785  0.46527  Biso   1.000  C
  H25      1.0000 0.83130  0.70250  0.45980  Biso   1.000  H
  C38      1.0000 0.04680  0.74227  0.51750  Biso   1.000  C
  H26      1.0000 0.16920  0.72690  0.54750  Biso   1.000  H
  C39      1.0000 0.06870  0.77955  0.52576  Biso   1.000  C
  C40      1.0000 0.88850  0.80185  0.47945  Biso   1.000  C
  H27      1.0000 0.90410  0.82720  0.48390  Biso   1.000  H
  C41      1.0000 0.68920  0.78695  0.42766  Biso   1.000  C
  H28      1.0000 0.56850  0.80220  0.39660  Biso   1.000  H
  N12      1.0000 0.82120  0.70972  0.70371  Biso   1.000  N
  H29      1.0000 0.96860  0.70890  0.73610  Biso   1.000  H
  O11      1.0000 0.34480  0.56148  0.55504  Biso   1.000  O
  O12      1.0000 0.65020  0.54327  0.65166  Biso   1.000  O
  H30      1.0000 0.60770  0.52290  0.63260  Biso   1.000  H
  C42      1.0000 0.51470  0.56819  0.60947  Biso   1.000  C
  C43      1.0000 0.59010  0.60537  0.63425  Biso   1.000  C
  C44      1.0000 0.78400  0.61215  0.69510  Biso   1.000  C
  H31      1.0000 0.87310  0.59270  0.72300  Biso   1.000  H
  C45      1.0000 0.85220  0.64703  0.71660  Biso   1.000  C
  H32      1.0000 0.98790  0.65110  0.75920  Biso   1.000  H
  C46      1.0000 0.72840  0.67584  0.67806  Biso   1.000  C
  C47      1.0000 0.54150  0.66925  0.61530  Biso   1.000  C
  H33      1.0000 0.45810  0.68870  0.58590  Biso   1.000  H
  C48      1.0000 0.47230  0.63424  0.59410  Biso   1.000  C
  H34      1.0000 0.33980  0.63020  0.55050  Biso   1.000  H
  Li3      1.0000 0.20120  0.52331  0.48560  Biso   1.000  Li
  C49      1.0000 0.78920  0.69726  0.22277  Biso   1.000  C
  N13      1.0000 0.58380  0.68725  0.17273  Biso   1.000  N
  C50      1.0000 0.45800  0.71454  0.13127  Biso   1.000  C
  N14      1.0000 0.51390  0.74966  0.13856  Biso   1.000  N
  C51      1.0000 0.73070  0.75616  0.18896  Biso   1.000  C
  N15      1.0000 0.88070  0.73151  0.23080  Biso   1.000  N
  N16      1.0000 0.92850  0.67319  0.27156  Biso   1.000  N
  H35      1.0000 0.09340  0.67960  0.28720  Biso   1.000  H
  O13      1.0000 0.82540  0.52243  0.45587  Biso   1.000  O
  O14      1.0000 0.42710  0.52328  0.38792  Biso   1.000  O
  C52      1.0000 0.65610  0.53726  0.40677  Biso   1.000  C
  C53      1.0000 0.72040  0.57286  0.37002  Biso   1.000  C
  C54      1.0000 0.56890  0.58652  0.30267  Biso   1.000  C
  H36      1.0000 0.42030  0.57310  0.28010  Biso   1.000  H
  C55      1.0000 0.63060  0.61958  0.26738  Biso   1.000  C
  H37      1.0000 0.52550  0.62850  0.22090  Biso   1.000  H
  C56      1.0000 0.84660  0.63944  0.30053  Biso   1.000  C
  C57      1.0000 0.99690  0.62596  0.36921  Biso   1.000  C
  H38      1.0000 0.14430  0.63940  0.39240  Biso   1.000  H
  C58      1.0000 0.93310  0.59319  0.40370  Biso   1.000  C
  H39      1.0000 0.03560  0.58450  0.45090  Biso   1.000  H
  N17      1.0000 0.25440  0.70262  0.07872  Biso   1.000  N
  H40      1.0000 0.23650  0.67910  0.07810  Biso   1.000  H
  O15      1.0000 0.29590  0.74317  0.82379  Biso   1.000  O
  H41      1.0000 0.17410  0.75400  0.79590  Biso   1.000  H
  O16      1.0000 0.39760  0.79898  0.86671  Biso   1.000  O
  C59      1.0000 0.44130  0.76659  0.86823  Biso   1.000  C
  C60      1.0000 0.66330  0.75021  0.92044  Biso   1.000  C
  C61      1.0000 0.84560  0.77215  0.96527  Biso   1.000  C
  H42      1.0000 0.83130  0.79750  0.95980  Biso   1.000  H
  C62      1.0000 0.04680  0.75773  0.01750  Biso   1.000  C
  H43      1.0000 0.16920  0.77310  0.04750  Biso   1.000  H
  C63      1.0000 0.06870  0.72045  0.02576  Biso   1.000  C
  C64      1.0000 0.88850  0.69815  0.97945  Biso   1.000  C
  H44      1.0000 0.90410  0.67280  0.98390  Biso   1.000  H
  C65      1.0000 0.68920  0.71305  0.92766  Biso   1.000  C
  H45      1.0000 0.56850  0.69780  0.89660  Biso   1.000  H
  N18      1.0000 0.82120  0.79028  0.20371  Biso   1.000  N
  H46      1.0000 0.96860  0.79110  0.23610  Biso   1.000  H
  O17      1.0000 0.34480  0.93852  0.05504  Biso   1.000  O
  O18      1.0000 0.65020  0.95673  0.15166  Biso   1.000  O
  H47      1.0000 0.60770  0.97710  0.13260  Biso   1.000  H
  C66      1.0000 0.51470  0.93181  0.10947  Biso   1.000  C
  C67      1.0000 0.59010  0.89463  0.13425  Biso   1.000  C
  C68      1.0000 0.78400  0.88785  0.19510  Biso   1.000  C
  H48      1.0000 0.87310  0.90730  0.22300  Biso   1.000  H
  C69      1.0000 0.85220  0.85297  0.21660  Biso   1.000  C
  H49      1.0000 0.98790  0.84890  0.25920  Biso   1.000  H
  C70      1.0000 0.72840  0.82416  0.17806  Biso   1.000  C
  C71      1.0000 0.54150  0.83075  0.11530  Biso   1.000  C
  H50      1.0000 0.45810  0.81130  0.08590  Biso   1.000  H
  C72      1.0000 0.47230  0.86576  0.09410  Biso   1.000  C
  H51      1.0000 0.33980  0.86980  0.05050  Biso   1.000  H
  Li4      1.0000 0.79880  0.02331  0.01440  Biso   1.000  Li
  C73      1.0000 0.21080  0.19726  0.27723  Biso   1.000  C
  N19      1.0000 0.41620  0.18725  0.32727  Biso   1.000  N
  C74      1.0000 0.54200  0.21454  0.36873  Biso   1.000  C
  N20      1.0000 0.48610  0.24966  0.36144  Biso   1.000  N
  C75      1.0000 0.26930  0.25616  0.31104  Biso   1.000  C
  N21      1.0000 0.11930  0.23151  0.26920  Biso   1.000  N
  N22      1.0000 0.07150  0.17319  0.22844  Biso   1.000  N
  H52      1.0000 0.90660  0.17960  0.21280  Biso   1.000  H
  O19      1.0000 0.17460  0.02243  0.04413  Biso   1.000  O
  O20      1.0000 0.57290  0.02328  0.11208  Biso   1.000  O
  C76      1.0000 0.34390  0.03726  0.09323  Biso   1.000  C
  C77      1.0000 0.27960  0.07286  0.12998  Biso   1.000  C
  C78      1.0000 0.43110  0.08652  0.19733  Biso   1.000  C
  H53      1.0000 0.57970  0.07310  0.21990  Biso   1.000  H
  C79      1.0000 0.36940  0.11958  0.23262  Biso   1.000  C
  H54      1.0000 0.47450  0.12850  0.27910  Biso   1.000  H
  C80      1.0000 0.15340  0.13944  0.19947  Biso   1.000  C
  C81      1.0000 0.00310  0.12596  0.13079  Biso   1.000  C
  H55      1.0000 0.85570  0.13940  0.10760  Biso   1.000  H
  C82      1.0000 0.06690  0.09319  0.09630  Biso   1.000  C
  H56      1.0000 0.96440  0.08450  0.04910  Biso   1.000  H
  N23      1.0000 0.74560  0.20262  0.42128  Biso   1.000  N
  H57      1.0000 0.76350  0.17910  0.42190  Biso   1.000  H
  O21      1.0000 0.70410  0.24317  0.67621  Biso   1.000  O
  H58      1.0000 0.82590  0.25400  0.70410  Biso   1.000  H
  O22      1.0000 0.60240  0.29898  0.63329  Biso   1.000  O
  C83      1.0000 0.55870  0.26659  0.63177  Biso   1.000  C
  C84      1.0000 0.33670  0.25021  0.57956  Biso   1.000  C
  C85      1.0000 0.15440  0.27215  0.53473  Biso   1.000  C
  H59      1.0000 0.16870  0.29750  0.54020  Biso   1.000  H
  C86      1.0000 0.95320  0.25773  0.48250  Biso   1.000  C
  H60      1.0000 0.83080  0.27310  0.45250  Biso   1.000  H
  C87      1.0000 0.93130  0.22045  0.47424  Biso   1.000  C
  C88      1.0000 0.11150  0.19815  0.52055  Biso   1.000  C
  H61      1.0000 0.09590  0.17280  0.51610  Biso   1.000  H
  C89      1.0000 0.31080  0.21305  0.57234  Biso   1.000  C
  H62      1.0000 0.43150  0.19780  0.60340  Biso   1.000  H
  N24      1.0000 0.17880  0.29028  0.29629  Biso   1.000  N
  H63      1.0000 0.03140  0.29110  0.26390  Biso   1.000  H
  O23      1.0000 0.65520  0.43852  0.44496  Biso   1.000  O
  O24      1.0000 0.34980  0.45673  0.34834  Biso   1.000  O
  H64      1.0000 0.39230  0.47710  0.36740  Biso   1.000  H
  C90      1.0000 0.48530  0.43181  0.39053  Biso   1.000  C
  C91      1.0000 0.40990  0.39463  0.36575  Biso   1.000  C
  C92      1.0000 0.21600  0.38785  0.30490  Biso   1.000  C
  H65      1.0000 0.12690  0.40730  0.27700  Biso   1.000  H
  C93      1.0000 0.14780  0.35297  0.28340  Biso   1.000  C
  H66      1.0000 0.01210  0.34890  0.24080  Biso   1.000  H
  C94      1.0000 0.27160  0.32416  0.32194  Biso   1.000  C
  C95      1.0000 0.45850  0.33075  0.38470  Biso   1.000  C
  H67      1.0000 0.54190  0.31130  0.41410  Biso   1.000  H
  C96      1.0000 0.52770  0.36576  0.40590  Biso   1.000  C
  H68      1.0000 0.66020  0.36980  0.44950  Biso   1.000  H
