data_image0
_cell_length_a       26.2934
_cell_length_b       26.2934
_cell_length_c       26.2934
_cell_angle_alpha    109.471
_cell_angle_beta     109.471
_cell_angle_gamma    109.471

_symmetry_space_group_name_H-M    P 1
_symmetry_int_tables_number       1

loop_
  _symmetry_equiv_pos_as_xyz
  'x, y, z'

loop_
  _atom_site_label
  _atom_site_occupancy
  _atom_site_fract_x
  _atom_site_fract_y
  _atom_site_fract_z
  _atom_site_thermal_displace_type
  _atom_site_B_iso_or_equiv
  _atom_site_type_symbol
  Cu1      1.0000 0.26680  0.32716  0.20298  Biso   1.000  Cu
  Cu2      1.0000 0.62418  0.06382  0.29702  Biso   1.000  Cu
  Cu3      1.0000 0.87582  0.17284  0.43964  Biso   1.000  Cu
  Cu4      1.0000 0.23320  0.43618  0.06036  Biso   1.000  Cu
  Cu5      1.0000 0.93964  0.87582  0.67284  Biso   1.000  Cu
  Cu6      1.0000 0.56036  0.23320  0.93618  Biso   1.000  Cu
  Cu7      1.0000 0.70298  0.26680  0.82716  Biso   1.000  Cu
  Cu8      1.0000 0.79702  0.62418  0.56382  Biso   1.000  Cu
  Cu9      1.0000 0.06382  0.79702  0.12418  Biso   1.000  Cu
  Cu10     1.0000 0.32716  0.70298  0.76680  Biso   1.000  Cu
  Cu11     1.0000 0.43618  0.56036  0.73320  Biso   1.000  Cu
  Cu12     1.0000 0.17284  0.93964  0.37582  Biso   1.000  Cu
  Cu13     1.0000 0.56382  0.12418  0.79702  Biso   1.000  Cu
  Cu14     1.0000 0.82716  0.76680  0.70298  Biso   1.000  Cu
  Cu15     1.0000 0.93618  0.73320  0.56036  Biso   1.000  Cu
  Cu16     1.0000 0.67284  0.37582  0.93964  Biso   1.000  Cu
  Cu17     1.0000 0.76680  0.20298  0.32716  Biso   1.000  Cu
  Cu18     1.0000 0.12418  0.29702  0.06382  Biso   1.000  Cu
  Cu19     1.0000 0.37582  0.43964  0.17284  Biso   1.000  Cu
  Cu20     1.0000 0.73320  0.06036  0.43618  Biso   1.000  Cu
  Cu21     1.0000 0.43964  0.67284  0.87582  Biso   1.000  Cu
  Cu22     1.0000 0.06036  0.93618  0.23320  Biso   1.000  Cu
  Cu23     1.0000 0.20298  0.82716  0.26680  Biso   1.000  Cu
  Cu24     1.0000 0.29702  0.56382  0.62418  Biso   1.000  Cu
  Cu25     1.0000 0.25000  0.28628  0.03628  Biso   1.000  Cu
  Cu26     1.0000 0.75000  0.21372  0.46372  Biso   1.000  Cu
  Cu27     1.0000 0.96372  0.75000  0.71372  Biso   1.000  Cu
  Cu28     1.0000 0.53628  0.25000  0.78628  Biso   1.000  Cu
  Cu29     1.0000 0.21372  0.96372  0.25000  Biso   1.000  Cu
  Cu30     1.0000 0.28628  0.53628  0.75000  Biso   1.000  Cu
  Cu31     1.0000 0.71372  0.25000  0.96372  Biso   1.000  Cu
  Cu32     1.0000 0.78628  0.75000  0.53628  Biso   1.000  Cu
  Cu33     1.0000 0.75000  0.03628  0.28628  Biso   1.000  Cu
  Cu34     1.0000 0.25000  0.46372  0.21372  Biso   1.000  Cu
  Cu35     1.0000 0.46372  0.71372  0.75000  Biso   1.000  Cu
  Cu36     1.0000 0.03628  0.78628  0.25000  Biso   1.000  Cu
  H1       1.0000 0.41300  0.42300  0.32620  Biso   1.000  H
  H2       1.0000 0.24360  0.36640  0.31420  Biso   1.000  H
  H3       1.0000 0.32440  0.43360  0.42660  Biso   1.000  H
  H4       1.0000 0.27060  0.34100  0.94480  Biso   1.000  H
  H5       1.0000 0.32730  0.23000  0.99290  Biso   1.000  H
  H6       1.0000 0.36550  0.24840  0.92150  Biso   1.000  H
  H7       1.0000 0.59680  0.08680  0.17380  Biso   1.000  H
  H8       1.0000 0.55220  0.92940  0.18580  Biso   1.000  H
  H9       1.0000 0.50700  0.89780  0.07340  Biso   1.000  H
  H10      1.0000 0.89620  0.32580  0.55520  Biso   1.000  H
  H11      1.0000 0.73710  0.33440  0.50710  Biso   1.000  H
  H12      1.0000 0.82690  0.44400  0.57850  Biso   1.000  H
  H13      1.0000 0.90320  0.07700  0.49000  Biso   1.000  H
  H14      1.0000 0.94780  0.13360  0.37720  Biso   1.000  H
  H15      1.0000 0.99300  0.06640  0.39080  Biso   1.000  H
  H16      1.0000 0.60380  0.15900  0.42960  Biso   1.000  H
  H17      1.0000 0.76290  0.27000  0.59730  Biso   1.000  H
  H18      1.0000 0.67310  0.25160  0.61710  Biso   1.000  H
  H19      1.0000 0.08700  0.41320  0.01000  Biso   1.000  H
  H20      1.0000 0.25640  0.57060  0.12280  Biso   1.000  H
  H21      1.0000 0.17560  0.60220  0.10920  Biso   1.000  H
  H22      1.0000 0.22940  0.17420  0.07040  Biso   1.000  H
  H23      1.0000 0.17270  0.16560  0.90270  Biso   1.000  H
  H24      1.0000 0.13450  0.05600  0.88290  Biso   1.000  H
  H25      1.0000 0.99000  0.90320  0.57700  Biso   1.000  H
  H26      1.0000 0.87720  0.94780  0.63360  Biso   1.000  H
  H27      1.0000 0.89080  0.99300  0.56640  Biso   1.000  H
  H28      1.0000 0.92960  0.60380  0.65900  Biso   1.000  H
  H29      1.0000 0.09730  0.76290  0.77000  Biso   1.000  H
  H30      1.0000 0.11710  0.67310  0.75160  Biso   1.000  H
  H31      1.0000 0.51000  0.08700  0.91320  Biso   1.000  H
  H32      1.0000 0.62280  0.25640  0.07060  Biso   1.000  H
  H33      1.0000 0.60920  0.17560  0.10220  Biso   1.000  H
  H34      1.0000 0.57040  0.22940  0.67420  Biso   1.000  H
  H35      1.0000 0.40270  0.17270  0.66560  Biso   1.000  H
  H36      1.0000 0.38290  0.13450  0.55600  Biso   1.000  H
  H37      1.0000 0.82620  0.41300  0.92300  Biso   1.000  H
  H38      1.0000 0.81420  0.24360  0.86640  Biso   1.000  H
  H39      1.0000 0.92660  0.32440  0.93360  Biso   1.000  H
  H40      1.0000 0.44480  0.27060  0.84100  Biso   1.000  H
  H41      1.0000 0.49290  0.32730  0.73000  Biso   1.000  H
  H42      1.0000 0.42150  0.36550  0.74840  Biso   1.000  H
  H43      1.0000 0.67380  0.59680  0.58680  Biso   1.000  H
  H44      1.0000 0.68580  0.55220  0.42940  Biso   1.000  H
  H45      1.0000 0.57340  0.50700  0.39780  Biso   1.000  H
  H46      1.0000 0.05520  0.89620  0.82580  Biso   1.000  H
  H47      1.0000 0.00710  0.73710  0.83440  Biso   1.000  H
  H48      1.0000 0.07850  0.82690  0.94400  Biso   1.000  H
  H49      1.0000 0.08680  0.67380  0.09680  Biso   1.000  H
  H50      1.0000 0.92940  0.68580  0.05220  Biso   1.000  H
  H51      1.0000 0.89780  0.57340  0.00700  Biso   1.000  H
  H52      1.0000 0.32580  0.05520  0.39620  Biso   1.000  H
  H53      1.0000 0.33440  0.00710  0.23710  Biso   1.000  H
  H54      1.0000 0.44400  0.07850  0.32690  Biso   1.000  H
  H55      1.0000 0.42300  0.82620  0.91300  Biso   1.000  H
  H56      1.0000 0.36640  0.81420  0.74360  Biso   1.000  H
  H57      1.0000 0.43360  0.92660  0.82440  Biso   1.000  H
  H58      1.0000 0.34100  0.44480  0.77060  Biso   1.000  H
  H59      1.0000 0.23000  0.49290  0.82730  Biso   1.000  H
  H60      1.0000 0.24840  0.42150  0.86550  Biso   1.000  H
  H61      1.0000 0.41320  0.51000  0.58700  Biso   1.000  H
  H62      1.0000 0.57060  0.62280  0.75640  Biso   1.000  H
  H63      1.0000 0.60220  0.60920  0.67560  Biso   1.000  H
  H64      1.0000 0.17420  0.57040  0.72940  Biso   1.000  H
  H65      1.0000 0.16560  0.40270  0.67270  Biso   1.000  H
  H66      1.0000 0.05600  0.38290  0.63450  Biso   1.000  H
  H67      1.0000 0.07700  0.99000  0.40320  Biso   1.000  H
  H68      1.0000 0.13360  0.87720  0.44780  Biso   1.000  H
  H69      1.0000 0.06640  0.89080  0.49300  Biso   1.000  H
  H70      1.0000 0.15900  0.92960  0.10380  Biso   1.000  H
  H71      1.0000 0.27000  0.09730  0.26290  Biso   1.000  H
  H72      1.0000 0.25160  0.11710  0.17310  Biso   1.000  H
  H73      1.0000 0.58680  0.09680  0.67380  Biso   1.000  H
  H74      1.0000 0.42940  0.05220  0.68580  Biso   1.000  H
  H75      1.0000 0.39780  0.00700  0.57340  Biso   1.000  H
  H76      1.0000 0.82580  0.39620  0.05520  Biso   1.000  H
  H77      1.0000 0.83440  0.23710  0.00710  Biso   1.000  H
  H78      1.0000 0.94400  0.32690  0.07850  Biso   1.000  H
  H79      1.0000 0.92300  0.91300  0.82620  Biso   1.000  H
  H80      1.0000 0.86640  0.74360  0.81420  Biso   1.000  H
  H81      1.0000 0.93360  0.82440  0.92660  Biso   1.000  H
  H82      1.0000 0.84100  0.77060  0.44480  Biso   1.000  H
  H83      1.0000 0.73000  0.82730  0.49290  Biso   1.000  H
  H84      1.0000 0.74840  0.86550  0.42150  Biso   1.000  H
  H85      1.0000 0.91320  0.58700  0.51000  Biso   1.000  H
  H86      1.0000 0.07060  0.75640  0.62280  Biso   1.000  H
  H87      1.0000 0.10220  0.67560  0.60920  Biso   1.000  H
  H88      1.0000 0.67420  0.72940  0.57040  Biso   1.000  H
  H89      1.0000 0.66560  0.67270  0.40270  Biso   1.000  H
  H90      1.0000 0.55600  0.63450  0.38290  Biso   1.000  H
  H91      1.0000 0.57700  0.40320  0.99000  Biso   1.000  H
  H92      1.0000 0.63360  0.44780  0.87720  Biso   1.000  H
  H93      1.0000 0.56640  0.49300  0.89080  Biso   1.000  H
  H94      1.0000 0.65900  0.10380  0.92960  Biso   1.000  H
  H95      1.0000 0.77000  0.26290  0.09730  Biso   1.000  H
  H96      1.0000 0.75160  0.17310  0.11710  Biso   1.000  H
  H97      1.0000 0.91300  0.32620  0.42300  Biso   1.000  H
  H98      1.0000 0.74360  0.31420  0.36640  Biso   1.000  H
  H99      1.0000 0.82440  0.42660  0.43360  Biso   1.000  H
  H100     1.0000 0.77060  0.94480  0.34100  Biso   1.000  H
  H101     1.0000 0.82730  0.99290  0.23000  Biso   1.000  H
  H102     1.0000 0.86550  0.92150  0.24840  Biso   1.000  H
  H103     1.0000 0.09680  0.17380  0.08680  Biso   1.000  H
  H104     1.0000 0.05220  0.18580  0.92940  Biso   1.000  H
  H105     1.0000 0.00700  0.07340  0.89780  Biso   1.000  H
  H106     1.0000 0.39620  0.55520  0.32580  Biso   1.000  H
  H107     1.0000 0.23710  0.50710  0.33440  Biso   1.000  H
  H108     1.0000 0.32690  0.57850  0.44400  Biso   1.000  H
  H109     1.0000 0.40320  0.49000  0.07700  Biso   1.000  H
  H110     1.0000 0.44780  0.37720  0.13360  Biso   1.000  H
  H111     1.0000 0.49300  0.39080  0.06640  Biso   1.000  H
  H112     1.0000 0.10380  0.42960  0.15900  Biso   1.000  H
  H113     1.0000 0.26290  0.59730  0.27000  Biso   1.000  H
  H114     1.0000 0.17310  0.61710  0.25160  Biso   1.000  H
  H115     1.0000 0.58700  0.01000  0.41320  Biso   1.000  H
  H116     1.0000 0.75640  0.12280  0.57060  Biso   1.000  H
  H117     1.0000 0.67560  0.10920  0.60220  Biso   1.000  H
  H118     1.0000 0.72940  0.07040  0.17420  Biso   1.000  H
  H119     1.0000 0.67270  0.90270  0.16560  Biso   1.000  H
  H120     1.0000 0.63450  0.88290  0.05600  Biso   1.000  H
  H121     1.0000 0.49000  0.57700  0.90320  Biso   1.000  H
  H122     1.0000 0.37720  0.63360  0.94780  Biso   1.000  H
  H123     1.0000 0.39080  0.56640  0.99300  Biso   1.000  H
  H124     1.0000 0.42960  0.65900  0.60380  Biso   1.000  H
  H125     1.0000 0.59730  0.77000  0.76290  Biso   1.000  H
  H126     1.0000 0.61710  0.75160  0.67310  Biso   1.000  H
  H127     1.0000 0.01000  0.91320  0.08700  Biso   1.000  H
  H128     1.0000 0.12280  0.07060  0.25640  Biso   1.000  H
  H129     1.0000 0.10920  0.10220  0.17560  Biso   1.000  H
  H130     1.0000 0.07040  0.67420  0.22940  Biso   1.000  H
  H131     1.0000 0.90270  0.66560  0.17270  Biso   1.000  H
  H132     1.0000 0.88290  0.55600  0.13450  Biso   1.000  H
  H133     1.0000 0.32620  0.92300  0.41300  Biso   1.000  H
  H134     1.0000 0.31420  0.86640  0.24360  Biso   1.000  H
  H135     1.0000 0.42660  0.93360  0.32440  Biso   1.000  H
  H136     1.0000 0.94480  0.84100  0.27060  Biso   1.000  H
  H137     1.0000 0.99290  0.73000  0.32730  Biso   1.000  H
  H138     1.0000 0.92150  0.74840  0.36550  Biso   1.000  H
  H139     1.0000 0.17380  0.58680  0.59680  Biso   1.000  H
  H140     1.0000 0.18580  0.42940  0.55220  Biso   1.000  H
  H141     1.0000 0.07340  0.39780  0.50700  Biso   1.000  H
  H142     1.0000 0.55520  0.82580  0.89620  Biso   1.000  H
  H143     1.0000 0.50710  0.83440  0.73710  Biso   1.000  H
  H144     1.0000 0.57850  0.94400  0.82690  Biso   1.000  H
  W1       1.0000 0.25000  0.37500  0.12500  Biso   1.000  W
  W2       1.0000 0.75000  0.12500  0.37500  Biso   1.000  W
  W3       1.0000 0.87500  0.75000  0.62500  Biso   1.000  W
  W4       1.0000 0.62500  0.25000  0.87500  Biso   1.000  W
  W5       1.0000 0.12500  0.87500  0.25000  Biso   1.000  W
  W6       1.0000 0.37500  0.62500  0.75000  Biso   1.000  W
  C1       1.0000 0.38210  0.41750  0.33700  Biso   1.000  C
  C2       1.0000 0.28630  0.38550  0.33000  Biso   1.000  C
  C3       1.0000 0.33190  0.42330  0.39340  Biso   1.000  C
  C4       1.0000 0.44820  0.47820  0.45040  Biso   1.000  C
  C5       1.0000 0.28890  0.31660  0.94790  Biso   1.000  C
  C6       1.0000 0.32120  0.25401  0.97501  Biso   1.000  C
  C7       1.0000 0.34240  0.26400  0.93440  Biso   1.000  C
  C8       1.0000 0.33660  0.32980  0.88480  Biso   1.000  C
  C9       1.0000 0.58050  0.04510  0.16300  Biso   1.000  C
  C10      1.0000 0.55550  0.95630  0.17000  Biso   1.000  C
  C11      1.0000 0.52990  0.93850  0.10660  Biso   1.000  C
  C12      1.0000 0.52780  0.99780  0.04960  Biso   1.000  C
  C13      1.0000 0.86870  0.34100  0.55210  Biso   1.000  C
  C14      1.0000 0.77900  0.34619  0.52499  Biso   1.000  C
  C15      1.0000 0.82960  0.40800  0.56560  Biso   1.000  C
  C16      1.0000 0.94500  0.45180  0.61520  Biso   1.000  C
  C17      1.0000 0.91950  0.08250  0.46460  Biso   1.000  C
  C18      1.0000 0.94450  0.11450  0.40080  Biso   1.000  C
  C19      1.0000 0.97010  0.07670  0.40860  Biso   1.000  C
  C20      1.0000 0.97220  0.02180  0.47000  Biso   1.000  C
  C21      1.0000 0.63130  0.18340  0.47230  Biso   1.000  C
  C22      1.0000 0.72100  0.24599  0.56719  Biso   1.000  C
  C23      1.0000 0.67040  0.23600  0.57840  Biso   1.000  C
  C24      1.0000 0.55500  0.17020  0.50680  Biso   1.000  C
  C25      1.0000 0.11790  0.45490  0.03540  Biso   1.000  C
  C26      1.0000 0.21370  0.54370  0.09920  Biso   1.000  C
  C27      1.0000 0.16810  0.56150  0.09140  Biso   1.000  C
  C28      1.0000 0.05180  0.50220  0.03000  Biso   1.000  C
  C29      1.0000 0.21110  0.15900  0.02770  Biso   1.000  C
  C30      1.0000 0.17880  0.15381  0.93281  Biso   1.000  C
  C31      1.0000 0.15760  0.09200  0.92160  Biso   1.000  C
  C32      1.0000 0.16340  0.04820  0.99320  Biso   1.000  C
  C33      1.0000 0.96460  0.91950  0.58250  Biso   1.000  C
  C34      1.0000 0.90080  0.94450  0.61450  Biso   1.000  C
  C35      1.0000 0.90860  0.97010  0.57670  Biso   1.000  C
  C36      1.0000 0.97000  0.97220  0.52180  Biso   1.000  C
  C37      1.0000 0.97230  0.63130  0.68340  Biso   1.000  C
  C38      1.0000 0.06719  0.72100  0.74599  Biso   1.000  C
  C39      1.0000 0.07840  0.67040  0.73600  Biso   1.000  C
  C40      1.0000 0.00680  0.55500  0.67020  Biso   1.000  C
  C41      1.0000 0.53540  0.11790  0.95490  Biso   1.000  C
  C42      1.0000 0.59920  0.21370  0.04370  Biso   1.000  C
  C43      1.0000 0.59140  0.16810  0.06150  Biso   1.000  C
  C44      1.0000 0.53000  0.05180  0.00220  Biso   1.000  C
  C45      1.0000 0.52770  0.21110  0.65900  Biso   1.000  C
  C46      1.0000 0.43281  0.17880  0.65381  Biso   1.000  C
  C47      1.0000 0.42160  0.15760  0.59200  Biso   1.000  C
  C48      1.0000 0.49320  0.16340  0.54820  Biso   1.000  C
  C49      1.0000 0.83700  0.38210  0.91750  Biso   1.000  C
  C50      1.0000 0.83000  0.28630  0.88550  Biso   1.000  C
  C51      1.0000 0.89340  0.33190  0.92330  Biso   1.000  C
  C52      1.0000 0.95040  0.44820  0.97820  Biso   1.000  C
  C53      1.0000 0.44790  0.28890  0.81660  Biso   1.000  C
  C54      1.0000 0.47501  0.32120  0.75401  Biso   1.000  C
  C55      1.0000 0.43440  0.34240  0.76400  Biso   1.000  C
  C56      1.0000 0.38480  0.33660  0.82980  Biso   1.000  C
  C57      1.0000 0.66300  0.58050  0.54510  Biso   1.000  C
  C58      1.0000 0.67000  0.55550  0.45630  Biso   1.000  C
  C59      1.0000 0.60660  0.52990  0.43850  Biso   1.000  C
  C60      1.0000 0.54960  0.52780  0.49780  Biso   1.000  C
  C61      1.0000 0.05210  0.86870  0.84100  Biso   1.000  C
  C62      1.0000 0.02499  0.77900  0.84619  Biso   1.000  C
  C63      1.0000 0.06560  0.82960  0.90800  Biso   1.000  C
  C64      1.0000 0.11520  0.94500  0.95180  Biso   1.000  C
  C65      1.0000 0.04510  0.66300  0.08050  Biso   1.000  C
  C66      1.0000 0.95630  0.67000  0.05550  Biso   1.000  C
  C67      1.0000 0.93850  0.60660  0.02990  Biso   1.000  C
  C68      1.0000 0.99780  0.54960  0.02780  Biso   1.000  C
  C69      1.0000 0.34100  0.05210  0.36870  Biso   1.000  C
  C70      1.0000 0.34619  0.02499  0.27900  Biso   1.000  C
  C71      1.0000 0.40800  0.06560  0.32960  Biso   1.000  C
  C72      1.0000 0.45180  0.11520  0.44500  Biso   1.000  C
  C73      1.0000 0.41750  0.83700  0.88210  Biso   1.000  C
  C74      1.0000 0.38550  0.83000  0.78630  Biso   1.000  C
  C75      1.0000 0.42330  0.89340  0.83190  Biso   1.000  C
  C76      1.0000 0.47820  0.95040  0.94820  Biso   1.000  C
  C77      1.0000 0.31660  0.44790  0.78890  Biso   1.000  C
  C78      1.0000 0.25401  0.47501  0.82120  Biso   1.000  C
  C79      1.0000 0.26400  0.43440  0.84240  Biso   1.000  C
  C80      1.0000 0.32980  0.38480  0.83660  Biso   1.000  C
  C81      1.0000 0.45490  0.53540  0.61790  Biso   1.000  C
  C82      1.0000 0.54370  0.59920  0.71370  Biso   1.000  C
  C83      1.0000 0.56150  0.59140  0.66810  Biso   1.000  C
  C84      1.0000 0.50220  0.53000  0.55180  Biso   1.000  C
  C85      1.0000 0.15900  0.52770  0.71110  Biso   1.000  C
  C86      1.0000 0.15381  0.43281  0.67880  Biso   1.000  C
  C87      1.0000 0.09200  0.42160  0.65760  Biso   1.000  C
  C88      1.0000 0.04820  0.49320  0.66340  Biso   1.000  C
  C89      1.0000 0.08250  0.96460  0.41950  Biso   1.000  C
  C90      1.0000 0.11450  0.90080  0.44450  Biso   1.000  C
  C91      1.0000 0.07670  0.90860  0.47010  Biso   1.000  C
  C92      1.0000 0.02180  0.97000  0.47220  Biso   1.000  C
  C93      1.0000 0.18340  0.97230  0.13130  Biso   1.000  C
  C94      1.0000 0.24599  0.06719  0.22100  Biso   1.000  C
  C95      1.0000 0.23600  0.07840  0.17040  Biso   1.000  C
  C96      1.0000 0.17020  0.00680  0.05500  Biso   1.000  C
  C97      1.0000 0.54510  0.08050  0.66300  Biso   1.000  C
  C98      1.0000 0.45630  0.05550  0.67000  Biso   1.000  C
  C99      1.0000 0.43850  0.02990  0.60660  Biso   1.000  C
  C100     1.0000 0.49780  0.02780  0.54960  Biso   1.000  C
  C101     1.0000 0.84100  0.36870  0.05210  Biso   1.000  C
  C102     1.0000 0.84619  0.27900  0.02499  Biso   1.000  C
  C103     1.0000 0.90800  0.32960  0.06560  Biso   1.000  C
  C104     1.0000 0.95180  0.44500  0.11520  Biso   1.000  C
  C105     1.0000 0.91750  0.88210  0.83700  Biso   1.000  C
  C106     1.0000 0.88550  0.78630  0.83000  Biso   1.000  C
  C107     1.0000 0.92330  0.83190  0.89340  Biso   1.000  C
  C108     1.0000 0.97820  0.94820  0.95040  Biso   1.000  C
  C109     1.0000 0.81660  0.78890  0.44790  Biso   1.000  C
  C110     1.0000 0.75401  0.82120  0.47501  Biso   1.000  C
  C111     1.0000 0.76400  0.84240  0.43440  Biso   1.000  C
  C112     1.0000 0.82980  0.83660  0.38480  Biso   1.000  C
  C113     1.0000 0.95490  0.61790  0.53540  Biso   1.000  C
  C114     1.0000 0.04370  0.71370  0.59920  Biso   1.000  C
  C115     1.0000 0.06150  0.66810  0.59140  Biso   1.000  C
  C116     1.0000 0.00220  0.55180  0.53000  Biso   1.000  C
  C117     1.0000 0.65900  0.71110  0.52770  Biso   1.000  C
  C118     1.0000 0.65381  0.67880  0.43281  Biso   1.000  C
  C119     1.0000 0.59200  0.65760  0.42160  Biso   1.000  C
  C120     1.0000 0.54820  0.66340  0.49320  Biso   1.000  C
  C121     1.0000 0.58250  0.41950  0.96460  Biso   1.000  C
  C122     1.0000 0.61450  0.44450  0.90080  Biso   1.000  C
  C123     1.0000 0.57670  0.47010  0.90860  Biso   1.000  C
  C124     1.0000 0.52180  0.47220  0.97000  Biso   1.000  C
  C125     1.0000 0.68340  0.13130  0.97230  Biso   1.000  C
  C126     1.0000 0.74599  0.22100  0.06719  Biso   1.000  C
  C127     1.0000 0.73600  0.17040  0.07840  Biso   1.000  C
  C128     1.0000 0.67020  0.05500  0.00680  Biso   1.000  C
  C129     1.0000 0.88210  0.33700  0.41750  Biso   1.000  C
  C130     1.0000 0.78630  0.33000  0.38550  Biso   1.000  C
  C131     1.0000 0.83190  0.39340  0.42330  Biso   1.000  C
  C132     1.0000 0.94820  0.45040  0.47820  Biso   1.000  C
  C133     1.0000 0.78890  0.94790  0.31660  Biso   1.000  C
  C134     1.0000 0.82120  0.97501  0.25401  Biso   1.000  C
  C135     1.0000 0.84240  0.93440  0.26400  Biso   1.000  C
  C136     1.0000 0.83660  0.88480  0.32980  Biso   1.000  C
  C137     1.0000 0.08050  0.16300  0.04510  Biso   1.000  C
  C138     1.0000 0.05550  0.17000  0.95630  Biso   1.000  C
  C139     1.0000 0.02990  0.10660  0.93850  Biso   1.000  C
  C140     1.0000 0.02780  0.04960  0.99780  Biso   1.000  C
  C141     1.0000 0.36870  0.55210  0.34100  Biso   1.000  C
  C142     1.0000 0.27900  0.52499  0.34619  Biso   1.000  C
  C143     1.0000 0.32960  0.56560  0.40800  Biso   1.000  C
  C144     1.0000 0.44500  0.61520  0.45180  Biso   1.000  C
  C145     1.0000 0.41950  0.46460  0.08250  Biso   1.000  C
  C146     1.0000 0.44450  0.40080  0.11450  Biso   1.000  C
  C147     1.0000 0.47010  0.40860  0.07670  Biso   1.000  C
  C148     1.0000 0.47220  0.47000  0.02180  Biso   1.000  C
  C149     1.0000 0.13130  0.47230  0.18340  Biso   1.000  C
  C150     1.0000 0.22100  0.56719  0.24599  Biso   1.000  C
  C151     1.0000 0.17040  0.57840  0.23600  Biso   1.000  C
  C152     1.0000 0.05500  0.50680  0.17020  Biso   1.000  C
  C153     1.0000 0.61790  0.03540  0.45490  Biso   1.000  C
  C154     1.0000 0.71370  0.09920  0.54370  Biso   1.000  C
  C155     1.0000 0.66810  0.09140  0.56150  Biso   1.000  C
  C156     1.0000 0.55180  0.03000  0.50220  Biso   1.000  C
  C157     1.0000 0.71110  0.02770  0.15900  Biso   1.000  C
  C158     1.0000 0.67880  0.93281  0.15381  Biso   1.000  C
  C159     1.0000 0.65760  0.92160  0.09200  Biso   1.000  C
  C160     1.0000 0.66340  0.99320  0.04820  Biso   1.000  C
  C161     1.0000 0.46460  0.58250  0.91950  Biso   1.000  C
  C162     1.0000 0.40080  0.61450  0.94450  Biso   1.000  C
  C163     1.0000 0.40860  0.57670  0.97010  Biso   1.000  C
  C164     1.0000 0.47000  0.52180  0.97220  Biso   1.000  C
  C165     1.0000 0.47230  0.68340  0.63130  Biso   1.000  C
  C166     1.0000 0.56719  0.74599  0.72100  Biso   1.000  C
  C167     1.0000 0.57840  0.73600  0.67040  Biso   1.000  C
  C168     1.0000 0.50680  0.67020  0.55500  Biso   1.000  C
  C169     1.0000 0.03540  0.95490  0.11790  Biso   1.000  C
  C170     1.0000 0.09920  0.04370  0.21370  Biso   1.000  C
  C171     1.0000 0.09140  0.06150  0.16810  Biso   1.000  C
  C172     1.0000 0.03000  0.00220  0.05180  Biso   1.000  C
  C173     1.0000 0.02770  0.65900  0.21110  Biso   1.000  C
  C174     1.0000 0.93281  0.65381  0.17880  Biso   1.000  C
  C175     1.0000 0.92160  0.59200  0.15760  Biso   1.000  C
  C176     1.0000 0.99320  0.54820  0.16340  Biso   1.000  C
  C177     1.0000 0.33700  0.91750  0.38210  Biso   1.000  C
  C178     1.0000 0.33000  0.88550  0.28630  Biso   1.000  C
  C179     1.0000 0.39340  0.92330  0.33190  Biso   1.000  C
  C180     1.0000 0.45040  0.97820  0.44820  Biso   1.000  C
  C181     1.0000 0.94790  0.81660  0.28890  Biso   1.000  C
  C182     1.0000 0.97501  0.75401  0.32120  Biso   1.000  C
  C183     1.0000 0.93440  0.76400  0.34240  Biso   1.000  C
  C184     1.0000 0.88480  0.82980  0.33660  Biso   1.000  C
  C185     1.0000 0.16300  0.54510  0.58050  Biso   1.000  C
  C186     1.0000 0.17000  0.45630  0.55550  Biso   1.000  C
  C187     1.0000 0.10660  0.43850  0.52990  Biso   1.000  C
  C188     1.0000 0.04960  0.49780  0.52780  Biso   1.000  C
  C189     1.0000 0.55210  0.84100  0.86870  Biso   1.000  C
  C190     1.0000 0.52499  0.84619  0.77900  Biso   1.000  C
  C191     1.0000 0.56560  0.90800  0.82960  Biso   1.000  C
  C192     1.0000 0.61520  0.95180  0.94500  Biso   1.000  C
  S1       1.0000 0.31471  0.33624  0.14321  Biso   1.000  S
  S2       1.0000 0.69303  0.17150  0.35679  Biso   1.000  S
  S3       1.0000 0.80697  0.16376  0.47847  Biso   1.000  S
  S4       1.0000 0.18529  0.32850  0.02153  Biso   1.000  S
  S5       1.0000 0.97847  0.80697  0.66376  Biso   1.000  S
  S6       1.0000 0.52153  0.18529  0.82850  Biso   1.000  S
  S7       1.0000 0.64321  0.31471  0.83624  Biso   1.000  S
  S8       1.0000 0.85679  0.69303  0.67150  Biso   1.000  S
  S9       1.0000 0.17150  0.85679  0.19303  Biso   1.000  S
  S10      1.0000 0.33624  0.64321  0.81471  Biso   1.000  S
  S11      1.0000 0.32850  0.52153  0.68529  Biso   1.000  S
  S12      1.0000 0.16376  0.97847  0.30697  Biso   1.000  S
  S13      1.0000 0.67150  0.19303  0.85679  Biso   1.000  S
  S14      1.0000 0.83624  0.81471  0.64321  Biso   1.000  S
  S15      1.0000 0.82850  0.68529  0.52153  Biso   1.000  S
  S16      1.0000 0.66376  0.30697  0.97847  Biso   1.000  S
  S17      1.0000 0.81471  0.14321  0.33624  Biso   1.000  S
  S18      1.0000 0.19303  0.35679  0.17150  Biso   1.000  S
  S19      1.0000 0.30697  0.47847  0.16376  Biso   1.000  S
  S20      1.0000 0.68529  0.02153  0.32850  Biso   1.000  S
  S21      1.0000 0.47847  0.66376  0.80697  Biso   1.000  S
  S22      1.0000 0.02153  0.82850  0.18529  Biso   1.000  S
  S23      1.0000 0.14321  0.83624  0.31471  Biso   1.000  S
  S24      1.0000 0.35679  0.67150  0.69303  Biso   1.000  S
  I1       1.0000 0.21913  0.21984  0.19303  Biso   1.000  I
  I2       1.0000 0.52681  0.02610  0.30697  Biso   1.000  I
  I3       1.0000 0.97319  0.28016  0.49929  Biso   1.000  I
  I4       1.0000 0.28087  0.47390  0.00071  Biso   1.000  I
  I5       1.0000 0.99929  0.97319  0.78016  Biso   1.000  I
  I6       1.0000 0.50071  0.28087  0.97390  Biso   1.000  I
  I7       1.0000 0.69303  0.21913  0.71984  Biso   1.000  I
  I8       1.0000 0.80697  0.52681  0.52610  Biso   1.000  I
  I9       1.0000 0.02610  0.80697  0.02681  Biso   1.000  I
  I10      1.0000 0.21984  0.69303  0.71913  Biso   1.000  I
  I11      1.0000 0.47390  0.50071  0.78087  Biso   1.000  I
  I12      1.0000 0.28016  0.99929  0.47319  Biso   1.000  I
  I13      1.0000 0.52610  0.02681  0.80697  Biso   1.000  I
  I14      1.0000 0.71984  0.71913  0.69303  Biso   1.000  I
  I15      1.0000 0.97390  0.78087  0.50071  Biso   1.000  I
  I16      1.0000 0.78016  0.47319  0.99929  Biso   1.000  I
  I17      1.0000 0.71913  0.19303  0.21984  Biso   1.000  I
  I18      1.0000 0.02681  0.30697  0.02610  Biso   1.000  I
  I19      1.0000 0.47319  0.49929  0.28016  Biso   1.000  I
  I20      1.0000 0.78087  0.00071  0.47390  Biso   1.000  I
  I21      1.0000 0.49929  0.78016  0.97319  Biso   1.000  I
  I22      1.0000 0.00071  0.97390  0.28087  Biso   1.000  I
  I23      1.0000 0.19303  0.71984  0.21913  Biso   1.000  I
  I24      1.0000 0.30697  0.52610  0.52681  Biso   1.000  I
  N1       1.0000 0.31621  0.38166  0.29453  Biso   1.000  N
  N2       1.0000 0.39173  0.44308  0.39837  Biso   1.000  N
  N3       1.0000 0.49498  0.49174  0.43844  Biso   1.000  N
  N4       1.0000 0.28909  0.28703  0.98356  Biso   1.000  N
  N5       1.0000 0.32194  0.30213  0.91713  Biso   1.000  N
  N6       1.0000 0.31430  0.36760  0.87430  Biso   1.000  N
  N7       1.0000 0.58713  0.02168  0.20547  Biso   1.000  N
  N8       1.0000 0.54471  0.99336  0.10163  Biso   1.000  N
  N9       1.0000 0.55330  0.05654  0.06156  Biso   1.000  N
  N10      1.0000 0.80347  0.30553  0.51644  Biso   1.000  N
  N11      1.0000 0.88500  0.40481  0.58287  Biso   1.000  N
  N12      1.0000 0.99330  0.44000  0.62570  Biso   1.000  N
  N13      1.0000 0.91287  0.11834  0.43455  Biso   1.000  N
  N14      1.0000 0.95529  0.05692  0.44865  Biso   1.000  N
  N15      1.0000 0.94670  0.00826  0.50324  Biso   1.000  N
  N16      1.0000 0.69653  0.21297  0.50206  Biso   1.000  N
  N17      1.0000 0.61500  0.19787  0.51981  Biso   1.000  N
  N18      1.0000 0.50670  0.13240  0.44670  Biso   1.000  N
  N19      1.0000 0.18379  0.47832  0.06545  Biso   1.000  N
  N20      1.0000 0.10827  0.50664  0.05135  Biso   1.000  N
  N21      1.0000 0.00502  0.44346  0.99676  Biso   1.000  N
  N22      1.0000 0.21091  0.19447  0.99794  Biso   1.000  N
  N23      1.0000 0.17806  0.09519  0.98019  Biso   1.000  N
  N24      1.0000 0.18570  0.06000  0.05330  Biso   1.000  N
  N25      1.0000 0.93455  0.91287  0.61834  Biso   1.000  N
  N26      1.0000 0.94865  0.95529  0.55692  Biso   1.000  N
  N27      1.0000 0.00324  0.94670  0.50826  Biso   1.000  N
  N28      1.0000 0.00206  0.69653  0.71297  Biso   1.000  N
  N29      1.0000 0.01981  0.61500  0.69787  Biso   1.000  N
  N30      1.0000 0.94670  0.50670  0.63240  Biso   1.000  N
  N31      1.0000 0.56545  0.18379  0.97832  Biso   1.000  N
  N32      1.0000 0.55135  0.10827  0.00664  Biso   1.000  N
  N33      1.0000 0.49676  0.00502  0.94346  Biso   1.000  N
  N34      1.0000 0.49794  0.21091  0.69447  Biso   1.000  N
  N35      1.0000 0.48019  0.17806  0.59519  Biso   1.000  N
  N36      1.0000 0.55330  0.18570  0.56000  Biso   1.000  N
  N37      1.0000 0.79453  0.31621  0.88166  Biso   1.000  N
  N38      1.0000 0.89837  0.39173  0.94308  Biso   1.000  N
  N39      1.0000 0.93844  0.49498  0.99174  Biso   1.000  N
  N40      1.0000 0.48356  0.28909  0.78703  Biso   1.000  N
  N41      1.0000 0.41713  0.32194  0.80213  Biso   1.000  N
  N42      1.0000 0.37430  0.31430  0.86760  Biso   1.000  N
  N43      1.0000 0.70547  0.58713  0.52168  Biso   1.000  N
  N44      1.0000 0.60163  0.54471  0.49336  Biso   1.000  N
  N45      1.0000 0.56156  0.55330  0.55654  Biso   1.000  N
  N46      1.0000 0.01644  0.80347  0.80553  Biso   1.000  N
  N47      1.0000 0.08287  0.88500  0.90481  Biso   1.000  N
  N48      1.0000 0.12570  0.99330  0.94000  Biso   1.000  N
  N49      1.0000 0.02168  0.70547  0.08713  Biso   1.000  N
  N50      1.0000 0.99336  0.60163  0.04471  Biso   1.000  N
  N51      1.0000 0.05654  0.56156  0.05330  Biso   1.000  N
  N52      1.0000 0.30553  0.01644  0.30347  Biso   1.000  N
  N53      1.0000 0.40481  0.08287  0.38500  Biso   1.000  N
  N54      1.0000 0.44000  0.12570  0.49330  Biso   1.000  N
  N55      1.0000 0.38166  0.79453  0.81621  Biso   1.000  N
  N56      1.0000 0.44308  0.89837  0.89173  Biso   1.000  N
  N57      1.0000 0.49174  0.93844  0.99498  Biso   1.000  N
  N58      1.0000 0.28703  0.48356  0.78909  Biso   1.000  N
  N59      1.0000 0.30213  0.41713  0.82194  Biso   1.000  N
  N60      1.0000 0.36760  0.37430  0.81430  Biso   1.000  N
  N61      1.0000 0.47832  0.56545  0.68379  Biso   1.000  N
  N62      1.0000 0.50664  0.55135  0.60827  Biso   1.000  N
  N63      1.0000 0.44346  0.49676  0.50502  Biso   1.000  N
  N64      1.0000 0.19447  0.49794  0.71091  Biso   1.000  N
  N65      1.0000 0.09519  0.48019  0.67806  Biso   1.000  N
  N66      1.0000 0.06000  0.55330  0.68570  Biso   1.000  N
  N67      1.0000 0.11834  0.93455  0.41287  Biso   1.000  N
  N68      1.0000 0.05692  0.94865  0.45529  Biso   1.000  N
  N69      1.0000 0.00826  0.00324  0.44670  Biso   1.000  N
  N70      1.0000 0.21297  0.00206  0.19653  Biso   1.000  N
  N71      1.0000 0.19787  0.01981  0.11500  Biso   1.000  N
  N72      1.0000 0.13240  0.94670  0.00670  Biso   1.000  N
  N73      1.0000 0.52168  0.08713  0.70547  Biso   1.000  N
  N74      1.0000 0.49336  0.04471  0.60163  Biso   1.000  N
  N75      1.0000 0.55654  0.05330  0.56156  Biso   1.000  N
  N76      1.0000 0.80553  0.30347  0.01644  Biso   1.000  N
  N77      1.0000 0.90481  0.38500  0.08287  Biso   1.000  N
  N78      1.0000 0.94000  0.49330  0.12570  Biso   1.000  N
  N79      1.0000 0.88166  0.81621  0.79453  Biso   1.000  N
  N80      1.0000 0.94308  0.89173  0.89837  Biso   1.000  N
  N81      1.0000 0.99174  0.99498  0.93844  Biso   1.000  N
  N82      1.0000 0.78703  0.78909  0.48356  Biso   1.000  N
  N83      1.0000 0.80213  0.82194  0.41713  Biso   1.000  N
  N84      1.0000 0.86760  0.81430  0.37430  Biso   1.000  N
  N85      1.0000 0.97832  0.68379  0.56545  Biso   1.000  N
  N86      1.0000 0.00664  0.60827  0.55135  Biso   1.000  N
  N87      1.0000 0.94346  0.50502  0.49676  Biso   1.000  N
  N88      1.0000 0.69447  0.71091  0.49794  Biso   1.000  N
  N89      1.0000 0.59519  0.67806  0.48019  Biso   1.000  N
  N90      1.0000 0.56000  0.68570  0.55330  Biso   1.000  N
  N91      1.0000 0.61834  0.41287  0.93455  Biso   1.000  N
  N92      1.0000 0.55692  0.45529  0.94865  Biso   1.000  N
  N93      1.0000 0.50826  0.44670  0.00324  Biso   1.000  N
  N94      1.0000 0.71297  0.19653  0.00206  Biso   1.000  N
  N95      1.0000 0.69787  0.11500  0.01981  Biso   1.000  N
  N96      1.0000 0.63240  0.00670  0.94670  Biso   1.000  N
  N97      1.0000 0.81621  0.29453  0.38166  Biso   1.000  N
  N98      1.0000 0.89173  0.39837  0.44308  Biso   1.000  N
  N99      1.0000 0.99498  0.43844  0.49174  Biso   1.000  N
  N100     1.0000 0.78909  0.98356  0.28703  Biso   1.000  N
  N101     1.0000 0.82194  0.91713  0.30213  Biso   1.000  N
  N102     1.0000 0.81430  0.87430  0.36760  Biso   1.000  N
  N103     1.0000 0.08713  0.20547  0.02168  Biso   1.000  N
  N104     1.0000 0.04471  0.10163  0.99336  Biso   1.000  N
  N105     1.0000 0.05330  0.06156  0.05654  Biso   1.000  N
  N106     1.0000 0.30347  0.51644  0.30553  Biso   1.000  N
  N107     1.0000 0.38500  0.58287  0.40481  Biso   1.000  N
  N108     1.0000 0.49330  0.62570  0.44000  Biso   1.000  N
  N109     1.0000 0.41287  0.43455  0.11834  Biso   1.000  N
  N110     1.0000 0.45529  0.44865  0.05692  Biso   1.000  N
  N111     1.0000 0.44670  0.50324  0.00826  Biso   1.000  N
  N112     1.0000 0.19653  0.50206  0.21297  Biso   1.000  N
  N113     1.0000 0.11500  0.51981  0.19787  Biso   1.000  N
  N114     1.0000 0.00670  0.44670  0.13240  Biso   1.000  N
  N115     1.0000 0.68379  0.06545  0.47832  Biso   1.000  N
  N116     1.0000 0.60827  0.05135  0.50664  Biso   1.000  N
  N117     1.0000 0.50502  0.99676  0.44346  Biso   1.000  N
  N118     1.0000 0.71091  0.99794  0.19447  Biso   1.000  N
  N119     1.0000 0.67806  0.98019  0.09519  Biso   1.000  N
  N120     1.0000 0.68570  0.05330  0.06000  Biso   1.000  N
  N121     1.0000 0.43455  0.61834  0.91287  Biso   1.000  N
  N122     1.0000 0.44865  0.55692  0.95529  Biso   1.000  N
  N123     1.0000 0.50324  0.50826  0.94670  Biso   1.000  N
  N124     1.0000 0.50206  0.71297  0.69653  Biso   1.000  N
  N125     1.0000 0.51981  0.69787  0.61500  Biso   1.000  N
  N126     1.0000 0.44670  0.63240  0.50670  Biso   1.000  N
  N127     1.0000 0.06545  0.97832  0.18379  Biso   1.000  N
  N128     1.0000 0.05135  0.00664  0.10827  Biso   1.000  N
  N129     1.0000 0.99676  0.94346  0.00502  Biso   1.000  N
  N130     1.0000 0.99794  0.69447  0.21091  Biso   1.000  N
  N131     1.0000 0.98019  0.59519  0.17806  Biso   1.000  N
  N132     1.0000 0.05330  0.56000  0.18570  Biso   1.000  N
  N133     1.0000 0.29453  0.88166  0.31621  Biso   1.000  N
  N134     1.0000 0.39837  0.94308  0.39173  Biso   1.000  N
  N135     1.0000 0.43844  0.99174  0.49498  Biso   1.000  N
  N136     1.0000 0.98356  0.78703  0.28909  Biso   1.000  N
  N137     1.0000 0.91713  0.80213  0.32194  Biso   1.000  N
  N138     1.0000 0.87430  0.86760  0.31430  Biso   1.000  N
  N139     1.0000 0.20547  0.52168  0.58713  Biso   1.000  N
  N140     1.0000 0.10163  0.49336  0.54471  Biso   1.000  N
  N141     1.0000 0.06156  0.55654  0.55330  Biso   1.000  N
  N142     1.0000 0.51644  0.80553  0.80347  Biso   1.000  N
  N143     1.0000 0.58287  0.90481  0.88500  Biso   1.000  N
  N144     1.0000 0.62570  0.94000  0.99330  Biso   1.000  N
