data_HUCBAJ_charged
_audit_creation_date              2014-07-02
_audit_creation_method            'Materials Studio'
_symmetry_space_group_name_H-M    'P1'
_symmetry_Int_Tables_number       1
_symmetry_cell_setting            triclinic
loop_
_symmetry_equiv_pos_as_xyz
  x,y,z
_cell_length_a                    9.7589
_cell_length_b                    18.9319
_cell_length_c                    19.6525
_cell_angle_alpha                 103.0920
_cell_angle_beta                  90.0000
_cell_angle_gamma                 104.9360
loop_
_atom_site_label
_atom_site_type_symbol
_atom_site_fract_x
_atom_site_fract_y
_atom_site_fract_z
_atom_site_U_iso_or_equiv
_atom_site_adp_type
_atom_site_occupancy
Li1    Li    0.54440   0.96080   0.69070   0.01267  Uiso   1.00
Li2    Li    0.58360   0.03920   0.80930   0.01267  Uiso   1.00
Li3    Li    0.45560   0.03920   0.30930   0.01267  Uiso   1.00
Li4    Li    0.41640   0.96080   0.19070   0.01267  Uiso   1.00
In1    In    0.45530   0.78705   0.61196   0.01267  Uiso   1.00
In2    In    0.66825   0.21295   0.88804   0.01267  Uiso   1.00
In3    In    0.54470   0.21295   0.38804   0.01267  Uiso   1.00
In4    In    0.33175   0.78705   0.11196   0.01267  Uiso   1.00
H1     H     0.35740   0.59040   0.72040   0.01267  Uiso   1.00
H2     H     0.38770   0.78460   0.86500   0.01267  Uiso   1.00
H3     H     0.26260   0.58600   0.91860   0.01267  Uiso   1.00
H4     H     0.38110   0.35380   0.70020   0.01267  Uiso   1.00
H5     H     0.43430   0.48320   0.73380   0.01267  Uiso   1.00
H6     H     0.09710   0.46980   0.85300   0.01267  Uiso   1.00
H7     H     0.04340   0.34020   0.82100   0.01267  Uiso   1.00
H8     H     0.31380   0.11020   0.69190   0.01267  Uiso   1.00
H9     H     0.36790   0.23840   0.73290   0.01267  Uiso   1.00
H10    H     0.95440   0.23220   0.72710   0.01267  Uiso   1.00
H11    H     0.89860   0.10340   0.69210   0.01267  Uiso   1.00
H12    H     0.26510   0.99520   0.65790   0.01267  Uiso   1.00
H13    H     0.96240   0.79540   0.61240   0.01267  Uiso   1.00
H14    H     0.85010   0.98940   0.66290   0.01267  Uiso   1.00
H15    H     0.76700   0.40960   0.77960   0.01267  Uiso   1.00
H16    H     0.60310   0.21540   0.63500   0.01267  Uiso   1.00
H17    H     0.67660   0.41400   0.58140   0.01267  Uiso   1.00
H18    H     0.02730   0.64620   0.79980   0.01267  Uiso   1.00
H19    H     0.95110   0.51680   0.76620   0.01267  Uiso   1.00
H20    H     0.62730   0.53020   0.64700   0.01267  Uiso   1.00
H21    H     0.70320   0.65980   0.67900   0.01267  Uiso   1.00
H22    H     0.20360   0.88980   0.80810   0.01267  Uiso   1.00
H23    H     0.12950   0.76160   0.76710   0.01267  Uiso   1.00
H24    H     0.72220   0.76780   0.77290   0.01267  Uiso   1.00
H25    H     0.79520   0.89660   0.80790   0.01267  Uiso   1.00
H26    H     0.26990   0.00480   0.84210   0.01267  Uiso   1.00
H27    H     0.16700   0.20460   0.88760   0.01267  Uiso   1.00
H28    H     0.86070   0.01060   0.83710   0.01267  Uiso   1.00
H29    H     0.64260   0.40960   0.27960   0.01267  Uiso   1.00
H30    H     0.61230   0.21540   0.13500   0.01267  Uiso   1.00
H31    H     0.73740   0.41400   0.08140   0.01267  Uiso   1.00
H32    H     0.61890   0.64620   0.29980   0.01267  Uiso   1.00
H33    H     0.56570   0.51680   0.26620   0.01267  Uiso   1.00
H34    H     0.90290   0.53020   0.14700   0.01267  Uiso   1.00
H35    H     0.95660   0.65980   0.17900   0.01267  Uiso   1.00
H36    H     0.68620   0.88980   0.30810   0.01267  Uiso   1.00
H37    H     0.63210   0.76160   0.26710   0.01267  Uiso   1.00
H38    H     0.04560   0.76780   0.27290   0.01267  Uiso   1.00
H39    H     0.10140   0.89660   0.30790   0.01267  Uiso   1.00
H40    H     0.73490   0.00480   0.34210   0.01267  Uiso   1.00
H41    H     0.03760   0.20460   0.38760   0.01267  Uiso   1.00
H42    H     0.14990   0.01060   0.33710   0.01267  Uiso   1.00
H43    H     0.23300   0.59040   0.22040   0.01267  Uiso   1.00
H44    H     0.39690   0.78460   0.36500   0.01267  Uiso   1.00
H45    H     0.32340   0.58600   0.41860   0.01267  Uiso   1.00
H46    H     0.97270   0.35380   0.20020   0.01267  Uiso   1.00
H47    H     0.04890   0.48320   0.23380   0.01267  Uiso   1.00
H48    H     0.37270   0.46980   0.35300   0.01267  Uiso   1.00
H49    H     0.29680   0.34020   0.32100   0.01267  Uiso   1.00
H50    H     0.79640   0.11020   0.19190   0.01267  Uiso   1.00
H51    H     0.87050   0.23840   0.23290   0.01267  Uiso   1.00
H52    H     0.27780   0.23220   0.22710   0.01267  Uiso   1.00
H53    H     0.20480   0.10340   0.19210   0.01267  Uiso   1.00
H54    H     0.73010   0.99520   0.15790   0.01267  Uiso   1.00
H55    H     0.83300   0.79540   0.11240   0.01267  Uiso   1.00
H56    H     0.13930   0.98940   0.16290   0.01267  Uiso   1.00
C1     C     0.41510   0.73520   0.72700   0.01267  Uiso   1.00
C2     C     0.31990   0.72900   0.97670   0.01267  Uiso   1.00
C3     C     0.34680   0.61600   0.76690   0.01267  Uiso   1.00
C4     C     0.37600   0.69360   0.78350   0.01267  Uiso   1.00
C5     C     0.36590   0.73120   0.85230   0.01267  Uiso   1.00
C6     C     0.32420   0.69060   0.90200   0.01267  Uiso   1.00
C7     C     0.29230   0.61320   0.88370   0.01267  Uiso   1.00
C8     C     0.30190   0.57380   0.81640   0.01267  Uiso   1.00
C9     C     0.32260   0.37720   0.73130   0.01267  Uiso   1.00
C10    C     0.35410   0.45400   0.75140   0.01267  Uiso   1.00
C11    C     0.27080   0.49060   0.79720   0.01267  Uiso   1.00
C12    C     0.15530   0.44620   0.82190   0.01267  Uiso   1.00
C13    C     0.12270   0.36900   0.80250   0.01267  Uiso   1.00
C14    C     0.20470   0.33240   0.75610   0.01267  Uiso   1.00
C15    C     0.23950   0.13440   0.70020   0.01267  Uiso   1.00
C16    C     0.27100   0.21080   0.72330   0.01267  Uiso   1.00
C17    C     0.16900   0.25020   0.73330   0.01267  Uiso   1.00
C18    C     0.02850   0.20760   0.72080   0.01267  Uiso   1.00
C19    C     0.99580   0.13100   0.69970   0.01267  Uiso   1.00
C20    C     0.09790   0.09200   0.68900   0.01267  Uiso   1.00
C21    C     0.06290   0.00780   0.66510   0.01267  Uiso   1.00
C22    C     0.16780   0.96820   0.65340   0.01267  Uiso   1.00
C23    C     0.13070   0.89000   0.63530   0.01267  Uiso   1.00
C24    C     0.98760   0.84880   0.62560   0.01267  Uiso   1.00
C25    C     0.88510   0.88680   0.63540   0.01267  Uiso   1.00
C26    C     0.92340   0.96440   0.65540   0.01267  Uiso   1.00
C27    C     0.24570   0.85080   0.62590   0.01267  Uiso   1.00
C28    C     0.73240   0.84500   0.62680   0.01267  Uiso   1.00
C29    C     0.67990   0.26480   0.77300   0.01267  Uiso   1.00
C30    C     0.59090   0.27100   0.52330   0.01267  Uiso   1.00
C31    C     0.73080   0.38400   0.73310   0.01267  Uiso   1.00
C32    C     0.68240   0.30640   0.71650   0.01267  Uiso   1.00
C33    C     0.63470   0.26880   0.64770   0.01267  Uiso   1.00
C34    C     0.63360   0.30940   0.59800   0.01267  Uiso   1.00
C35    C     0.67910   0.38680   0.61630   0.01267  Uiso   1.00
C36    C     0.72810   0.42620   0.68360   0.01267  Uiso   1.00
C37    C     0.94540   0.62280   0.76870   0.01267  Uiso   1.00
C38    C     0.90010   0.54600   0.74860   0.01267  Uiso   1.00
C39    C     0.78020   0.50940   0.70280   0.01267  Uiso   1.00
C40    C     0.70910   0.55380   0.67810   0.01267  Uiso   1.00
C41    C     0.75370   0.63100   0.69750   0.01267  Uiso   1.00
C42    C     0.87230   0.66760   0.74390   0.01267  Uiso   1.00
C43    C     0.10510   0.86560   0.79980   0.01267  Uiso   1.00
C44    C     0.06020   0.78920   0.77670   0.01267  Uiso   1.00
C45    C     0.91880   0.74980   0.76670   0.01267  Uiso   1.00
C46    C     0.82090   0.79240   0.77920   0.01267  Uiso   1.00
C47    C     0.86480   0.86900   0.80030   0.01267  Uiso   1.00
C48    C     0.00590   0.90800   0.81100   0.01267  Uiso   1.00
C49    C     0.05510   0.99220   0.83490   0.01267  Uiso   1.00
C50    C     0.19960   0.03180   0.84660   0.01267  Uiso   1.00
C51    C     0.24070   0.11000   0.86470   0.01267  Uiso   1.00
C52    C     0.13880   0.15120   0.87440   0.01267  Uiso   1.00
C53    C     0.99830   0.11320   0.86460   0.01267  Uiso   1.00
C54    C     0.95900   0.03560   0.84460   0.01267  Uiso   1.00
C55    C     0.39490   0.14920   0.87410   0.01267  Uiso   1.00
C56    C     0.88740   0.15500   0.87320   0.01267  Uiso   1.00
C57    C     0.58490   0.26480   0.27300   0.01267  Uiso   1.00
C58    C     0.68010   0.27100   0.02330   0.01267  Uiso   1.00
C59    C     0.65320   0.38400   0.23310   0.01267  Uiso   1.00
C60    C     0.62400   0.30640   0.21650   0.01267  Uiso   1.00
C61    C     0.63410   0.26880   0.14770   0.01267  Uiso   1.00
C62    C     0.67580   0.30940   0.09800   0.01267  Uiso   1.00
C63    C     0.70770   0.38680   0.11630   0.01267  Uiso   1.00
C64    C     0.69810   0.42620   0.18360   0.01267  Uiso   1.00
C65    C     0.67740   0.62280   0.26870   0.01267  Uiso   1.00
C66    C     0.64590   0.54600   0.24860   0.01267  Uiso   1.00
C67    C     0.72920   0.50940   0.20280   0.01267  Uiso   1.00
C68    C     0.84470   0.55380   0.17810   0.01267  Uiso   1.00
C69    C     0.87730   0.63100   0.19750   0.01267  Uiso   1.00
C70    C     0.79530   0.66760   0.24390   0.01267  Uiso   1.00
C71    C     0.76050   0.86560   0.29980   0.01267  Uiso   1.00
C72    C     0.72900   0.78920   0.27670   0.01267  Uiso   1.00
C73    C     0.83100   0.74980   0.26670   0.01267  Uiso   1.00
C74    C     0.97150   0.79240   0.27920   0.01267  Uiso   1.00
C75    C     0.00420   0.86900   0.30030   0.01267  Uiso   1.00
C76    C     0.90210   0.90800   0.31100   0.01267  Uiso   1.00
C77    C     0.93710   0.99220   0.33490   0.01267  Uiso   1.00
C78    C     0.83220   0.03180   0.34660   0.01267  Uiso   1.00
C79    C     0.86930   0.11000   0.36470   0.01267  Uiso   1.00
C80    C     0.01240   0.15120   0.37440   0.01267  Uiso   1.00
C81    C     0.11490   0.11320   0.36460   0.01267  Uiso   1.00
C82    C     0.07660   0.03560   0.34460   0.01267  Uiso   1.00
C83    C     0.75430   0.14920   0.37410   0.01267  Uiso   1.00
C84    C     0.26760   0.15500   0.37320   0.01267  Uiso   1.00
C85    C     0.32010   0.73520   0.22700   0.01267  Uiso   1.00
C86    C     0.40910   0.72900   0.47670   0.01267  Uiso   1.00
C87    C     0.26920   0.61600   0.26690   0.01267  Uiso   1.00
C88    C     0.31760   0.69360   0.28350   0.01267  Uiso   1.00
C89    C     0.36530   0.73120   0.35230   0.01267  Uiso   1.00
C90    C     0.36640   0.69060   0.40200   0.01267  Uiso   1.00
C91    C     0.32090   0.61320   0.38370   0.01267  Uiso   1.00
C92    C     0.27190   0.57380   0.31640   0.01267  Uiso   1.00
C93    C     0.05460   0.37720   0.23130   0.01267  Uiso   1.00
C94    C     0.09990   0.45400   0.25140   0.01267  Uiso   1.00
C95    C     0.21980   0.49060   0.29720   0.01267  Uiso   1.00
C96    C     0.29090   0.44620   0.32190   0.01267  Uiso   1.00
C97    C     0.24630   0.36900   0.30250   0.01267  Uiso   1.00
C98    C     0.12770   0.33240   0.25610   0.01267  Uiso   1.00
C99    C     0.89490   0.13440   0.20020   0.01267  Uiso   1.00
C100   C     0.93980   0.21080   0.22330   0.01267  Uiso   1.00
C101   C     0.08120   0.25020   0.23330   0.01267  Uiso   1.00
C102   C     0.17910   0.20760   0.22080   0.01267  Uiso   1.00
C103   C     0.13520   0.13100   0.19970   0.01267  Uiso   1.00
C104   C     0.99410   0.09200   0.18900   0.01267  Uiso   1.00
C105   C     0.94490   0.00780   0.16510   0.01267  Uiso   1.00
C106   C     0.80040   0.96820   0.15340   0.01267  Uiso   1.00
C107   C     0.75930   0.89000   0.13530   0.01267  Uiso   1.00
C108   C     0.86120   0.84880   0.12560   0.01267  Uiso   1.00
C109   C     0.00170   0.88680   0.13540   0.01267  Uiso   1.00
C110   C     0.04100   0.96440   0.15540   0.01267  Uiso   1.00
C111   C     0.60510   0.85080   0.12590   0.01267  Uiso   1.00
C112   C     0.11260   0.84500   0.12680   0.01267  Uiso   1.00
O1     O     0.69163   0.77726   0.60610   0.01267  Uiso   1.00
O2     O     0.64140   0.88060   0.63900   0.01267  Uiso   1.00
O3     O     0.37247   0.89034   0.63600   0.01267  Uiso   1.00
O4     O     0.22015   0.78030   0.60960   0.01267  Uiso   1.00
O5     O     0.35180   0.79960   0.99680   0.01267  Uiso   1.00
O6     O     0.28758   0.68876   0.02170   0.01267  Uiso   1.00
O7     O     0.44077   0.80514   0.73980   0.01267  Uiso   1.00
O8     O     0.41612   0.69664   0.66570   0.01267  Uiso   1.00
O9     O     0.58960   0.03120   0.71430   0.01267  Uiso   1.00
O10    O     0.91437   0.22274   0.89390   0.01267  Uiso   1.00
O11    O     0.76080   0.11940   0.86100   0.01267  Uiso   1.00
O12    O     0.48213   0.10966   0.86400   0.01267  Uiso   1.00
O13    O     0.43985   0.21970   0.89040   0.01267  Uiso   1.00
O14    O     0.55220   0.20040   0.50320   0.01267  Uiso   1.00
O15    O     0.59882   0.31124   0.47830   0.01267  Uiso   1.00
O16    O     0.63563   0.19486   0.76020   0.01267  Uiso   1.00
O17    O     0.71948   0.30336   0.83430   0.01267  Uiso   1.00
O18    O     0.55840   0.96880   0.78570   0.01267  Uiso   1.00
O19    O     0.30837   0.22274   0.39390   0.01267  Uiso   1.00
O20    O     0.35860   0.11940   0.36100   0.01267  Uiso   1.00
O21    O     0.62753   0.10966   0.36400   0.01267  Uiso   1.00
O22    O     0.77985   0.21970   0.39040   0.01267  Uiso   1.00
O23    O     0.64820   0.20040   0.00320   0.01267  Uiso   1.00
O24    O     0.71242   0.31124   0.97830   0.01267  Uiso   1.00
O25    O     0.55923   0.19486   0.26020   0.01267  Uiso   1.00
O26    O     0.58388   0.30336   0.33430   0.01267  Uiso   1.00
O27    O     0.41040   0.96880   0.28570   0.01267  Uiso   1.00
O28    O     0.08563   0.77726   0.10610   0.01267  Uiso   1.00
O29    O     0.23920   0.88060   0.13900   0.01267  Uiso   1.00
O30    O     0.51787   0.89034   0.13600   0.01267  Uiso   1.00
O31    O     0.56015   0.78030   0.10960   0.01267  Uiso   1.00
O32    O     0.44780   0.79960   0.49680   0.01267  Uiso   1.00
O33    O     0.40118   0.68876   0.52170   0.01267  Uiso   1.00
O34    O     0.36437   0.80514   0.23980   0.01267  Uiso   1.00
O35    O     0.28052   0.69664   0.16570   0.01267  Uiso   1.00
O36    O     0.44160   0.03120   0.21430   0.01267  Uiso   1.00
