data_image0
_cell_length_a       9.1726
_cell_length_b       9.7145
_cell_length_c       22.3444
_cell_angle_alpha    90
_cell_angle_beta     90
_cell_angle_gamma    117.295

_symmetry_space_group_name_H-M    P 1
_symmetry_int_tables_number       1

loop_
  _symmetry_equiv_pos_as_xyz
  'x, y, z'

loop_
  _atom_site_label
  _atom_site_occupancy
  _atom_site_fract_x
  _atom_site_fract_y
  _atom_site_fract_z
  _atom_site_thermal_displace_type
  _atom_site_B_iso_or_equiv
  _atom_site_type_symbol
  Sm1      1.0000 0.88233  0.14285  0.00869  Biso   1.000  Sm
  Sm2      1.0000 0.61767  0.85715  0.50868  Biso   1.000  Sm
  Sm3      1.0000 0.11767  0.85715  0.99131  Biso   1.000  Sm
  Sm4      1.0000 0.38233  0.14285  0.49132  Biso   1.000  Sm
  Ag1      1.0000 0.51691  0.17933  0.14763  Biso   1.000  Ag
  Ag2      1.0000 0.98309  0.82067  0.64763  Biso   1.000  Ag
  Ag3      1.0000 0.48309  0.82067  0.85237  Biso   1.000  Ag
  Ag4      1.0000 0.01691  0.17933  0.35237  Biso   1.000  Ag
  H1       1.0000 0.75600  0.46960  0.86810  Biso   1.000  H
  H2       1.0000 0.31660  0.52910  0.93340  Biso   1.000  H
  H3       1.0000 0.72210  0.67880  0.84100  Biso   1.000  H
  H4       1.0000 0.56080  0.27950  0.92790  Biso   1.000  H
  H5       1.0000 0.98830  0.13950  0.21840  Biso   1.000  H
  H6       1.0000 0.10060  0.81240  0.15890  Biso   1.000  H
  H7       1.0000 0.11410  0.90970  0.33220  Biso   1.000  H
  H8       1.0000 0.14000  0.76350  0.25730  Biso   1.000  H
  H9       1.0000 0.74400  0.53040  0.36810  Biso   1.000  H
  H10      1.0000 0.18340  0.47090  0.43340  Biso   1.000  H
  H11      1.0000 0.77790  0.32120  0.34100  Biso   1.000  H
  H12      1.0000 0.93920  0.72050  0.42790  Biso   1.000  H
  H13      1.0000 0.51170  0.86050  0.71840  Biso   1.000  H
  H14      1.0000 0.39940  0.18760  0.65890  Biso   1.000  H
  H15      1.0000 0.38590  0.09030  0.83220  Biso   1.000  H
  H16      1.0000 0.36000  0.23650  0.75730  Biso   1.000  H
  H17      1.0000 0.24400  0.53040  0.13190  Biso   1.000  H
  H18      1.0000 0.68340  0.47090  0.06660  Biso   1.000  H
  H19      1.0000 0.27790  0.32120  0.15900  Biso   1.000  H
  H20      1.0000 0.43920  0.72050  0.07210  Biso   1.000  H
  H21      1.0000 0.01170  0.86050  0.78160  Biso   1.000  H
  H22      1.0000 0.89940  0.18760  0.84110  Biso   1.000  H
  H23      1.0000 0.88590  0.09030  0.66780  Biso   1.000  H
  H24      1.0000 0.86000  0.23650  0.74270  Biso   1.000  H
  H25      1.0000 0.25600  0.46960  0.63190  Biso   1.000  H
  H26      1.0000 0.81660  0.52910  0.56660  Biso   1.000  H
  H27      1.0000 0.22210  0.67880  0.65900  Biso   1.000  H
  H28      1.0000 0.06080  0.27950  0.57210  Biso   1.000  H
  H29      1.0000 0.48830  0.13950  0.28160  Biso   1.000  H
  H30      1.0000 0.60060  0.81240  0.34110  Biso   1.000  H
  H31      1.0000 0.61410  0.90970  0.16780  Biso   1.000  H
  H32      1.0000 0.64000  0.76350  0.24270  Biso   1.000  H
  C1       1.0000 0.41470  0.38340  0.93617  Biso   1.000  C
  C2       1.0000 0.66480  0.47890  0.88129  Biso   1.000  C
  C3       1.0000 0.40470  0.51540  0.91951  Biso   1.000  C
  C4       1.0000 0.64410  0.60420  0.86566  Biso   1.000  C
  C5       1.0000 0.28110  0.25860  0.97226  Biso   1.000  C
  C6       1.0000 0.54900  0.36620  0.91690  Biso   1.000  C
  C7       1.0000 0.02080  0.06360  0.22618  Biso   1.000  C
  C8       1.0000 0.08640  0.86910  0.18990  Biso   1.000  C
  C9       1.0000 0.09310  0.92780  0.29305  Biso   1.000  C
  C10      1.0000 0.04010  0.98310  0.17816  Biso   1.000  C
  C11      1.0000 0.11110  0.84120  0.24830  Biso   1.000  C
  C12      1.0000 0.49720  0.02070  0.03303  Biso   1.000  C
  C13      1.0000 0.00780  0.02290  0.11643  Biso   1.000  C
  C14      1.0000 0.00830  0.50810  0.03469  Biso   1.000  C
  C15      1.0000 0.08530  0.61660  0.43617  Biso   1.000  C
  C16      1.0000 0.83520  0.52110  0.38129  Biso   1.000  C
  C17      1.0000 0.09530  0.48460  0.41951  Biso   1.000  C
  C18      1.0000 0.85590  0.39580  0.36566  Biso   1.000  C
  C19      1.0000 0.21890  0.74140  0.47226  Biso   1.000  C
  C20      1.0000 0.95100  0.63380  0.41690  Biso   1.000  C
  C21      1.0000 0.47920  0.93640  0.72618  Biso   1.000  C
  C22      1.0000 0.41360  0.13090  0.68990  Biso   1.000  C
  C23      1.0000 0.40690  0.07220  0.79305  Biso   1.000  C
  C24      1.0000 0.45990  0.01690  0.67816  Biso   1.000  C
  C25      1.0000 0.38890  0.15880  0.74830  Biso   1.000  C
  C26      1.0000 0.00280  0.97930  0.53303  Biso   1.000  C
  C27      1.0000 0.49220  0.97710  0.61643  Biso   1.000  C
  C28      1.0000 0.49170  0.49190  0.53469  Biso   1.000  C
  C29      1.0000 0.58530  0.61660  0.06383  Biso   1.000  C
  C30      1.0000 0.33520  0.52110  0.11871  Biso   1.000  C
  C31      1.0000 0.59530  0.48460  0.08049  Biso   1.000  C
  C32      1.0000 0.35590  0.39580  0.13434  Biso   1.000  C
  C33      1.0000 0.71890  0.74140  0.02774  Biso   1.000  C
  C34      1.0000 0.45100  0.63380  0.08310  Biso   1.000  C
  C35      1.0000 0.97920  0.93640  0.77382  Biso   1.000  C
  C36      1.0000 0.91360  0.13090  0.81010  Biso   1.000  C
  C37      1.0000 0.90690  0.07220  0.70695  Biso   1.000  C
  C38      1.0000 0.95990  0.01690  0.82184  Biso   1.000  C
  C39      1.0000 0.88890  0.15880  0.75170  Biso   1.000  C
  C40      1.0000 0.50280  0.97930  0.96697  Biso   1.000  C
  C41      1.0000 0.99220  0.97710  0.88357  Biso   1.000  C
  C42      1.0000 0.99170  0.49190  0.96531  Biso   1.000  C
  C43      1.0000 0.91470  0.38340  0.56383  Biso   1.000  C
  C44      1.0000 0.16480  0.47890  0.61871  Biso   1.000  C
  C45      1.0000 0.90470  0.51540  0.58049  Biso   1.000  C
  C46      1.0000 0.14410  0.60420  0.63434  Biso   1.000  C
  C47      1.0000 0.78110  0.25860  0.52774  Biso   1.000  C
  C48      1.0000 0.04900  0.36620  0.58310  Biso   1.000  C
  C49      1.0000 0.52080  0.06360  0.27382  Biso   1.000  C
  C50      1.0000 0.58640  0.86910  0.31010  Biso   1.000  C
  C51      1.0000 0.59310  0.92780  0.20695  Biso   1.000  C
  C52      1.0000 0.54010  0.98310  0.32184  Biso   1.000  C
  C53      1.0000 0.61110  0.84120  0.25170  Biso   1.000  C
  C54      1.0000 0.99720  0.02070  0.46697  Biso   1.000  C
  C55      1.0000 0.50780  0.02290  0.38357  Biso   1.000  C
  C56      1.0000 0.50830  0.50810  0.46531  Biso   1.000  C
  N1       1.0000 0.51630  0.62540  0.88411  Biso   1.000  N
  N2       1.0000 0.04630  0.03810  0.28296  Biso   1.000  N
  N3       1.0000 0.98370  0.37460  0.38411  Biso   1.000  N
  N4       1.0000 0.45370  0.96190  0.78296  Biso   1.000  N
  N5       1.0000 0.48370  0.37460  0.11589  Biso   1.000  N
  N6       1.0000 0.95370  0.96190  0.71704  Biso   1.000  N
  N7       1.0000 0.01630  0.62540  0.61589  Biso   1.000  N
  N8       1.0000 0.54630  0.03810  0.21704  Biso   1.000  N
  O1       1.0000 0.63050  0.11650  0.05598  Biso   1.000  O
  O2       1.0000 0.17690  0.29000  0.99674  Biso   1.000  O
  O3       1.0000 0.28340  0.13090  0.97383  Biso   1.000  O
  O4       1.0000 0.95040  0.38440  0.06382  Biso   1.000  O
  O5       1.0000 0.36140  0.95820  0.05886  Biso   1.000  O
  O6       1.0000 0.07870  0.64200  0.05570  Biso   1.000  O
  O7       1.0000 0.94430  0.11180  0.11157  Biso   1.000  O
  O8       1.0000 0.04480  0.96500  0.07246  Biso   1.000  O
  O9       1.0000 0.86950  0.88350  0.55598  Biso   1.000  O
  O10      1.0000 0.32310  0.71000  0.49674  Biso   1.000  O
  O11      1.0000 0.21660  0.86910  0.47383  Biso   1.000  O
  O12      1.0000 0.54960  0.61560  0.56382  Biso   1.000  O
  O13      1.0000 0.13860  0.04180  0.55886  Biso   1.000  O
  O14      1.0000 0.42130  0.35800  0.55570  Biso   1.000  O
  O15      1.0000 0.55570  0.88820  0.61157  Biso   1.000  O
  O16      1.0000 0.45520  0.03500  0.57246  Biso   1.000  O
  O17      1.0000 0.36950  0.88350  0.94402  Biso   1.000  O
  O18      1.0000 0.82310  0.71000  0.00326  Biso   1.000  O
  O19      1.0000 0.71660  0.86910  0.02617  Biso   1.000  O
  O20      1.0000 0.04960  0.61560  0.93618  Biso   1.000  O
  O21      1.0000 0.63860  0.04180  0.94114  Biso   1.000  O
  O22      1.0000 0.92130  0.35800  0.94430  Biso   1.000  O
  O23      1.0000 0.05570  0.88820  0.88843  Biso   1.000  O
  O24      1.0000 0.95520  0.03500  0.92754  Biso   1.000  O
  O25      1.0000 0.13050  0.11650  0.44402  Biso   1.000  O
  O26      1.0000 0.67690  0.29000  0.50326  Biso   1.000  O
  O27      1.0000 0.78340  0.13090  0.52617  Biso   1.000  O
  O28      1.0000 0.45040  0.38440  0.43618  Biso   1.000  O
  O29      1.0000 0.86140  0.95820  0.44114  Biso   1.000  O
  O30      1.0000 0.57870  0.64200  0.44430  Biso   1.000  O
  O31      1.0000 0.44430  0.11180  0.38843  Biso   1.000  O
  O32      1.0000 0.54480  0.96500  0.42754  Biso   1.000  O
