data_image0
_cell_length_a       13.1191
_cell_length_b       13.1191
_cell_length_c       16.014
_cell_angle_alpha    90
_cell_angle_beta     90
_cell_angle_gamma    120

_symmetry_space_group_name_H-M    "P 1"
_symmetry_int_tables_number       1

loop_
  _symmetry_equiv_pos_as_xyz
  'x, y, z'

loop_
  _atom_site_label
  _atom_site_occupancy
  _atom_site_fract_x
  _atom_site_fract_y
  _atom_site_fract_z
  _atom_site_thermal_displace_type
  _atom_site_B_iso_or_equiv
  _atom_site_type_symbol
  Co1      1.0000 0.47336  0.51793  0.27171  Biso   1.000  Co
  C1       1.0000 0.56330  0.69180  0.14600  Biso   1.000  C
  O1       1.0000 0.38120  0.37390  0.37520  Biso   1.000  O
  O2       1.0000 0.47490  0.64070  0.19470  Biso   1.000  O
  C2       1.0000 0.55180  0.76630  0.07870  Biso   1.000  C
  H1       1.0000 0.48550  0.77470  0.07770  Biso   1.000  H
  C3       1.0000 0.33220  0.43170  0.39230  Biso   1.000  C
  O3       1.0000 0.65010  0.68130  0.15090  Biso   1.000  O
  O4       1.0000 0.34100  0.51260  0.34240  Biso   1.000  O
  C4       1.0000 0.54530  0.90260  0.91440  Biso   1.000  C
  H2       1.0000 0.46830  0.86970  0.93350  Biso   1.000  H
  C5       1.0000 0.63230  0.81850  0.02250  Biso   1.000  C
  H3       1.0000 0.69930  0.81200  0.02890  Biso   1.000  H
  C6       1.0000 0.63190  0.88710  0.94930  Biso   1.000  C
  N1       1.0000 0.72750  0.94740  0.90310  Biso   1.000  N
  C7       1.0000 0.26860  0.40880  0.47160  Biso   1.000  C
  H4       1.0000 0.26560  0.35010  0.50580  Biso   1.000  H
  C8       1.0000 0.21540  0.46540  0.49780  Biso   1.000  C
  H5       1.0000 0.21150  0.51880  0.46150  Biso   1.000  H
  C9       1.0000 0.16210  0.44940  0.58020  Biso   1.000  C
  N2       1.0000 0.18330  0.39440  0.64550  Biso   1.000  N
  C10      1.0000 0.08800  0.48330  0.61120  Biso   1.000  C
  H6       1.0000 0.05900  0.52420  0.58140  Biso   1.000  H
  C11      1.0000 0.12400  0.39850  0.71220  Biso   1.000  C
  H7       1.0000 0.12660  0.36980  0.76480  Biso   1.000  H
  C12      1.0000 0.70020  0.99770  0.84400  Biso   1.000  C
  H8       1.0000 0.75320  0.04570  0.80340  Biso   1.000  H
  N3       1.0000 0.06130  0.44870  0.69330  Biso   1.000  N
  N4       1.0000 0.59090  0.97410  0.84730  Biso   1.000  N
  Co2      1.0000 0.48207  0.95543  0.27171  Biso   1.000  Co
  C13      1.0000 0.30820  0.87150  0.14600  Biso   1.000  C
  O5       1.0000 0.62610  0.00730  0.37520  Biso   1.000  O
  O6       1.0000 0.35930  0.83420  0.19470  Biso   1.000  O
  C14      1.0000 0.23370  0.78550  0.07870  Biso   1.000  C
  H9       1.0000 0.22530  0.71080  0.07770  Biso   1.000  H
  C15      1.0000 0.56830  0.90050  0.39230  Biso   1.000  C
  O7       1.0000 0.31870  0.96880  0.15090  Biso   1.000  O
  O8       1.0000 0.48740  0.82840  0.34240  Biso   1.000  O
  C16      1.0000 0.09740  0.64270  0.91440  Biso   1.000  C
  H10      1.0000 0.13030  0.59860  0.93350  Biso   1.000  H
  C17      1.0000 0.18150  0.81380  0.02250  Biso   1.000  C
  H11      1.0000 0.18800  0.88730  0.02890  Biso   1.000  H
  C18      1.0000 0.11290  0.74480  0.94930  Biso   1.000  C
  N5       1.0000 0.05260  0.78010  0.90310  Biso   1.000  N
  C19      1.0000 0.59120  0.85980  0.47160  Biso   1.000  C
  H12      1.0000 0.64990  0.91550  0.50580  Biso   1.000  H
  C20      1.0000 0.53460  0.75000  0.49780  Biso   1.000  C
  H13      1.0000 0.48120  0.69270  0.46150  Biso   1.000  H
  C21      1.0000 0.55060  0.71270  0.58020  Biso   1.000  C
  N6       1.0000 0.60560  0.78890  0.64550  Biso   1.000  N
  C22      1.0000 0.51670  0.60470  0.61120  Biso   1.000  C
  H14      1.0000 0.47580  0.53480  0.58140  Biso   1.000  H
  C23      1.0000 0.60150  0.72550  0.71220  Biso   1.000  C
  H15      1.0000 0.63020  0.75680  0.76480  Biso   1.000  H
  C24      1.0000 0.00230  0.70250  0.84400  Biso   1.000  C
  H16      1.0000 0.95430  0.70750  0.80340  Biso   1.000  H
  N7       1.0000 0.55130  0.61260  0.69330  Biso   1.000  N
  N8       1.0000 0.02590  0.61680  0.84730  Biso   1.000  N
  Co3      1.0000 0.04457  0.52664  0.27171  Biso   1.000  Co
  C25      1.0000 0.12850  0.43670  0.14600  Biso   1.000  C
  O9       1.0000 0.99270  0.61880  0.37520  Biso   1.000  O
  O10      1.0000 0.16580  0.52510  0.19470  Biso   1.000  O
  C26      1.0000 0.21450  0.44820  0.07870  Biso   1.000  C
  H17      1.0000 0.28920  0.51450  0.07770  Biso   1.000  H
  C27      1.0000 0.09950  0.66780  0.39230  Biso   1.000  C
  O11      1.0000 0.03120  0.34990  0.15090  Biso   1.000  O
  O12      1.0000 0.17160  0.65900  0.34240  Biso   1.000  O
  C28      1.0000 0.35730  0.45470  0.91440  Biso   1.000  C
  H18      1.0000 0.40140  0.53170  0.93350  Biso   1.000  H
  C29      1.0000 0.18620  0.36770  0.02250  Biso   1.000  C
  H19      1.0000 0.11270  0.30070  0.02890  Biso   1.000  H
  C30      1.0000 0.25520  0.36810  0.94930  Biso   1.000  C
  N9       1.0000 0.21990  0.27250  0.90310  Biso   1.000  N
  C31      1.0000 0.14020  0.73140  0.47160  Biso   1.000  C
  H20      1.0000 0.08450  0.73440  0.50580  Biso   1.000  H
  C32      1.0000 0.25000  0.78460  0.49780  Biso   1.000  C
  H21      1.0000 0.30730  0.78850  0.46150  Biso   1.000  H
  C33      1.0000 0.28730  0.83790  0.58020  Biso   1.000  C
  N10      1.0000 0.21110  0.81670  0.64550  Biso   1.000  N
  C34      1.0000 0.39530  0.91200  0.61120  Biso   1.000  C
  H22      1.0000 0.46520  0.94100  0.58140  Biso   1.000  H
  C35      1.0000 0.27450  0.87600  0.71220  Biso   1.000  C
  H23      1.0000 0.24320  0.87340  0.76480  Biso   1.000  H
  C36      1.0000 0.29750  0.29980  0.84400  Biso   1.000  C
  H24      1.0000 0.29250  0.24680  0.80340  Biso   1.000  H
  N11      1.0000 0.38740  0.93870  0.69330  Biso   1.000  N
  N12      1.0000 0.38320  0.40910  0.84730  Biso   1.000  N
  Co4      1.0000 0.52664  0.48207  0.77171  Biso   1.000  Co
  C37      1.0000 0.43670  0.30820  0.64600  Biso   1.000  C
  O13      1.0000 0.61880  0.62610  0.87520  Biso   1.000  O
  O14      1.0000 0.52510  0.35930  0.69470  Biso   1.000  O
  C38      1.0000 0.44820  0.23370  0.57870  Biso   1.000  C
  H25      1.0000 0.51450  0.22530  0.57770  Biso   1.000  H
  C39      1.0000 0.66780  0.56830  0.89230  Biso   1.000  C
  O15      1.0000 0.34990  0.31870  0.65090  Biso   1.000  O
  O16      1.0000 0.65900  0.48740  0.84240  Biso   1.000  O
  C40      1.0000 0.45470  0.09740  0.41440  Biso   1.000  C
  H26      1.0000 0.53170  0.13030  0.43350  Biso   1.000  H
  C41      1.0000 0.36770  0.18150  0.52250  Biso   1.000  C
  H27      1.0000 0.30070  0.18800  0.52890  Biso   1.000  H
  C42      1.0000 0.36810  0.11290  0.44930  Biso   1.000  C
  N13      1.0000 0.27250  0.05260  0.40310  Biso   1.000  N
  C43      1.0000 0.73140  0.59120  0.97160  Biso   1.000  C
  H28      1.0000 0.73440  0.64990  0.00580  Biso   1.000  H
  C44      1.0000 0.78460  0.53460  0.99780  Biso   1.000  C
  H29      1.0000 0.78850  0.48120  0.96150  Biso   1.000  H
  C45      1.0000 0.83790  0.55060  0.08020  Biso   1.000  C
  N14      1.0000 0.81670  0.60560  0.14550  Biso   1.000  N
  C46      1.0000 0.91200  0.51670  0.11120  Biso   1.000  C
  H30      1.0000 0.94100  0.47580  0.08140  Biso   1.000  H
  C47      1.0000 0.87600  0.60150  0.21220  Biso   1.000  C
  H31      1.0000 0.87340  0.63020  0.26480  Biso   1.000  H
  C48      1.0000 0.29980  0.00230  0.34400  Biso   1.000  C
  H32      1.0000 0.24680  0.95430  0.30340  Biso   1.000  H
  N15      1.0000 0.93870  0.55130  0.19330  Biso   1.000  N
  N16      1.0000 0.40910  0.02590  0.34730  Biso   1.000  N
  Co5      1.0000 0.51793  0.04457  0.77171  Biso   1.000  Co
  C49      1.0000 0.69180  0.12850  0.64600  Biso   1.000  C
  O17      1.0000 0.37390  0.99270  0.87520  Biso   1.000  O
  O18      1.0000 0.64070  0.16580  0.69470  Biso   1.000  O
  C50      1.0000 0.76630  0.21450  0.57870  Biso   1.000  C
  H33      1.0000 0.77470  0.28920  0.57770  Biso   1.000  H
  C51      1.0000 0.43170  0.09950  0.89230  Biso   1.000  C
  O19      1.0000 0.68130  0.03120  0.65090  Biso   1.000  O
  O20      1.0000 0.51260  0.17160  0.84240  Biso   1.000  O
  C52      1.0000 0.90260  0.35730  0.41440  Biso   1.000  C
  H34      1.0000 0.86970  0.40140  0.43350  Biso   1.000  H
  C53      1.0000 0.81850  0.18620  0.52250  Biso   1.000  C
  H35      1.0000 0.81200  0.11270  0.52890  Biso   1.000  H
  C54      1.0000 0.88710  0.25520  0.44930  Biso   1.000  C
  N17      1.0000 0.94740  0.21990  0.40310  Biso   1.000  N
  C55      1.0000 0.40880  0.14020  0.97160  Biso   1.000  C
  H36      1.0000 0.35010  0.08450  0.00580  Biso   1.000  H
  C56      1.0000 0.46540  0.25000  0.99780  Biso   1.000  C
  H37      1.0000 0.51880  0.30730  0.96150  Biso   1.000  H
  C57      1.0000 0.44940  0.28730  0.08020  Biso   1.000  C
  N18      1.0000 0.39440  0.21110  0.14550  Biso   1.000  N
  C58      1.0000 0.48330  0.39530  0.11120  Biso   1.000  C
  H38      1.0000 0.52420  0.46520  0.08140  Biso   1.000  H
  C59      1.0000 0.39850  0.27450  0.21220  Biso   1.000  C
  H39      1.0000 0.36980  0.24320  0.26480  Biso   1.000  H
  C60      1.0000 0.99770  0.29750  0.34400  Biso   1.000  C
  H40      1.0000 0.04570  0.29250  0.30340  Biso   1.000  H
  N19      1.0000 0.44870  0.38740  0.19330  Biso   1.000  N
  N20      1.0000 0.97410  0.38320  0.34730  Biso   1.000  N
  Co6      1.0000 0.95543  0.47336  0.77171  Biso   1.000  Co
  C61      1.0000 0.87150  0.56330  0.64600  Biso   1.000  C
  O21      1.0000 0.00730  0.38120  0.87520  Biso   1.000  O
  O22      1.0000 0.83420  0.47490  0.69470  Biso   1.000  O
  C62      1.0000 0.78550  0.55180  0.57870  Biso   1.000  C
  H41      1.0000 0.71080  0.48550  0.57770  Biso   1.000  H
  C63      1.0000 0.90050  0.33220  0.89230  Biso   1.000  C
  O23      1.0000 0.96880  0.65010  0.65090  Biso   1.000  O
  O24      1.0000 0.82840  0.34100  0.84240  Biso   1.000  O
  C64      1.0000 0.64270  0.54530  0.41440  Biso   1.000  C
  H42      1.0000 0.59860  0.46830  0.43350  Biso   1.000  H
  C65      1.0000 0.81380  0.63230  0.52250  Biso   1.000  C
  H43      1.0000 0.88730  0.69930  0.52890  Biso   1.000  H
  C66      1.0000 0.74480  0.63190  0.44930  Biso   1.000  C
  N21      1.0000 0.78010  0.72750  0.40310  Biso   1.000  N
  C67      1.0000 0.85980  0.26860  0.97160  Biso   1.000  C
  H44      1.0000 0.91550  0.26560  0.00580  Biso   1.000  H
  C68      1.0000 0.75000  0.21540  0.99780  Biso   1.000  C
  H45      1.0000 0.69270  0.21150  0.96150  Biso   1.000  H
  C69      1.0000 0.71270  0.16210  0.08020  Biso   1.000  C
  N22      1.0000 0.78890  0.18330  0.14550  Biso   1.000  N
  C70      1.0000 0.60470  0.08800  0.11120  Biso   1.000  C
  H46      1.0000 0.53480  0.05900  0.08140  Biso   1.000  H
  C71      1.0000 0.72550  0.12400  0.21220  Biso   1.000  C
  H47      1.0000 0.75680  0.12660  0.26480  Biso   1.000  H
  C72      1.0000 0.70250  0.70020  0.34400  Biso   1.000  C
  H48      1.0000 0.70750  0.75320  0.30340  Biso   1.000  H
  N23      1.0000 0.61260  0.06130  0.19330  Biso   1.000  N
  N24      1.0000 0.61680  0.59090  0.34730  Biso   1.000  N
  Na1      1.0000 0.33333  0.66667  0.27040  Biso   1.000  Na
  Na2      1.0000 0.66667  0.33333  0.77040  Biso   1.000  Na
