data_image0
_cell_length_a       13.1177
_cell_length_b       13.1177
_cell_length_c       16.005
_cell_angle_alpha    90
_cell_angle_beta     90
_cell_angle_gamma    120

_symmetry_space_group_name_H-M    "P 1"
_symmetry_int_tables_number       1

loop_
  _symmetry_equiv_pos_as_xyz
  'x, y, z'

loop_
  _atom_site_label
  _atom_site_occupancy
  _atom_site_fract_x
  _atom_site_fract_y
  _atom_site_fract_z
  _atom_site_thermal_displace_type
  _atom_site_B_iso_or_equiv
  _atom_site_type_symbol
  Co1      1.0000 0.04430  0.52597  0.09155  Biso   1.000  Co
  O1       1.0000 0.16570  0.52500  0.16780  Biso   1.000  O
  O2       1.0000 0.17200  0.65880  0.02020  Biso   1.000  O
  C1       1.0000 0.12720  0.43620  0.21650  Biso   1.000  C
  C2       1.0000 0.09940  0.66750  0.97080  Biso   1.000  C
  O3       1.0000 0.03130  0.35060  0.21160  Biso   1.000  O
  O4       1.0000 0.99260  0.61870  0.98720  Biso   1.000  O
  C3       1.0000 0.18630  0.36780  0.34030  Biso   1.000  C
  H1       1.0000 0.11310  0.30060  0.33360  Biso   1.000  H
  C4       1.0000 0.25090  0.78560  0.86480  Biso   1.000  C
  H2       1.0000 0.30850  0.79000  0.90100  Biso   1.000  H
  C5       1.0000 0.28770  0.83860  0.78140  Biso   1.000  C
  C6       1.0000 0.14100  0.73210  0.89130  Biso   1.000  C
  H3       1.0000 0.08540  0.73540  0.85710  Biso   1.000  H
  C7       1.0000 0.39570  0.91390  0.75040  Biso   1.000  C
  N1       1.0000 0.21140  0.81800  0.71720  Biso   1.000  N
  H4       1.0000 0.13600  0.77520  0.71910  Biso   1.000  H
  N2       1.0000 0.38680  0.93900  0.66970  Biso   1.000  N
  C8       1.0000 0.35740  0.45450  0.44710  Biso   1.000  C
  H5       1.0000 0.40250  0.53080  0.42680  Biso   1.000  H
  N3       1.0000 0.38300  0.40880  0.51620  Biso   1.000  N
  C9       1.0000 0.29670  0.30010  0.51860  Biso   1.000  C
  H6       1.0000 0.29140  0.24660  0.55890  Biso   1.000  H
  C10      1.0000 0.27650  0.87740  0.64990  Biso   1.000  C
  N4       1.0000 0.21850  0.27290  0.45970  Biso   1.000  N
  H7       1.0000 0.15590  0.20580  0.45230  Biso   1.000  H
  C11      1.0000 0.25460  0.36880  0.41360  Biso   1.000  C
  C12      1.0000 0.21530  0.44910  0.28380  Biso   1.000  C
  H8       1.0000 0.29010  0.51530  0.28440  Biso   1.000  H
  H9       1.0000 0.48600  0.93500  0.77000  Biso   1.000  H
  Co2      1.0000 0.47403  0.51833  0.09155  Biso   1.000  Co
  O5       1.0000 0.47500  0.64070  0.16780  Biso   1.000  O
  O6       1.0000 0.34120  0.51320  0.02020  Biso   1.000  O
  C13      1.0000 0.56380  0.69100  0.21650  Biso   1.000  C
  C14      1.0000 0.33250  0.43190  0.97080  Biso   1.000  C
  O7       1.0000 0.64940  0.68070  0.21160  Biso   1.000  O
  O8       1.0000 0.38130  0.37390  0.98720  Biso   1.000  O
  C15      1.0000 0.63220  0.81850  0.34030  Biso   1.000  C
  H10      1.0000 0.69940  0.81250  0.33360  Biso   1.000  H
  C16      1.0000 0.21440  0.46530  0.86480  Biso   1.000  C
  H11      1.0000 0.21000  0.51850  0.90100  Biso   1.000  H
  C17      1.0000 0.16140  0.44910  0.78140  Biso   1.000  C
  C18      1.0000 0.26790  0.40890  0.89130  Biso   1.000  C
  H12      1.0000 0.26460  0.35000  0.85710  Biso   1.000  H
  C19      1.0000 0.08610  0.48180  0.75040  Biso   1.000  C
  N5       1.0000 0.18200  0.39340  0.71720  Biso   1.000  N
  H13      1.0000 0.22480  0.36080  0.71910  Biso   1.000  H
  N6       1.0000 0.06100  0.44780  0.66970  Biso   1.000  N
  C20      1.0000 0.54550  0.90290  0.44710  Biso   1.000  C
  H14      1.0000 0.46920  0.87170  0.42680  Biso   1.000  H
  N7       1.0000 0.59120  0.97420  0.51620  Biso   1.000  N
  C21      1.0000 0.69990  0.99660  0.51860  Biso   1.000  C
  H15      1.0000 0.75340  0.04480  0.55890  Biso   1.000  H
  C22      1.0000 0.12260  0.39910  0.64990  Biso   1.000  C
  N8       1.0000 0.72710  0.94560  0.45970  Biso   1.000  N
  H16      1.0000 0.79420  0.95010  0.45230  Biso   1.000  H
  C23      1.0000 0.63120  0.88580  0.41360  Biso   1.000  C
  C24      1.0000 0.55090  0.76620  0.28380  Biso   1.000  C
  H17      1.0000 0.48470  0.77480  0.28440  Biso   1.000  H
  H18      1.0000 0.06500  0.55100  0.77000  Biso   1.000  H
  Co3      1.0000 0.48167  0.95570  0.09155  Biso   1.000  Co
  O9       1.0000 0.35930  0.83430  0.16780  Biso   1.000  O
  O10      1.0000 0.48680  0.82800  0.02020  Biso   1.000  O
  C25      1.0000 0.30900  0.87280  0.21650  Biso   1.000  C
  C26      1.0000 0.56810  0.90060  0.97080  Biso   1.000  C
  O11      1.0000 0.31930  0.96870  0.21160  Biso   1.000  O
  O12      1.0000 0.62610  0.00740  0.98720  Biso   1.000  O
  C27      1.0000 0.18150  0.81370  0.34030  Biso   1.000  C
  H19      1.0000 0.18750  0.88690  0.33360  Biso   1.000  H
  C28      1.0000 0.53470  0.74910  0.86480  Biso   1.000  C
  H20      1.0000 0.48150  0.69150  0.90100  Biso   1.000  H
  C29      1.0000 0.55090  0.71230  0.78140  Biso   1.000  C
  C30      1.0000 0.59110  0.85900  0.89130  Biso   1.000  C
  H21      1.0000 0.65000  0.91460  0.85710  Biso   1.000  H
  C31      1.0000 0.51820  0.60430  0.75040  Biso   1.000  C
  N9       1.0000 0.60660  0.78860  0.71720  Biso   1.000  N
  H22      1.0000 0.63920  0.86400  0.71910  Biso   1.000  H
  N10      1.0000 0.55220  0.61320  0.66970  Biso   1.000  N
  C32      1.0000 0.09710  0.64260  0.44710  Biso   1.000  C
  H23      1.0000 0.12830  0.59750  0.42680  Biso   1.000  H
  N11      1.0000 0.02580  0.61700  0.51620  Biso   1.000  N
  C33      1.0000 0.00340  0.70330  0.51860  Biso   1.000  C
  H24      1.0000 0.95520  0.70860  0.55890  Biso   1.000  H
  C34      1.0000 0.60090  0.72350  0.64990  Biso   1.000  C
  N12      1.0000 0.05440  0.78150  0.45970  Biso   1.000  N
  H25      1.0000 0.04990  0.84410  0.45230  Biso   1.000  H
  C35      1.0000 0.11420  0.74540  0.41360  Biso   1.000  C
  C36      1.0000 0.23380  0.78470  0.28380  Biso   1.000  C
  H26      1.0000 0.22520  0.70990  0.28440  Biso   1.000  H
  H27      1.0000 0.44900  0.51400  0.77000  Biso   1.000  H
  Co4      1.0000 0.95570  0.47403  0.59155  Biso   1.000  Co
  O13      1.0000 0.83430  0.47500  0.66780  Biso   1.000  O
  O14      1.0000 0.82800  0.34120  0.52020  Biso   1.000  O
  C37      1.0000 0.87280  0.56380  0.71650  Biso   1.000  C
  C38      1.0000 0.90060  0.33250  0.47080  Biso   1.000  C
  O15      1.0000 0.96870  0.64940  0.71160  Biso   1.000  O
  O16      1.0000 0.00740  0.38130  0.48720  Biso   1.000  O
  C39      1.0000 0.81370  0.63220  0.84030  Biso   1.000  C
  H28      1.0000 0.88690  0.69940  0.83360  Biso   1.000  H
  C40      1.0000 0.74910  0.21440  0.36480  Biso   1.000  C
  H29      1.0000 0.69150  0.21000  0.40100  Biso   1.000  H
  C41      1.0000 0.71230  0.16140  0.28140  Biso   1.000  C
  C42      1.0000 0.85900  0.26790  0.39130  Biso   1.000  C
  H30      1.0000 0.91460  0.26460  0.35710  Biso   1.000  H
  C43      1.0000 0.60430  0.08610  0.25040  Biso   1.000  C
  N13      1.0000 0.78860  0.18200  0.21720  Biso   1.000  N
  H31      1.0000 0.86400  0.22480  0.21910  Biso   1.000  H
  N14      1.0000 0.61320  0.06100  0.16970  Biso   1.000  N
  C44      1.0000 0.64260  0.54550  0.94710  Biso   1.000  C
  H32      1.0000 0.59750  0.46920  0.92680  Biso   1.000  H
  N15      1.0000 0.61700  0.59120  0.01620  Biso   1.000  N
  C45      1.0000 0.70330  0.69990  0.01860  Biso   1.000  C
  H33      1.0000 0.70860  0.75340  0.05890  Biso   1.000  H
  C46      1.0000 0.72350  0.12260  0.14990  Biso   1.000  C
  N16      1.0000 0.78150  0.72710  0.95970  Biso   1.000  N
  H34      1.0000 0.84410  0.79420  0.95230  Biso   1.000  H
  C47      1.0000 0.74540  0.63120  0.91360  Biso   1.000  C
  C48      1.0000 0.78470  0.55090  0.78380  Biso   1.000  C
  H35      1.0000 0.70990  0.48470  0.78440  Biso   1.000  H
  H36      1.0000 0.51400  0.06500  0.27000  Biso   1.000  H
  Co5      1.0000 0.52597  0.48167  0.59155  Biso   1.000  Co
  O17      1.0000 0.52500  0.35930  0.66780  Biso   1.000  O
  O18      1.0000 0.65880  0.48680  0.52020  Biso   1.000  O
  C49      1.0000 0.43620  0.30900  0.71650  Biso   1.000  C
  C50      1.0000 0.66750  0.56810  0.47080  Biso   1.000  C
  O19      1.0000 0.35060  0.31930  0.71160  Biso   1.000  O
  O20      1.0000 0.61870  0.62610  0.48720  Biso   1.000  O
  C51      1.0000 0.36780  0.18150  0.84030  Biso   1.000  C
  H37      1.0000 0.30060  0.18750  0.83360  Biso   1.000  H
  C52      1.0000 0.78560  0.53470  0.36480  Biso   1.000  C
  H38      1.0000 0.79000  0.48150  0.40100  Biso   1.000  H
  C53      1.0000 0.83860  0.55090  0.28140  Biso   1.000  C
  C54      1.0000 0.73210  0.59110  0.39130  Biso   1.000  C
  H39      1.0000 0.73540  0.65000  0.35710  Biso   1.000  H
  C55      1.0000 0.91390  0.51820  0.25040  Biso   1.000  C
  N17      1.0000 0.81800  0.60660  0.21720  Biso   1.000  N
  H40      1.0000 0.77520  0.63920  0.21910  Biso   1.000  H
  N18      1.0000 0.93900  0.55220  0.16970  Biso   1.000  N
  C56      1.0000 0.45450  0.09710  0.94710  Biso   1.000  C
  H41      1.0000 0.53080  0.12830  0.92680  Biso   1.000  H
  N19      1.0000 0.40880  0.02580  0.01620  Biso   1.000  N
  C57      1.0000 0.30010  0.00340  0.01860  Biso   1.000  C
  H42      1.0000 0.24660  0.95520  0.05890  Biso   1.000  H
  C58      1.0000 0.87740  0.60090  0.14990  Biso   1.000  C
  N20      1.0000 0.27290  0.05440  0.95970  Biso   1.000  N
  H43      1.0000 0.20580  0.04990  0.95230  Biso   1.000  H
  C59      1.0000 0.36880  0.11420  0.91360  Biso   1.000  C
  C60      1.0000 0.44910  0.23380  0.78380  Biso   1.000  C
  H44      1.0000 0.51530  0.22520  0.78440  Biso   1.000  H
  H45      1.0000 0.93500  0.44900  0.27000  Biso   1.000  H
  Co6      1.0000 0.51833  0.04430  0.59155  Biso   1.000  Co
  O21      1.0000 0.64070  0.16570  0.66780  Biso   1.000  O
  O22      1.0000 0.51320  0.17200  0.52020  Biso   1.000  O
  C61      1.0000 0.69100  0.12720  0.71650  Biso   1.000  C
  C62      1.0000 0.43190  0.09940  0.47080  Biso   1.000  C
  O23      1.0000 0.68070  0.03130  0.71160  Biso   1.000  O
  O24      1.0000 0.37390  0.99260  0.48720  Biso   1.000  O
  C63      1.0000 0.81850  0.18630  0.84030  Biso   1.000  C
  H46      1.0000 0.81250  0.11310  0.83360  Biso   1.000  H
  C64      1.0000 0.46530  0.25090  0.36480  Biso   1.000  C
  H47      1.0000 0.51850  0.30850  0.40100  Biso   1.000  H
  C65      1.0000 0.44910  0.28770  0.28140  Biso   1.000  C
  C66      1.0000 0.40890  0.14100  0.39130  Biso   1.000  C
  H48      1.0000 0.35000  0.08540  0.35710  Biso   1.000  H
  C67      1.0000 0.48180  0.39570  0.25040  Biso   1.000  C
  N21      1.0000 0.39340  0.21140  0.21720  Biso   1.000  N
  H49      1.0000 0.36080  0.13600  0.21910  Biso   1.000  H
  N22      1.0000 0.44780  0.38680  0.16970  Biso   1.000  N
  C68      1.0000 0.90290  0.35740  0.94710  Biso   1.000  C
  H50      1.0000 0.87170  0.40250  0.92680  Biso   1.000  H
  N23      1.0000 0.97420  0.38300  0.01620  Biso   1.000  N
  C69      1.0000 0.99660  0.29670  0.01860  Biso   1.000  C
  H51      1.0000 0.04480  0.29140  0.05890  Biso   1.000  H
  C70      1.0000 0.39910  0.27650  0.14990  Biso   1.000  C
  N24      1.0000 0.94560  0.21850  0.95970  Biso   1.000  N
  H52      1.0000 0.95010  0.15590  0.95230  Biso   1.000  H
  C71      1.0000 0.88580  0.25460  0.91360  Biso   1.000  C
  C72      1.0000 0.76620  0.21530  0.78380  Biso   1.000  C
  H53      1.0000 0.77480  0.29010  0.78440  Biso   1.000  H
  H54      1.0000 0.55100  0.48600  0.27000  Biso   1.000  H
  Na1      1.0000 0.33333  0.66667  0.09310  Biso   1.000  Na
  Na2      1.0000 0.66667  0.33333  0.59310  Biso   1.000  Na
