data_image0
_cell_length_a       28.9589
_cell_length_b       28.9589
_cell_length_c       14.5653
_cell_angle_alpha    90
_cell_angle_beta     90
_cell_angle_gamma    120

_symmetry_space_group_name_H-M    "P 1"
_symmetry_int_tables_number       1

loop_
  _symmetry_equiv_pos_as_xyz
  'x, y, z'

loop_
  _atom_site_label
  _atom_site_occupancy
  _atom_site_fract_x
  _atom_site_fract_y
  _atom_site_fract_z
  _atom_site_thermal_displace_type
  _atom_site_B_iso_or_equiv
  _atom_site_type_symbol
  Ag1      1.0000 0.60166  0.06353  0.74324  Biso   1.000  Ag
  C1       1.0000 0.70250  0.11460  0.60830  Biso   1.000  C
  N1       1.0000 0.79136  0.20348  0.87670  Biso   1.000  N
  N2       1.0000 0.65483  0.06975  0.62210  Biso   1.000  N
  C2       1.0000 0.72775  0.16557  0.75590  Biso   1.000  C
  N3       1.0000 0.69089  0.12840  0.81200  Biso   1.000  N
  C3       1.0000 0.77770  0.20186  0.78730  Biso   1.000  C
  H1       1.0000 0.80320  0.22650  0.74540  Biso   1.000  H
  C4       1.0000 0.71250  0.16430  0.65730  Biso   1.000  C
  H2       1.0000 0.74140  0.19560  0.62540  Biso   1.000  H
  H3       1.0000 0.67990  0.16720  0.65410  Biso   1.000  H
  N4       1.0000 0.73122  0.06960  0.50570  Biso   1.000  N
  C5       1.0000 0.75480  0.16650  0.93150  Biso   1.000  C
  H4       1.0000 0.76310  0.16650  0.99460  Biso   1.000  H
  C6       1.0000 0.74030  0.11370  0.55070  Biso   1.000  C
  H5       1.0000 0.77360  0.14540  0.54290  Biso   1.000  H
  C7       1.0000 0.70580  0.12870  0.90060  Biso   1.000  C
  H6       1.0000 0.68170  0.10200  0.94170  Biso   1.000  H
  C8       1.0000 0.68340  0.02630  0.51840  Biso   1.000  C
  H7       1.0000 0.67490  0.99470  0.48580  Biso   1.000  H
  C9       1.0000 0.64620  0.02620  0.57750  Biso   1.000  C
  H8       1.0000 0.61340  0.99400  0.58660  Biso   1.000  H
  Ag2      1.0000 0.26833  0.39686  0.07657  Biso   1.000  Ag
  C10      1.0000 0.36917  0.44793  0.94163  Biso   1.000  C
  N5       1.0000 0.45803  0.53681  0.21003  Biso   1.000  N
  N6       1.0000 0.32150  0.40308  0.95543  Biso   1.000  N
  C11      1.0000 0.39442  0.49890  0.08923  Biso   1.000  C
  N7       1.0000 0.35756  0.46173  0.14533  Biso   1.000  N
  C12      1.0000 0.44437  0.53519  0.12063  Biso   1.000  C
  H9       1.0000 0.46987  0.55983  0.07873  Biso   1.000  H
  C13      1.0000 0.37917  0.49763  0.99063  Biso   1.000  C
  H10      1.0000 0.40807  0.52893  0.95873  Biso   1.000  H
  H11      1.0000 0.34657  0.50053  0.98743  Biso   1.000  H
  N8       1.0000 0.39789  0.40293  0.83903  Biso   1.000  N
  C14      1.0000 0.42147  0.49983  0.26483  Biso   1.000  C
  H12      1.0000 0.42977  0.49983  0.32793  Biso   1.000  H
  C15      1.0000 0.40697  0.44703  0.88403  Biso   1.000  C
  H13      1.0000 0.44027  0.47873  0.87623  Biso   1.000  H
  C16      1.0000 0.37247  0.46203  0.23393  Biso   1.000  C
  H14      1.0000 0.34837  0.43533  0.27503  Biso   1.000  H
  C17      1.0000 0.35007  0.35963  0.85173  Biso   1.000  C
  H15      1.0000 0.34157  0.32803  0.81913  Biso   1.000  H
  C18      1.0000 0.31287  0.35953  0.91083  Biso   1.000  C
  H16      1.0000 0.28007  0.32733  0.91993  Biso   1.000  H
  Ag3      1.0000 0.93499  0.73020  0.40991  Biso   1.000  Ag
  C19      1.0000 0.03583  0.78127  0.27497  Biso   1.000  C
  N9       1.0000 0.12469  0.87015  0.54337  Biso   1.000  N
  N10      1.0000 0.98816  0.73642  0.28877  Biso   1.000  N
  C20      1.0000 0.06108  0.83224  0.42257  Biso   1.000  C
  N11      1.0000 0.02422  0.79507  0.47867  Biso   1.000  N
  C21      1.0000 0.11103  0.86853  0.45397  Biso   1.000  C
  H17      1.0000 0.13653  0.89317  0.41207  Biso   1.000  H
  C22      1.0000 0.04583  0.83097  0.32397  Biso   1.000  C
  H18      1.0000 0.07473  0.86227  0.29207  Biso   1.000  H
  H19      1.0000 0.01323  0.83387  0.32077  Biso   1.000  H
  N12      1.0000 0.06455  0.73627  0.17237  Biso   1.000  N
  C23      1.0000 0.08813  0.83317  0.59817  Biso   1.000  C
  H20      1.0000 0.09643  0.83317  0.66127  Biso   1.000  H
  C24      1.0000 0.07363  0.78037  0.21737  Biso   1.000  C
  H21      1.0000 0.10693  0.81207  0.20957  Biso   1.000  H
  C25      1.0000 0.03913  0.79537  0.56727  Biso   1.000  C
  H22      1.0000 0.01503  0.76867  0.60837  Biso   1.000  H
  C26      1.0000 0.01673  0.69297  0.18507  Biso   1.000  C
  H23      1.0000 0.00823  0.66137  0.15247  Biso   1.000  H
  C27      1.0000 0.97953  0.69287  0.24417  Biso   1.000  C
  H24      1.0000 0.94673  0.66067  0.25327  Biso   1.000  H
  Ag4      1.0000 0.93647  0.53813  0.74324  Biso   1.000  Ag
  C28      1.0000 0.88540  0.58790  0.60830  Biso   1.000  C
  N13      1.0000 0.79652  0.58788  0.87670  Biso   1.000  N
  N14      1.0000 0.93025  0.58508  0.62210  Biso   1.000  N
  C29      1.0000 0.83443  0.56218  0.75590  Biso   1.000  C
  N15      1.0000 0.87160  0.56249  0.81200  Biso   1.000  N
  C30      1.0000 0.79814  0.57584  0.78730  Biso   1.000  C
  H25      1.0000 0.77350  0.57670  0.74540  Biso   1.000  H
  C31      1.0000 0.83570  0.54820  0.65730  Biso   1.000  C
  H26      1.0000 0.80440  0.54580  0.62540  Biso   1.000  H
  H27      1.0000 0.83280  0.51270  0.65410  Biso   1.000  H
  N16      1.0000 0.93040  0.66162  0.50570  Biso   1.000  N
  C32      1.0000 0.83350  0.58830  0.93150  Biso   1.000  C
  H28      1.0000 0.83350  0.59660  0.99460  Biso   1.000  H
  C33      1.0000 0.88630  0.62660  0.55070  Biso   1.000  C
  H29      1.0000 0.85460  0.62820  0.54290  Biso   1.000  H
  C34      1.0000 0.87130  0.57710  0.90060  Biso   1.000  C
  H30      1.0000 0.89800  0.57970  0.94170  Biso   1.000  H
  C35      1.0000 0.97370  0.65710  0.51840  Biso   1.000  C
  H31      1.0000 0.00530  0.68020  0.48580  Biso   1.000  H
  C36      1.0000 0.97380  0.62000  0.57750  Biso   1.000  C
  H32      1.0000 0.00600  0.61940  0.58660  Biso   1.000  H
  Ag5      1.0000 0.60314  0.87146  0.07657  Biso   1.000  Ag
  C37      1.0000 0.55207  0.92123  0.94163  Biso   1.000  C
  N17      1.0000 0.46319  0.92121  0.21003  Biso   1.000  N
  N18      1.0000 0.59692  0.91841  0.95543  Biso   1.000  N
  C38      1.0000 0.50110  0.89551  0.08923  Biso   1.000  C
  N19      1.0000 0.53827  0.89582  0.14533  Biso   1.000  N
  C39      1.0000 0.46481  0.90917  0.12063  Biso   1.000  C
  H33      1.0000 0.44017  0.91003  0.07873  Biso   1.000  H
  C40      1.0000 0.50237  0.88153  0.99063  Biso   1.000  C
  H34      1.0000 0.47107  0.87913  0.95873  Biso   1.000  H
  H35      1.0000 0.49947  0.84603  0.98743  Biso   1.000  H
  N20      1.0000 0.59707  0.99495  0.83903  Biso   1.000  N
  C41      1.0000 0.50017  0.92163  0.26483  Biso   1.000  C
  H36      1.0000 0.50017  0.92993  0.32793  Biso   1.000  H
  C42      1.0000 0.55297  0.95993  0.88403  Biso   1.000  C
  H37      1.0000 0.52127  0.96153  0.87623  Biso   1.000  H
  C43      1.0000 0.53797  0.91043  0.23393  Biso   1.000  C
  H38      1.0000 0.56467  0.91303  0.27503  Biso   1.000  H
  C44      1.0000 0.64037  0.99043  0.85173  Biso   1.000  C
  H39      1.0000 0.67197  0.01353  0.81913  Biso   1.000  H
  C45      1.0000 0.64047  0.95333  0.91083  Biso   1.000  C
  H40      1.0000 0.67267  0.95273  0.91993  Biso   1.000  H
  Ag6      1.0000 0.26980  0.20480  0.40991  Biso   1.000  Ag
  C46      1.0000 0.21873  0.25457  0.27497  Biso   1.000  C
  N21      1.0000 0.12985  0.25455  0.54337  Biso   1.000  N
  N22      1.0000 0.26358  0.25175  0.28877  Biso   1.000  N
  C47      1.0000 0.16776  0.22885  0.42257  Biso   1.000  C
  N23      1.0000 0.20493  0.22916  0.47867  Biso   1.000  N
  C48      1.0000 0.13147  0.24251  0.45397  Biso   1.000  C
  H41      1.0000 0.10683  0.24337  0.41207  Biso   1.000  H
  C49      1.0000 0.16903  0.21487  0.32397  Biso   1.000  C
  H42      1.0000 0.13773  0.21247  0.29207  Biso   1.000  H
  H43      1.0000 0.16613  0.17937  0.32077  Biso   1.000  H
  N24      1.0000 0.26373  0.32829  0.17237  Biso   1.000  N
  C50      1.0000 0.16683  0.25497  0.59817  Biso   1.000  C
  H44      1.0000 0.16683  0.26327  0.66127  Biso   1.000  H
  C51      1.0000 0.21963  0.29327  0.21737  Biso   1.000  C
  H45      1.0000 0.18793  0.29487  0.20957  Biso   1.000  H
  C52      1.0000 0.20463  0.24377  0.56727  Biso   1.000  C
  H46      1.0000 0.23133  0.24637  0.60837  Biso   1.000  H
  C53      1.0000 0.30703  0.32377  0.18507  Biso   1.000  C
  H47      1.0000 0.33863  0.34687  0.15247  Biso   1.000  H
  C54      1.0000 0.30713  0.28667  0.24417  Biso   1.000  C
  H48      1.0000 0.33933  0.28607  0.25327  Biso   1.000  H
  Ag7      1.0000 0.46187  0.39834  0.74324  Biso   1.000  Ag
  C55      1.0000 0.41210  0.29750  0.60830  Biso   1.000  C
  N25      1.0000 0.41212  0.20864  0.87670  Biso   1.000  N
  N26      1.0000 0.41492  0.34517  0.62210  Biso   1.000  N
  C56      1.0000 0.43782  0.27225  0.75590  Biso   1.000  C
  N27      1.0000 0.43751  0.30911  0.81200  Biso   1.000  N
  C57      1.0000 0.42416  0.22230  0.78730  Biso   1.000  C
  H49      1.0000 0.42330  0.19680  0.74540  Biso   1.000  H
  C58      1.0000 0.45180  0.28750  0.65730  Biso   1.000  C
  H50      1.0000 0.45420  0.25860  0.62540  Biso   1.000  H
  H51      1.0000 0.48730  0.32010  0.65410  Biso   1.000  H
  N28      1.0000 0.33838  0.26878  0.50570  Biso   1.000  N
  C59      1.0000 0.41170  0.24520  0.93150  Biso   1.000  C
  H52      1.0000 0.40340  0.23690  0.99460  Biso   1.000  H
  C60      1.0000 0.37340  0.25970  0.55070  Biso   1.000  C
  H53      1.0000 0.37180  0.22640  0.54290  Biso   1.000  H
  C61      1.0000 0.42290  0.29420  0.90060  Biso   1.000  C
  H54      1.0000 0.42030  0.31830  0.94170  Biso   1.000  H
  C62      1.0000 0.34290  0.31660  0.51840  Biso   1.000  C
  H55      1.0000 0.31980  0.32510  0.48580  Biso   1.000  H
  C63      1.0000 0.38000  0.35380  0.57750  Biso   1.000  C
  H56      1.0000 0.38060  0.38660  0.58660  Biso   1.000  H
  Ag8      1.0000 0.12854  0.73167  0.07657  Biso   1.000  Ag
  C64      1.0000 0.07877  0.63083  0.94163  Biso   1.000  C
  N29      1.0000 0.07879  0.54197  0.21003  Biso   1.000  N
  N30      1.0000 0.08159  0.67850  0.95543  Biso   1.000  N
  C65      1.0000 0.10449  0.60558  0.08923  Biso   1.000  C
  N31      1.0000 0.10418  0.64244  0.14533  Biso   1.000  N
  C66      1.0000 0.09083  0.55563  0.12063  Biso   1.000  C
  H57      1.0000 0.08997  0.53013  0.07873  Biso   1.000  H
  C67      1.0000 0.11847  0.62083  0.99063  Biso   1.000  C
  H58      1.0000 0.12087  0.59193  0.95873  Biso   1.000  H
  H59      1.0000 0.15397  0.65343  0.98743  Biso   1.000  H
  N32      1.0000 0.00505  0.60211  0.83903  Biso   1.000  N
  C68      1.0000 0.07837  0.57853  0.26483  Biso   1.000  C
  H60      1.0000 0.07007  0.57023  0.32793  Biso   1.000  H
  C69      1.0000 0.04007  0.59303  0.88403  Biso   1.000  C
  H61      1.0000 0.03847  0.55973  0.87623  Biso   1.000  H
  C70      1.0000 0.08957  0.62753  0.23393  Biso   1.000  C
  H62      1.0000 0.08697  0.65163  0.27503  Biso   1.000  H
  C71      1.0000 0.00957  0.64993  0.85173  Biso   1.000  C
  H63      1.0000 0.98647  0.65843  0.81913  Biso   1.000  H
  C72      1.0000 0.04667  0.68713  0.91083  Biso   1.000  C
  H64      1.0000 0.04727  0.71993  0.91993  Biso   1.000  H
  Ag9      1.0000 0.79520  0.06501  0.40991  Biso   1.000  Ag
  C73      1.0000 0.74543  0.96417  0.27497  Biso   1.000  C
  N33      1.0000 0.74545  0.87531  0.54337  Biso   1.000  N
  N34      1.0000 0.74825  0.01184  0.28877  Biso   1.000  N
  C74      1.0000 0.77115  0.93892  0.42257  Biso   1.000  C
  N35      1.0000 0.77084  0.97578  0.47867  Biso   1.000  N
  C75      1.0000 0.75749  0.88897  0.45397  Biso   1.000  C
  H65      1.0000 0.75663  0.86347  0.41207  Biso   1.000  H
  C76      1.0000 0.78513  0.95417  0.32397  Biso   1.000  C
  H66      1.0000 0.78753  0.92527  0.29207  Biso   1.000  H
  H67      1.0000 0.82063  0.98677  0.32077  Biso   1.000  H
  N36      1.0000 0.67171  0.93545  0.17237  Biso   1.000  N
  C77      1.0000 0.74503  0.91187  0.59817  Biso   1.000  C
  H68      1.0000 0.73673  0.90357  0.66127  Biso   1.000  H
  C78      1.0000 0.70673  0.92637  0.21737  Biso   1.000  C
  H69      1.0000 0.70513  0.89307  0.20957  Biso   1.000  H
  C79      1.0000 0.75623  0.96087  0.56727  Biso   1.000  C
  H70      1.0000 0.75363  0.98497  0.60837  Biso   1.000  H
  C80      1.0000 0.67623  0.98327  0.18507  Biso   1.000  C
  H71      1.0000 0.65313  0.99177  0.15247  Biso   1.000  H
  C81      1.0000 0.71333  0.02047  0.24417  Biso   1.000  C
  H72      1.0000 0.71393  0.05327  0.25327  Biso   1.000  H
  Ag10     1.0000 0.39834  0.93647  0.25676  Biso   1.000  Ag
  C82      1.0000 0.29750  0.88540  0.39170  Biso   1.000  C
  N37      1.0000 0.20864  0.79652  0.12330  Biso   1.000  N
  N38      1.0000 0.34517  0.93025  0.37790  Biso   1.000  N
  C83      1.0000 0.27225  0.83443  0.24410  Biso   1.000  C
  N39      1.0000 0.30911  0.87160  0.18800  Biso   1.000  N
  C84      1.0000 0.22230  0.79814  0.21270  Biso   1.000  C
  H73      1.0000 0.19680  0.77350  0.25460  Biso   1.000  H
  C85      1.0000 0.28750  0.83570  0.34270  Biso   1.000  C
  H74      1.0000 0.25860  0.80440  0.37460  Biso   1.000  H
  H75      1.0000 0.32010  0.83280  0.34590  Biso   1.000  H
  N40      1.0000 0.26878  0.93040  0.49430  Biso   1.000  N
  C86      1.0000 0.24520  0.83350  0.06850  Biso   1.000  C
  H76      1.0000 0.23690  0.83350  0.00540  Biso   1.000  H
  C87      1.0000 0.25970  0.88630  0.44930  Biso   1.000  C
  H77      1.0000 0.22640  0.85460  0.45710  Biso   1.000  H
  C88      1.0000 0.29420  0.87130  0.09940  Biso   1.000  C
  H78      1.0000 0.31830  0.89800  0.05830  Biso   1.000  H
  C89      1.0000 0.31660  0.97370  0.48160  Biso   1.000  C
  H79      1.0000 0.32510  0.00530  0.51420  Biso   1.000  H
  C90      1.0000 0.35380  0.97380  0.42250  Biso   1.000  C
  H80      1.0000 0.38660  0.00600  0.41340  Biso   1.000  H
  Ag11     1.0000 0.06501  0.26980  0.59009  Biso   1.000  Ag
  C91      1.0000 0.96417  0.21873  0.72503  Biso   1.000  C
  N41      1.0000 0.87531  0.12985  0.45663  Biso   1.000  N
  N42      1.0000 0.01184  0.26358  0.71123  Biso   1.000  N
  C92      1.0000 0.93892  0.16776  0.57743  Biso   1.000  C
  N43      1.0000 0.97578  0.20493  0.52133  Biso   1.000  N
  C93      1.0000 0.88897  0.13147  0.54603  Biso   1.000  C
  H81      1.0000 0.86347  0.10683  0.58793  Biso   1.000  H
  C94      1.0000 0.95417  0.16903  0.67603  Biso   1.000  C
  H82      1.0000 0.92527  0.13773  0.70793  Biso   1.000  H
  H83      1.0000 0.98677  0.16613  0.67923  Biso   1.000  H
  N44      1.0000 0.93545  0.26373  0.82763  Biso   1.000  N
  C95      1.0000 0.91187  0.16683  0.40183  Biso   1.000  C
  H84      1.0000 0.90357  0.16683  0.33873  Biso   1.000  H
  C96      1.0000 0.92637  0.21963  0.78263  Biso   1.000  C
  H85      1.0000 0.89307  0.18793  0.79043  Biso   1.000  H
  C97      1.0000 0.96087  0.20463  0.43273  Biso   1.000  C
  H86      1.0000 0.98497  0.23133  0.39163  Biso   1.000  H
  C98      1.0000 0.98327  0.30703  0.81493  Biso   1.000  C
  H87      1.0000 0.99177  0.33863  0.84753  Biso   1.000  H
  C99      1.0000 0.02047  0.30713  0.75583  Biso   1.000  C
  H88      1.0000 0.05327  0.33933  0.74673  Biso   1.000  H
  Ag12     1.0000 0.73167  0.60314  0.92343  Biso   1.000  Ag
  C100     1.0000 0.63083  0.55207  0.05837  Biso   1.000  C
  N45      1.0000 0.54197  0.46319  0.78997  Biso   1.000  N
  N46      1.0000 0.67850  0.59692  0.04457  Biso   1.000  N
  C101     1.0000 0.60558  0.50110  0.91077  Biso   1.000  C
  N47      1.0000 0.64244  0.53827  0.85467  Biso   1.000  N
  C102     1.0000 0.55563  0.46481  0.87937  Biso   1.000  C
  H89      1.0000 0.53013  0.44017  0.92127  Biso   1.000  H
  C103     1.0000 0.62083  0.50237  0.00937  Biso   1.000  C
  H90      1.0000 0.59193  0.47107  0.04127  Biso   1.000  H
  H91      1.0000 0.65343  0.49947  0.01257  Biso   1.000  H
  N48      1.0000 0.60211  0.59707  0.16097  Biso   1.000  N
  C104     1.0000 0.57853  0.50017  0.73517  Biso   1.000  C
  H92      1.0000 0.57023  0.50017  0.67207  Biso   1.000  H
  C105     1.0000 0.59303  0.55297  0.11597  Biso   1.000  C
  H93      1.0000 0.55973  0.52127  0.12377  Biso   1.000  H
  C106     1.0000 0.62753  0.53797  0.76607  Biso   1.000  C
  H94      1.0000 0.65163  0.56467  0.72497  Biso   1.000  H
  C107     1.0000 0.64993  0.64037  0.14827  Biso   1.000  C
  H95      1.0000 0.65843  0.67197  0.18087  Biso   1.000  H
  C108     1.0000 0.68713  0.64047  0.08917  Biso   1.000  C
  H96      1.0000 0.71993  0.67267  0.08007  Biso   1.000  H
  Ag13     1.0000 0.06353  0.46187  0.25676  Biso   1.000  Ag
  C109     1.0000 0.11460  0.41210  0.39170  Biso   1.000  C
  N49      1.0000 0.20348  0.41212  0.12330  Biso   1.000  N
  N50      1.0000 0.06975  0.41492  0.37790  Biso   1.000  N
  C110     1.0000 0.16557  0.43782  0.24410  Biso   1.000  C
  N51      1.0000 0.12840  0.43751  0.18800  Biso   1.000  N
  C111     1.0000 0.20186  0.42416  0.21270  Biso   1.000  C
  H97      1.0000 0.22650  0.42330  0.25460  Biso   1.000  H
  C112     1.0000 0.16430  0.45180  0.34270  Biso   1.000  C
  H98      1.0000 0.19560  0.45420  0.37460  Biso   1.000  H
  H99      1.0000 0.16720  0.48730  0.34590  Biso   1.000  H
  N52      1.0000 0.06960  0.33838  0.49430  Biso   1.000  N
  C113     1.0000 0.16650  0.41170  0.06850  Biso   1.000  C
  H100     1.0000 0.16650  0.40340  0.00540  Biso   1.000  H
  C114     1.0000 0.11370  0.37340  0.44930  Biso   1.000  C
  H101     1.0000 0.14540  0.37180  0.45710  Biso   1.000  H
  C115     1.0000 0.12870  0.42290  0.09940  Biso   1.000  C
  H102     1.0000 0.10200  0.42030  0.05830  Biso   1.000  H
  C116     1.0000 0.02630  0.34290  0.48160  Biso   1.000  C
  H103     1.0000 0.99470  0.31980  0.51420  Biso   1.000  H
  C117     1.0000 0.02620  0.38000  0.42250  Biso   1.000  C
  H104     1.0000 0.99400  0.38060  0.41340  Biso   1.000  H
  Ag14     1.0000 0.73020  0.79520  0.59009  Biso   1.000  Ag
  C118     1.0000 0.78127  0.74543  0.72503  Biso   1.000  C
  N53      1.0000 0.87015  0.74545  0.45663  Biso   1.000  N
  N54      1.0000 0.73642  0.74825  0.71123  Biso   1.000  N
  C119     1.0000 0.83224  0.77115  0.57743  Biso   1.000  C
  N55      1.0000 0.79507  0.77084  0.52133  Biso   1.000  N
  C120     1.0000 0.86853  0.75749  0.54603  Biso   1.000  C
  H105     1.0000 0.89317  0.75663  0.58793  Biso   1.000  H
  C121     1.0000 0.83097  0.78513  0.67603  Biso   1.000  C
  H106     1.0000 0.86227  0.78753  0.70793  Biso   1.000  H
  H107     1.0000 0.83387  0.82063  0.67923  Biso   1.000  H
  N56      1.0000 0.73627  0.67171  0.82763  Biso   1.000  N
  C122     1.0000 0.83317  0.74503  0.40183  Biso   1.000  C
  H108     1.0000 0.83317  0.73673  0.33873  Biso   1.000  H
  C123     1.0000 0.78037  0.70673  0.78263  Biso   1.000  C
  H109     1.0000 0.81207  0.70513  0.79043  Biso   1.000  H
  C124     1.0000 0.79537  0.75623  0.43273  Biso   1.000  C
  H110     1.0000 0.76867  0.75363  0.39163  Biso   1.000  H
  C125     1.0000 0.69297  0.67623  0.81493  Biso   1.000  C
  H111     1.0000 0.66137  0.65313  0.84753  Biso   1.000  H
  C126     1.0000 0.69287  0.71333  0.75583  Biso   1.000  C
  H112     1.0000 0.66067  0.71393  0.74673  Biso   1.000  H
  Ag15     1.0000 0.39686  0.12854  0.92343  Biso   1.000  Ag
  C127     1.0000 0.44793  0.07877  0.05837  Biso   1.000  C
  N57      1.0000 0.53681  0.07879  0.78997  Biso   1.000  N
  N58      1.0000 0.40308  0.08159  0.04457  Biso   1.000  N
  C128     1.0000 0.49890  0.10449  0.91077  Biso   1.000  C
  N59      1.0000 0.46173  0.10418  0.85467  Biso   1.000  N
  C129     1.0000 0.53519  0.09083  0.87937  Biso   1.000  C
  H113     1.0000 0.55983  0.08997  0.92127  Biso   1.000  H
  C130     1.0000 0.49763  0.11847  0.00937  Biso   1.000  C
  H114     1.0000 0.52893  0.12087  0.04127  Biso   1.000  H
  H115     1.0000 0.50053  0.15397  0.01257  Biso   1.000  H
  N60      1.0000 0.40293  0.00505  0.16097  Biso   1.000  N
  C131     1.0000 0.49983  0.07837  0.73517  Biso   1.000  C
  H116     1.0000 0.49983  0.07007  0.67207  Biso   1.000  H
  C132     1.0000 0.44703  0.04007  0.11597  Biso   1.000  C
  H117     1.0000 0.47873  0.03847  0.12377  Biso   1.000  H
  C133     1.0000 0.46203  0.08957  0.76607  Biso   1.000  C
  H118     1.0000 0.43533  0.08697  0.72497  Biso   1.000  H
  C134     1.0000 0.35963  0.00957  0.14827  Biso   1.000  C
  H119     1.0000 0.32803  0.98647  0.18087  Biso   1.000  H
  C135     1.0000 0.35953  0.04667  0.08917  Biso   1.000  C
  H120     1.0000 0.32733  0.04727  0.08007  Biso   1.000  H
  Ag16     1.0000 0.53813  0.60166  0.25676  Biso   1.000  Ag
  C136     1.0000 0.58790  0.70250  0.39170  Biso   1.000  C
  N61      1.0000 0.58788  0.79136  0.12330  Biso   1.000  N
  N62      1.0000 0.58508  0.65483  0.37790  Biso   1.000  N
  C137     1.0000 0.56218  0.72775  0.24410  Biso   1.000  C
  N63      1.0000 0.56249  0.69089  0.18800  Biso   1.000  N
  C138     1.0000 0.57584  0.77770  0.21270  Biso   1.000  C
  H121     1.0000 0.57670  0.80320  0.25460  Biso   1.000  H
  C139     1.0000 0.54820  0.71250  0.34270  Biso   1.000  C
  H122     1.0000 0.54580  0.74140  0.37460  Biso   1.000  H
  H123     1.0000 0.51270  0.67990  0.34590  Biso   1.000  H
  N64      1.0000 0.66162  0.73122  0.49430  Biso   1.000  N
  C140     1.0000 0.58830  0.75480  0.06850  Biso   1.000  C
  H124     1.0000 0.59660  0.76310  0.00540  Biso   1.000  H
  C141     1.0000 0.62660  0.74030  0.44930  Biso   1.000  C
  H125     1.0000 0.62820  0.77360  0.45710  Biso   1.000  H
  C142     1.0000 0.57710  0.70580  0.09940  Biso   1.000  C
  H126     1.0000 0.57970  0.68170  0.05830  Biso   1.000  H
  C143     1.0000 0.65710  0.68340  0.48160  Biso   1.000  C
  H127     1.0000 0.68020  0.67490  0.51420  Biso   1.000  H
  C144     1.0000 0.62000  0.64620  0.42250  Biso   1.000  C
  H128     1.0000 0.61940  0.61340  0.41340  Biso   1.000  H
  Ag17     1.0000 0.20480  0.93499  0.59009  Biso   1.000  Ag
  C145     1.0000 0.25457  0.03583  0.72503  Biso   1.000  C
  N65      1.0000 0.25455  0.12469  0.45663  Biso   1.000  N
  N66      1.0000 0.25175  0.98816  0.71123  Biso   1.000  N
  C146     1.0000 0.22885  0.06108  0.57743  Biso   1.000  C
  N67      1.0000 0.22916  0.02422  0.52133  Biso   1.000  N
  C147     1.0000 0.24251  0.11103  0.54603  Biso   1.000  C
  H129     1.0000 0.24337  0.13653  0.58793  Biso   1.000  H
  C148     1.0000 0.21487  0.04583  0.67603  Biso   1.000  C
  H130     1.0000 0.21247  0.07473  0.70793  Biso   1.000  H
  H131     1.0000 0.17937  0.01323  0.67923  Biso   1.000  H
  N68      1.0000 0.32829  0.06455  0.82763  Biso   1.000  N
  C149     1.0000 0.25497  0.08813  0.40183  Biso   1.000  C
  H132     1.0000 0.26327  0.09643  0.33873  Biso   1.000  H
  C150     1.0000 0.29327  0.07363  0.78263  Biso   1.000  C
  H133     1.0000 0.29487  0.10693  0.79043  Biso   1.000  H
  C151     1.0000 0.24377  0.03913  0.43273  Biso   1.000  C
  H134     1.0000 0.24637  0.01503  0.39163  Biso   1.000  H
  C152     1.0000 0.32377  0.01673  0.81493  Biso   1.000  C
  H135     1.0000 0.34687  0.00823  0.84753  Biso   1.000  H
  C153     1.0000 0.28667  0.97953  0.75583  Biso   1.000  C
  H136     1.0000 0.28607  0.94673  0.74673  Biso   1.000  H
  Ag18     1.0000 0.87146  0.26833  0.92343  Biso   1.000  Ag
  C154     1.0000 0.92123  0.36917  0.05837  Biso   1.000  C
  N69      1.0000 0.92121  0.45803  0.78997  Biso   1.000  N
  N70      1.0000 0.91841  0.32150  0.04457  Biso   1.000  N
  C155     1.0000 0.89551  0.39442  0.91077  Biso   1.000  C
  N71      1.0000 0.89582  0.35756  0.85467  Biso   1.000  N
  C156     1.0000 0.90917  0.44437  0.87937  Biso   1.000  C
  H137     1.0000 0.91003  0.46987  0.92127  Biso   1.000  H
  C157     1.0000 0.88153  0.37917  0.00937  Biso   1.000  C
  H138     1.0000 0.87913  0.40807  0.04127  Biso   1.000  H
  H139     1.0000 0.84603  0.34657  0.01257  Biso   1.000  H
  N72      1.0000 0.99495  0.39789  0.16097  Biso   1.000  N
  C158     1.0000 0.92163  0.42147  0.73517  Biso   1.000  C
  H140     1.0000 0.92993  0.42977  0.67207  Biso   1.000  H
  C159     1.0000 0.95993  0.40697  0.11597  Biso   1.000  C
  H141     1.0000 0.96153  0.44027  0.12377  Biso   1.000  H
  C160     1.0000 0.91043  0.37247  0.76607  Biso   1.000  C
  H142     1.0000 0.91303  0.34837  0.72497  Biso   1.000  H
  C161     1.0000 0.99043  0.35007  0.14827  Biso   1.000  C
  H143     1.0000 0.01353  0.34157  0.18087  Biso   1.000  H
  C162     1.0000 0.95333  0.31287  0.08917  Biso   1.000  C
  H144     1.0000 0.95273  0.28007  0.08007  Biso   1.000  H
