data_image0
_cell_length_a       28.9105
_cell_length_b       28.9105
_cell_length_c       14.3863
_cell_angle_alpha    90
_cell_angle_beta     90
_cell_angle_gamma    120

_symmetry_space_group_name_H-M    "P 1"
_symmetry_int_tables_number       1

loop_
  _symmetry_equiv_pos_as_xyz
  'x, y, z'

loop_
  _atom_site_label
  _atom_site_occupancy
  _atom_site_fract_x
  _atom_site_fract_y
  _atom_site_fract_z
  _atom_site_thermal_displace_type
  _atom_site_B_iso_or_equiv
  _atom_site_type_symbol
  Ag1      1.0000 0.80207  0.06580  0.39295  Biso   1.000  Ag
  N1       1.0000 0.73293  0.99703  0.29810  Biso   1.000  N
  C1       1.0000 0.76840  0.92660  0.60060  Biso   1.000  C
  H1       1.0000 0.76500  0.92270  0.66620  Biso   1.000  H
  C2       1.0000 0.73800  0.95522  0.27140  Biso   1.000  C
  C3       1.0000 0.77775  0.94139  0.41570  Biso   1.000  C
  C4       1.0000 0.78267  0.94900  0.31210  Biso   1.000  C
  H2       1.0000 0.78240  0.91780  0.28310  Biso   1.000  H
  H3       1.0000 0.81730  0.98110  0.29730  Biso   1.000  H
  C5       1.0000 0.75820  0.89128  0.45550  Biso   1.000  C
  H4       1.0000 0.74720  0.86120  0.41600  Biso   1.000  H
  N2       1.0000 0.79250  0.98433  0.46850  Biso   1.000  N
  C6       1.0000 0.65870  0.96590  0.19720  Biso   1.000  C
  H5       1.0000 0.63110  0.97080  0.17230  Biso   1.000  H
  N3       1.0000 0.75429  0.88383  0.54720  Biso   1.000  N
  C7       1.0000 0.70230  0.91860  0.20710  Biso   1.000  C
  H6       1.0000 0.70610  0.88890  0.18990  Biso   1.000  H
  C8       1.0000 0.78790  0.97650  0.56100  Biso   1.000  C
  H7       1.0000 0.79840  0.00640  0.60060  Biso   1.000  H
  N4       1.0000 0.66270  0.92398  0.16880  Biso   1.000  N
  C9       1.0000 0.69350  0.00230  0.26160  Biso   1.000  C
  H8       1.0000 0.68910  0.03140  0.28000  Biso   1.000  H
  S1       1.0000 0.83114  0.08242  0.14664  Biso   1.000  S
  O1       1.0000 0.83770  0.10820  0.24080  Biso   1.000  O
  C10      1.0000 0.78560  0.09360  0.08400  Biso   1.000  C
  H9       1.0000 0.75120  0.07700  0.11670  Biso   1.000  H
  H10      1.0000 0.78060  0.07790  0.02190  Biso   1.000  H
  H11      1.0000 0.79940  0.13210  0.07850  Biso   1.000  H
  C11      1.0000 0.88820  0.12500  0.08370  Biso   1.000  C
  H12      1.0000 0.88710  0.15730  0.06670  Biso   1.000  H
  H13      1.0000 0.88980  0.10690  0.02720  Biso   1.000  H
  H14      1.0000 0.91990  0.13490  0.12180  Biso   1.000  H
  Ag2      1.0000 0.46874  0.39913  0.72628  Biso   1.000  Ag
  N5       1.0000 0.39960  0.33036  0.63143  Biso   1.000  N
  C12      1.0000 0.43507  0.25993  0.93393  Biso   1.000  C
  H15      1.0000 0.43167  0.25603  0.99953  Biso   1.000  H
  C13      1.0000 0.40467  0.28855  0.60473  Biso   1.000  C
  C14      1.0000 0.44442  0.27472  0.74903  Biso   1.000  C
  C15      1.0000 0.44934  0.28233  0.64543  Biso   1.000  C
  H16      1.0000 0.44907  0.25113  0.61643  Biso   1.000  H
  H17      1.0000 0.48397  0.31443  0.63063  Biso   1.000  H
  C16      1.0000 0.42487  0.22461  0.78883  Biso   1.000  C
  H18      1.0000 0.41387  0.19453  0.74933  Biso   1.000  H
  N6       1.0000 0.45917  0.31766  0.80183  Biso   1.000  N
  C17      1.0000 0.32537  0.29923  0.53053  Biso   1.000  C
  H19      1.0000 0.29777  0.30413  0.50563  Biso   1.000  H
  N7       1.0000 0.42096  0.21716  0.88053  Biso   1.000  N
  C18      1.0000 0.36897  0.25193  0.54043  Biso   1.000  C
  H20      1.0000 0.37277  0.22223  0.52323  Biso   1.000  H
  C19      1.0000 0.45457  0.30983  0.89433  Biso   1.000  C
  H21      1.0000 0.46507  0.33973  0.93393  Biso   1.000  H
  N8       1.0000 0.32937  0.25731  0.50213  Biso   1.000  N
  C20      1.0000 0.36017  0.33563  0.59493  Biso   1.000  C
  H22      1.0000 0.35577  0.36473  0.61333  Biso   1.000  H
  S2       1.0000 0.49781  0.41575  0.47997  Biso   1.000  S
  O2       1.0000 0.50437  0.44153  0.57413  Biso   1.000  O
  C21      1.0000 0.45227  0.42693  0.41733  Biso   1.000  C
  H23      1.0000 0.41787  0.41033  0.45003  Biso   1.000  H
  H24      1.0000 0.44727  0.41123  0.35523  Biso   1.000  H
  H25      1.0000 0.46607  0.46543  0.41183  Biso   1.000  H
  C22      1.0000 0.55487  0.45833  0.41703  Biso   1.000  C
  H26      1.0000 0.55377  0.49063  0.40003  Biso   1.000  H
  H27      1.0000 0.55647  0.44023  0.36053  Biso   1.000  H
  H28      1.0000 0.58657  0.46823  0.45513  Biso   1.000  H
  Ag3      1.0000 0.13540  0.73247  0.05962  Biso   1.000  Ag
  N9       1.0000 0.06626  0.66370  0.96477  Biso   1.000  N
  C23      1.0000 0.10173  0.59327  0.26727  Biso   1.000  C
  H29      1.0000 0.09833  0.58937  0.33287  Biso   1.000  H
  C24      1.0000 0.07133  0.62189  0.93807  Biso   1.000  C
  C25      1.0000 0.11108  0.60806  0.08237  Biso   1.000  C
  C26      1.0000 0.11600  0.61567  0.97877  Biso   1.000  C
  H30      1.0000 0.11573  0.58447  0.94977  Biso   1.000  H
  H31      1.0000 0.15063  0.64777  0.96397  Biso   1.000  H
  C27      1.0000 0.09153  0.55795  0.12217  Biso   1.000  C
  H32      1.0000 0.08053  0.52787  0.08267  Biso   1.000  H
  N10      1.0000 0.12583  0.65100  0.13517  Biso   1.000  N
  C28      1.0000 0.99203  0.63257  0.86387  Biso   1.000  C
  H33      1.0000 0.96443  0.63747  0.83897  Biso   1.000  H
  N11      1.0000 0.08762  0.55050  0.21387  Biso   1.000  N
  C29      1.0000 0.03563  0.58527  0.87377  Biso   1.000  C
  H34      1.0000 0.03943  0.55557  0.85657  Biso   1.000  H
  C30      1.0000 0.12123  0.64317  0.22767  Biso   1.000  C
  H35      1.0000 0.13173  0.67307  0.26727  Biso   1.000  H
  N12      1.0000 0.99603  0.59065  0.83547  Biso   1.000  N
  C31      1.0000 0.02683  0.66897  0.92827  Biso   1.000  C
  H36      1.0000 0.02243  0.69807  0.94667  Biso   1.000  H
  S3       1.0000 0.16447  0.74909  0.81331  Biso   1.000  S
  O3       1.0000 0.17103  0.77487  0.90747  Biso   1.000  O
  C32      1.0000 0.11893  0.76027  0.75067  Biso   1.000  C
  H37      1.0000 0.08453  0.74367  0.78337  Biso   1.000  H
  H38      1.0000 0.11393  0.74457  0.68857  Biso   1.000  H
  H39      1.0000 0.13273  0.79877  0.74517  Biso   1.000  H
  C33      1.0000 0.22153  0.79167  0.75037  Biso   1.000  C
  H40      1.0000 0.22043  0.82397  0.73337  Biso   1.000  H
  H41      1.0000 0.22313  0.77357  0.69387  Biso   1.000  H
  H42      1.0000 0.25323  0.80157  0.78847  Biso   1.000  H
  Ag4      1.0000 0.93420  0.73627  0.39295  Biso   1.000  Ag
  N13      1.0000 0.00297  0.73590  0.29810  Biso   1.000  N
  C34      1.0000 0.07340  0.84180  0.60060  Biso   1.000  C
  H43      1.0000 0.07730  0.84230  0.66620  Biso   1.000  H
  C35      1.0000 0.04478  0.78278  0.27140  Biso   1.000  C
  C36      1.0000 0.05861  0.83636  0.41570  Biso   1.000  C
  C37      1.0000 0.05100  0.83367  0.31210  Biso   1.000  C
  H44      1.0000 0.08220  0.86460  0.28310  Biso   1.000  H
  H45      1.0000 0.01890  0.83620  0.29730  Biso   1.000  H
  C38      1.0000 0.10872  0.86692  0.45550  Biso   1.000  C
  H46      1.0000 0.13880  0.88600  0.41600  Biso   1.000  H
  N14      1.0000 0.01567  0.80817  0.46850  Biso   1.000  N
  C39      1.0000 0.03410  0.69280  0.19720  Biso   1.000  C
  H47      1.0000 0.02920  0.66030  0.17230  Biso   1.000  H
  N15      1.0000 0.11617  0.87046  0.54720  Biso   1.000  N
  C40      1.0000 0.08140  0.78370  0.20710  Biso   1.000  C
  H48      1.0000 0.11110  0.81720  0.18990  Biso   1.000  H
  C41      1.0000 0.02350  0.81140  0.56100  Biso   1.000  C
  H49      1.0000 0.99360  0.79200  0.60060  Biso   1.000  H
  N16      1.0000 0.07602  0.73872  0.16880  Biso   1.000  N
  C42      1.0000 0.99770  0.69120  0.26160  Biso   1.000  C
  H50      1.0000 0.96860  0.65770  0.28000  Biso   1.000  H
  S4       1.0000 0.91758  0.74872  0.14664  Biso   1.000  S
  O4       1.0000 0.89180  0.72950  0.24080  Biso   1.000  O
  C43      1.0000 0.90640  0.69200  0.08400  Biso   1.000  C
  H51      1.0000 0.92300  0.67420  0.11670  Biso   1.000  H
  H52      1.0000 0.92210  0.70270  0.02190  Biso   1.000  H
  H53      1.0000 0.86790  0.66730  0.07850  Biso   1.000  H
  C44      1.0000 0.87500  0.76320  0.08370  Biso   1.000  C
  H54      1.0000 0.84270  0.72980  0.06670  Biso   1.000  H
  H55      1.0000 0.89310  0.78290  0.02720  Biso   1.000  H
  H56      1.0000 0.86510  0.78500  0.12180  Biso   1.000  H
  Ag5      1.0000 0.60087  0.06960  0.72628  Biso   1.000  Ag
  N17      1.0000 0.66964  0.06923  0.63143  Biso   1.000  N
  C45      1.0000 0.74007  0.17513  0.93393  Biso   1.000  C
  H57      1.0000 0.74397  0.17563  0.99953  Biso   1.000  H
  C46      1.0000 0.71145  0.11611  0.60473  Biso   1.000  C
  C47      1.0000 0.72528  0.16969  0.74903  Biso   1.000  C
  C48      1.0000 0.71767  0.16700  0.64543  Biso   1.000  C
  H58      1.0000 0.74887  0.19793  0.61643  Biso   1.000  H
  H59      1.0000 0.68557  0.16953  0.63063  Biso   1.000  H
  C49      1.0000 0.77539  0.20025  0.78883  Biso   1.000  C
  H60      1.0000 0.80547  0.21933  0.74933  Biso   1.000  H
  N18      1.0000 0.68234  0.14150  0.80183  Biso   1.000  N
  C50      1.0000 0.70077  0.02613  0.53053  Biso   1.000  C
  H61      1.0000 0.69587  0.99363  0.50563  Biso   1.000  H
  N19      1.0000 0.78284  0.20379  0.88053  Biso   1.000  N
  C51      1.0000 0.74807  0.11703  0.54043  Biso   1.000  C
  H62      1.0000 0.77777  0.15053  0.52323  Biso   1.000  H
  C52      1.0000 0.69017  0.14473  0.89433  Biso   1.000  C
  H63      1.0000 0.66027  0.12533  0.93393  Biso   1.000  H
  N20      1.0000 0.74269  0.07205  0.50213  Biso   1.000  N
  C53      1.0000 0.66437  0.02453  0.59493  Biso   1.000  C
  H64      1.0000 0.63527  0.99103  0.61333  Biso   1.000  H
  S5       1.0000 0.58425  0.08205  0.47997  Biso   1.000  S
  O5       1.0000 0.55847  0.06283  0.57413  Biso   1.000  O
  C54      1.0000 0.57307  0.02533  0.41733  Biso   1.000  C
  H65      1.0000 0.58967  0.00753  0.45003  Biso   1.000  H
  H66      1.0000 0.58877  0.03603  0.35523  Biso   1.000  H
  H67      1.0000 0.53457  0.00063  0.41183  Biso   1.000  H
  C55      1.0000 0.54167  0.09653  0.41703  Biso   1.000  C
  H68      1.0000 0.50937  0.06313  0.40003  Biso   1.000  H
  H69      1.0000 0.55977  0.11623  0.36053  Biso   1.000  H
  H70      1.0000 0.53177  0.11833  0.45513  Biso   1.000  H
  Ag6      1.0000 0.26753  0.40294  0.05962  Biso   1.000  Ag
  N21      1.0000 0.33630  0.40257  0.96477  Biso   1.000  N
  C56      1.0000 0.40673  0.50847  0.26727  Biso   1.000  C
  H71      1.0000 0.41063  0.50897  0.33287  Biso   1.000  H
  C57      1.0000 0.37811  0.44945  0.93807  Biso   1.000  C
  C58      1.0000 0.39194  0.50303  0.08237  Biso   1.000  C
  C59      1.0000 0.38433  0.50034  0.97877  Biso   1.000  C
  H72      1.0000 0.41553  0.53127  0.94977  Biso   1.000  H
  H73      1.0000 0.35223  0.50287  0.96397  Biso   1.000  H
  C60      1.0000 0.44205  0.53359  0.12217  Biso   1.000  C
  H74      1.0000 0.47213  0.55267  0.08267  Biso   1.000  H
  N22      1.0000 0.34900  0.47484  0.13517  Biso   1.000  N
  C61      1.0000 0.36743  0.35947  0.86387  Biso   1.000  C
  H75      1.0000 0.36253  0.32697  0.83897  Biso   1.000  H
  N23      1.0000 0.44950  0.53713  0.21387  Biso   1.000  N
  C62      1.0000 0.41473  0.45037  0.87377  Biso   1.000  C
  H76      1.0000 0.44443  0.48387  0.85657  Biso   1.000  H
  C63      1.0000 0.35683  0.47807  0.22767  Biso   1.000  C
  H77      1.0000 0.32693  0.45867  0.26727  Biso   1.000  H
  N24      1.0000 0.40935  0.40539  0.83547  Biso   1.000  N
  C64      1.0000 0.33103  0.35787  0.92827  Biso   1.000  C
  H78      1.0000 0.30193  0.32437  0.94667  Biso   1.000  H
  S6       1.0000 0.25091  0.41539  0.81331  Biso   1.000  S
  O6       1.0000 0.22513  0.39617  0.90747  Biso   1.000  O
  C65      1.0000 0.23973  0.35867  0.75067  Biso   1.000  C
  H79      1.0000 0.25633  0.34087  0.78337  Biso   1.000  H
  H80      1.0000 0.25543  0.36937  0.68857  Biso   1.000  H
  H81      1.0000 0.20123  0.33397  0.74517  Biso   1.000  H
  C66      1.0000 0.20833  0.42987  0.75037  Biso   1.000  C
  H82      1.0000 0.17603  0.39647  0.73337  Biso   1.000  H
  H83      1.0000 0.22643  0.44957  0.69387  Biso   1.000  H
  H84      1.0000 0.19843  0.45167  0.78847  Biso   1.000  H
  Ag7      1.0000 0.26373  0.19793  0.39295  Biso   1.000  Ag
  N25      1.0000 0.26410  0.26707  0.29810  Biso   1.000  N
  C67      1.0000 0.15820  0.23160  0.60060  Biso   1.000  C
  H85      1.0000 0.15770  0.23500  0.66620  Biso   1.000  H
  C68      1.0000 0.21722  0.26200  0.27140  Biso   1.000  C
  C69      1.0000 0.16364  0.22225  0.41570  Biso   1.000  C
  C70      1.0000 0.16633  0.21733  0.31210  Biso   1.000  C
  H86      1.0000 0.13540  0.21760  0.28310  Biso   1.000  H
  H87      1.0000 0.16380  0.18270  0.29730  Biso   1.000  H
  C71      1.0000 0.13308  0.24180  0.45550  Biso   1.000  C
  H88      1.0000 0.11400  0.25280  0.41600  Biso   1.000  H
  N26      1.0000 0.19183  0.20750  0.46850  Biso   1.000  N
  C72      1.0000 0.30720  0.34130  0.19720  Biso   1.000  C
  H89      1.0000 0.33970  0.36890  0.17230  Biso   1.000  H
  N27      1.0000 0.12954  0.24571  0.54720  Biso   1.000  N
  C73      1.0000 0.21630  0.29770  0.20710  Biso   1.000  C
  H90      1.0000 0.18280  0.29390  0.18990  Biso   1.000  H
  C74      1.0000 0.18860  0.21210  0.56100  Biso   1.000  C
  H91      1.0000 0.20800  0.20160  0.60060  Biso   1.000  H
  N28      1.0000 0.26128  0.33730  0.16880  Biso   1.000  N
  C75      1.0000 0.30880  0.30650  0.26160  Biso   1.000  C
  H92      1.0000 0.34230  0.31090  0.28000  Biso   1.000  H
  S7       1.0000 0.25128  0.16886  0.14664  Biso   1.000  S
  O7       1.0000 0.27050  0.16230  0.24080  Biso   1.000  O
  C76      1.0000 0.30800  0.21440  0.08400  Biso   1.000  C
  H93      1.0000 0.32580  0.24880  0.11670  Biso   1.000  H
  H94      1.0000 0.29730  0.21940  0.02190  Biso   1.000  H
  H95      1.0000 0.33270  0.20060  0.07850  Biso   1.000  H
  C77      1.0000 0.23680  0.11180  0.08370  Biso   1.000  C
  H96      1.0000 0.27020  0.11290  0.06670  Biso   1.000  H
  H97      1.0000 0.21710  0.11020  0.02720  Biso   1.000  H
  H98      1.0000 0.21500  0.08010  0.12180  Biso   1.000  H
  Ag8      1.0000 0.93040  0.53126  0.72628  Biso   1.000  Ag
  N29      1.0000 0.93077  0.60040  0.63143  Biso   1.000  N
  C78      1.0000 0.82487  0.56493  0.93393  Biso   1.000  C
  H99      1.0000 0.82437  0.56833  0.99953  Biso   1.000  H
  C79      1.0000 0.88389  0.59533  0.60473  Biso   1.000  C
  C80      1.0000 0.83031  0.55558  0.74903  Biso   1.000  C
  C81      1.0000 0.83300  0.55066  0.64543  Biso   1.000  C
  H100     1.0000 0.80207  0.55093  0.61643  Biso   1.000  H
  H101     1.0000 0.83047  0.51603  0.63063  Biso   1.000  H
  C82      1.0000 0.79975  0.57513  0.78883  Biso   1.000  C
  H102     1.0000 0.78067  0.58613  0.74933  Biso   1.000  H
  N30      1.0000 0.85850  0.54083  0.80183  Biso   1.000  N
  C83      1.0000 0.97387  0.67463  0.53053  Biso   1.000  C
  H103     1.0000 0.00637  0.70223  0.50563  Biso   1.000  H
  N31      1.0000 0.79621  0.57904  0.88053  Biso   1.000  N
  C84      1.0000 0.88297  0.63103  0.54043  Biso   1.000  C
  H104     1.0000 0.84947  0.62723  0.52323  Biso   1.000  H
  C85      1.0000 0.85527  0.54543  0.89433  Biso   1.000  C
  H105     1.0000 0.87467  0.53493  0.93393  Biso   1.000  H
  N32      1.0000 0.92795  0.67063  0.50213  Biso   1.000  N
  C86      1.0000 0.97547  0.63983  0.59493  Biso   1.000  C
  H106     1.0000 0.00897  0.64423  0.61333  Biso   1.000  H
  S8       1.0000 0.91795  0.50219  0.47997  Biso   1.000  S
  O8       1.0000 0.93717  0.49563  0.57413  Biso   1.000  O
  C87      1.0000 0.97467  0.54773  0.41733  Biso   1.000  C
  H107     1.0000 0.99247  0.58213  0.45003  Biso   1.000  H
  H108     1.0000 0.96397  0.55273  0.35523  Biso   1.000  H
  H109     1.0000 0.99937  0.53393  0.41183  Biso   1.000  H
  C88      1.0000 0.90347  0.44513  0.41703  Biso   1.000  C
  H110     1.0000 0.93687  0.44623  0.40003  Biso   1.000  H
  H111     1.0000 0.88377  0.44353  0.36053  Biso   1.000  H
  H112     1.0000 0.88167  0.41343  0.45513  Biso   1.000  H
  Ag9      1.0000 0.59706  0.86460  0.05962  Biso   1.000  Ag
  N33      1.0000 0.59743  0.93374  0.96477  Biso   1.000  N
  C89      1.0000 0.49153  0.89827  0.26727  Biso   1.000  C
  H113     1.0000 0.49103  0.90167  0.33287  Biso   1.000  H
  C90      1.0000 0.55055  0.92867  0.93807  Biso   1.000  C
  C91      1.0000 0.49697  0.88892  0.08237  Biso   1.000  C
  C92      1.0000 0.49966  0.88400  0.97877  Biso   1.000  C
  H114     1.0000 0.46873  0.88427  0.94977  Biso   1.000  H
  H115     1.0000 0.49713  0.84937  0.96397  Biso   1.000  H
  C93      1.0000 0.46641  0.90847  0.12217  Biso   1.000  C
  H116     1.0000 0.44733  0.91947  0.08267  Biso   1.000  H
  N34      1.0000 0.52516  0.87417  0.13517  Biso   1.000  N
  C94      1.0000 0.64053  0.00797  0.86387  Biso   1.000  C
  H117     1.0000 0.67303  0.03557  0.83897  Biso   1.000  H
  N35      1.0000 0.46287  0.91238  0.21387  Biso   1.000  N
  C95      1.0000 0.54963  0.96437  0.87377  Biso   1.000  C
  H118     1.0000 0.51613  0.96057  0.85657  Biso   1.000  H
  C96      1.0000 0.52193  0.87877  0.22767  Biso   1.000  C
  H119     1.0000 0.54133  0.86827  0.26727  Biso   1.000  H
  N36      1.0000 0.59461  0.00397  0.83547  Biso   1.000  N
  C97      1.0000 0.64213  0.97317  0.92827  Biso   1.000  C
  H120     1.0000 0.67563  0.97757  0.94667  Biso   1.000  H
  S9       1.0000 0.58461  0.83553  0.81331  Biso   1.000  S
  O9       1.0000 0.60383  0.82897  0.90747  Biso   1.000  O
  C98      1.0000 0.64133  0.88107  0.75067  Biso   1.000  C
  H121     1.0000 0.65913  0.91547  0.78337  Biso   1.000  H
  H122     1.0000 0.63063  0.88607  0.68857  Biso   1.000  H
  H123     1.0000 0.66603  0.86727  0.74517  Biso   1.000  H
  C99      1.0000 0.57013  0.77847  0.75037  Biso   1.000  C
  H124     1.0000 0.60353  0.77957  0.73337  Biso   1.000  H
  H125     1.0000 0.55043  0.77687  0.69387  Biso   1.000  H
  H126     1.0000 0.54833  0.74677  0.78847  Biso   1.000  H
  Ag10     1.0000 0.19793  0.93420  0.60705  Biso   1.000  Ag
  N37      1.0000 0.26707  0.00297  0.70190  Biso   1.000  N
  C100     1.0000 0.23160  0.07340  0.39940  Biso   1.000  C
  H127     1.0000 0.23500  0.07730  0.33380  Biso   1.000  H
  C101     1.0000 0.26200  0.04478  0.72860  Biso   1.000  C
  C102     1.0000 0.22225  0.05861  0.58430  Biso   1.000  C
  C103     1.0000 0.21733  0.05100  0.68790  Biso   1.000  C
  H128     1.0000 0.21760  0.08220  0.71690  Biso   1.000  H
  H129     1.0000 0.18270  0.01890  0.70270  Biso   1.000  H
  C104     1.0000 0.24180  0.10872  0.54450  Biso   1.000  C
  H130     1.0000 0.25280  0.13880  0.58400  Biso   1.000  H
  N38      1.0000 0.20750  0.01567  0.53150  Biso   1.000  N
  C105     1.0000 0.34130  0.03410  0.80280  Biso   1.000  C
  H131     1.0000 0.36890  0.02920  0.82770  Biso   1.000  H
  N39      1.0000 0.24571  0.11617  0.45280  Biso   1.000  N
  C106     1.0000 0.29770  0.08140  0.79290  Biso   1.000  C
  H132     1.0000 0.29390  0.11110  0.81010  Biso   1.000  H
  C107     1.0000 0.21210  0.02350  0.43900  Biso   1.000  C
  H133     1.0000 0.20160  0.99360  0.39940  Biso   1.000  H
  N40      1.0000 0.33730  0.07602  0.83120  Biso   1.000  N
  C108     1.0000 0.30650  0.99770  0.73840  Biso   1.000  C
  H134     1.0000 0.31090  0.96860  0.72000  Biso   1.000  H
  S10      1.0000 0.16886  0.91758  0.85336  Biso   1.000  S
  O10      1.0000 0.16230  0.89180  0.75920  Biso   1.000  O
  C109     1.0000 0.21440  0.90640  0.91600  Biso   1.000  C
  H135     1.0000 0.24880  0.92300  0.88330  Biso   1.000  H
  H136     1.0000 0.21940  0.92210  0.97810  Biso   1.000  H
  H137     1.0000 0.20060  0.86790  0.92150  Biso   1.000  H
  C110     1.0000 0.11180  0.87500  0.91630  Biso   1.000  C
  H138     1.0000 0.11290  0.84270  0.93330  Biso   1.000  H
  H139     1.0000 0.11020  0.89310  0.97280  Biso   1.000  H
  H140     1.0000 0.08010  0.86510  0.87820  Biso   1.000  H
  Ag11     1.0000 0.86460  0.26753  0.94038  Biso   1.000  Ag
  N41      1.0000 0.93374  0.33630  0.03523  Biso   1.000  N
  C111     1.0000 0.89827  0.40673  0.73273  Biso   1.000  C
  H141     1.0000 0.90167  0.41063  0.66713  Biso   1.000  H
  C112     1.0000 0.92867  0.37811  0.06193  Biso   1.000  C
  C113     1.0000 0.88892  0.39194  0.91763  Biso   1.000  C
  C114     1.0000 0.88400  0.38433  0.02123  Biso   1.000  C
  H142     1.0000 0.88427  0.41553  0.05023  Biso   1.000  H
  H143     1.0000 0.84937  0.35223  0.03603  Biso   1.000  H
  C115     1.0000 0.90847  0.44205  0.87783  Biso   1.000  C
  H144     1.0000 0.91947  0.47213  0.91733  Biso   1.000  H
  N42      1.0000 0.87417  0.34900  0.86483  Biso   1.000  N
  C116     1.0000 0.00797  0.36743  0.13613  Biso   1.000  C
  H145     1.0000 0.03557  0.36253  0.16103  Biso   1.000  H
  N43      1.0000 0.91238  0.44950  0.78613  Biso   1.000  N
  C117     1.0000 0.96437  0.41473  0.12623  Biso   1.000  C
  H146     1.0000 0.96057  0.44443  0.14343  Biso   1.000  H
  C118     1.0000 0.87877  0.35683  0.77233  Biso   1.000  C
  H147     1.0000 0.86827  0.32693  0.73273  Biso   1.000  H
  N44      1.0000 0.00397  0.40935  0.16453  Biso   1.000  N
  C119     1.0000 0.97317  0.33103  0.07173  Biso   1.000  C
  H148     1.0000 0.97757  0.30193  0.05333  Biso   1.000  H
  S11      1.0000 0.83553  0.25091  0.18669  Biso   1.000  S
  O11      1.0000 0.82897  0.22513  0.09253  Biso   1.000  O
  C120     1.0000 0.88107  0.23973  0.24933  Biso   1.000  C
  H149     1.0000 0.91547  0.25633  0.21663  Biso   1.000  H
  H150     1.0000 0.88607  0.25543  0.31143  Biso   1.000  H
  H151     1.0000 0.86727  0.20123  0.25483  Biso   1.000  H
  C121     1.0000 0.77847  0.20833  0.24963  Biso   1.000  C
  H152     1.0000 0.77957  0.17603  0.26663  Biso   1.000  H
  H153     1.0000 0.77687  0.22643  0.30613  Biso   1.000  H
  H154     1.0000 0.74677  0.19843  0.21153  Biso   1.000  H
  Ag12     1.0000 0.53126  0.60087  0.27372  Biso   1.000  Ag
  N45      1.0000 0.60040  0.66964  0.36857  Biso   1.000  N
  C122     1.0000 0.56493  0.74007  0.06607  Biso   1.000  C
  H155     1.0000 0.56833  0.74397  0.00047  Biso   1.000  H
  C123     1.0000 0.59533  0.71145  0.39527  Biso   1.000  C
  C124     1.0000 0.55558  0.72528  0.25097  Biso   1.000  C
  C125     1.0000 0.55066  0.71767  0.35457  Biso   1.000  C
  H156     1.0000 0.55093  0.74887  0.38357  Biso   1.000  H
  H157     1.0000 0.51603  0.68557  0.36937  Biso   1.000  H
  C126     1.0000 0.57513  0.77539  0.21117  Biso   1.000  C
  H158     1.0000 0.58613  0.80547  0.25067  Biso   1.000  H
  N46      1.0000 0.54083  0.68234  0.19817  Biso   1.000  N
  C127     1.0000 0.67463  0.70077  0.46947  Biso   1.000  C
  H159     1.0000 0.70223  0.69587  0.49437  Biso   1.000  H
  N47      1.0000 0.57904  0.78284  0.11947  Biso   1.000  N
  C128     1.0000 0.63103  0.74807  0.45957  Biso   1.000  C
  H160     1.0000 0.62723  0.77777  0.47677  Biso   1.000  H
  C129     1.0000 0.54543  0.69017  0.10567  Biso   1.000  C
  H161     1.0000 0.53493  0.66027  0.06607  Biso   1.000  H
  N48      1.0000 0.67063  0.74269  0.49787  Biso   1.000  N
  C130     1.0000 0.63983  0.66437  0.40507  Biso   1.000  C
  H162     1.0000 0.64423  0.63527  0.38667  Biso   1.000  H
  S12      1.0000 0.50219  0.58425  0.52003  Biso   1.000  S
  O12      1.0000 0.49563  0.55847  0.42587  Biso   1.000  O
  C131     1.0000 0.54773  0.57307  0.58267  Biso   1.000  C
  H163     1.0000 0.58213  0.58967  0.54997  Biso   1.000  H
  H164     1.0000 0.55273  0.58877  0.64477  Biso   1.000  H
  H165     1.0000 0.53393  0.53457  0.58817  Biso   1.000  H
  C132     1.0000 0.44513  0.54167  0.58297  Biso   1.000  C
  H166     1.0000 0.44623  0.50937  0.59997  Biso   1.000  H
  H167     1.0000 0.44353  0.55977  0.63947  Biso   1.000  H
  H168     1.0000 0.41343  0.53177  0.54487  Biso   1.000  H
  Ag13     1.0000 0.06580  0.26373  0.60705  Biso   1.000  Ag
  N49      1.0000 0.99703  0.26410  0.70190  Biso   1.000  N
  C133     1.0000 0.92660  0.15820  0.39940  Biso   1.000  C
  H169     1.0000 0.92270  0.15770  0.33380  Biso   1.000  H
  C134     1.0000 0.95522  0.21722  0.72860  Biso   1.000  C
  C135     1.0000 0.94139  0.16364  0.58430  Biso   1.000  C
  C136     1.0000 0.94900  0.16633  0.68790  Biso   1.000  C
  H170     1.0000 0.91780  0.13540  0.71690  Biso   1.000  H
  H171     1.0000 0.98110  0.16380  0.70270  Biso   1.000  H
  C137     1.0000 0.89128  0.13308  0.54450  Biso   1.000  C
  H172     1.0000 0.86120  0.11400  0.58400  Biso   1.000  H
  N50      1.0000 0.98433  0.19183  0.53150  Biso   1.000  N
  C138     1.0000 0.96590  0.30720  0.80280  Biso   1.000  C
  H173     1.0000 0.97080  0.33970  0.82770  Biso   1.000  H
  N51      1.0000 0.88383  0.12954  0.45280  Biso   1.000  N
  C139     1.0000 0.91860  0.21630  0.79290  Biso   1.000  C
  H174     1.0000 0.88890  0.18280  0.81010  Biso   1.000  H
  C140     1.0000 0.97650  0.18860  0.43900  Biso   1.000  C
  H175     1.0000 0.00640  0.20800  0.39940  Biso   1.000  H
  N52      1.0000 0.92398  0.26128  0.83120  Biso   1.000  N
  C141     1.0000 0.00230  0.30880  0.73840  Biso   1.000  C
  H176     1.0000 0.03140  0.34230  0.72000  Biso   1.000  H
  S13      1.0000 0.08242  0.25128  0.85336  Biso   1.000  S
  O13      1.0000 0.10820  0.27050  0.75920  Biso   1.000  O
  C142     1.0000 0.09360  0.30800  0.91600  Biso   1.000  C
  H177     1.0000 0.07700  0.32580  0.88330  Biso   1.000  H
  H178     1.0000 0.07790  0.29730  0.97810  Biso   1.000  H
  H179     1.0000 0.13210  0.33270  0.92150  Biso   1.000  H
  C143     1.0000 0.12500  0.23680  0.91630  Biso   1.000  C
  H180     1.0000 0.15730  0.27020  0.93330  Biso   1.000  H
  H181     1.0000 0.10690  0.21710  0.97280  Biso   1.000  H
  H182     1.0000 0.13490  0.21500  0.87820  Biso   1.000  H
  Ag14     1.0000 0.73247  0.59706  0.94038  Biso   1.000  Ag
  N53      1.0000 0.66370  0.59743  0.03523  Biso   1.000  N
  C144     1.0000 0.59327  0.49153  0.73273  Biso   1.000  C
  H183     1.0000 0.58937  0.49103  0.66713  Biso   1.000  H
  C145     1.0000 0.62189  0.55055  0.06193  Biso   1.000  C
  C146     1.0000 0.60806  0.49697  0.91763  Biso   1.000  C
  C147     1.0000 0.61567  0.49966  0.02123  Biso   1.000  C
  H184     1.0000 0.58447  0.46873  0.05023  Biso   1.000  H
  H185     1.0000 0.64777  0.49713  0.03603  Biso   1.000  H
  C148     1.0000 0.55795  0.46641  0.87783  Biso   1.000  C
  H186     1.0000 0.52787  0.44733  0.91733  Biso   1.000  H
  N54      1.0000 0.65100  0.52516  0.86483  Biso   1.000  N
  C149     1.0000 0.63257  0.64053  0.13613  Biso   1.000  C
  H187     1.0000 0.63747  0.67303  0.16103  Biso   1.000  H
  N55      1.0000 0.55050  0.46287  0.78613  Biso   1.000  N
  C150     1.0000 0.58527  0.54963  0.12623  Biso   1.000  C
  H188     1.0000 0.55557  0.51613  0.14343  Biso   1.000  H
  C151     1.0000 0.64317  0.52193  0.77233  Biso   1.000  C
  H189     1.0000 0.67307  0.54133  0.73273  Biso   1.000  H
  N56      1.0000 0.59065  0.59461  0.16453  Biso   1.000  N
  C152     1.0000 0.66897  0.64213  0.07173  Biso   1.000  C
  H190     1.0000 0.69807  0.67563  0.05333  Biso   1.000  H
  S14      1.0000 0.74909  0.58461  0.18669  Biso   1.000  S
  O14      1.0000 0.77487  0.60383  0.09253  Biso   1.000  O
  C153     1.0000 0.76027  0.64133  0.24933  Biso   1.000  C
  H191     1.0000 0.74367  0.65913  0.21663  Biso   1.000  H
  H192     1.0000 0.74457  0.63063  0.31143  Biso   1.000  H
  H193     1.0000 0.79877  0.66603  0.25483  Biso   1.000  H
  C154     1.0000 0.79167  0.57013  0.24963  Biso   1.000  C
  H194     1.0000 0.82397  0.60353  0.26663  Biso   1.000  H
  H195     1.0000 0.77357  0.55043  0.30613  Biso   1.000  H
  H196     1.0000 0.80157  0.54833  0.21153  Biso   1.000  H
  Ag15     1.0000 0.39913  0.93040  0.27372  Biso   1.000  Ag
  N57      1.0000 0.33036  0.93077  0.36857  Biso   1.000  N
  C155     1.0000 0.25993  0.82487  0.06607  Biso   1.000  C
  H197     1.0000 0.25603  0.82437  0.00047  Biso   1.000  H
  C156     1.0000 0.28855  0.88389  0.39527  Biso   1.000  C
  C157     1.0000 0.27472  0.83031  0.25097  Biso   1.000  C
  C158     1.0000 0.28233  0.83300  0.35457  Biso   1.000  C
  H198     1.0000 0.25113  0.80207  0.38357  Biso   1.000  H
  H199     1.0000 0.31443  0.83047  0.36937  Biso   1.000  H
  C159     1.0000 0.22461  0.79975  0.21117  Biso   1.000  C
  H200     1.0000 0.19453  0.78067  0.25067  Biso   1.000  H
  N58      1.0000 0.31766  0.85850  0.19817  Biso   1.000  N
  C160     1.0000 0.29923  0.97387  0.46947  Biso   1.000  C
  H201     1.0000 0.30413  0.00637  0.49437  Biso   1.000  H
  N59      1.0000 0.21716  0.79621  0.11947  Biso   1.000  N
  C161     1.0000 0.25193  0.88297  0.45957  Biso   1.000  C
  H202     1.0000 0.22223  0.84947  0.47677  Biso   1.000  H
  C162     1.0000 0.30983  0.85527  0.10567  Biso   1.000  C
  H203     1.0000 0.33973  0.87467  0.06607  Biso   1.000  H
  N60      1.0000 0.25731  0.92795  0.49787  Biso   1.000  N
  C163     1.0000 0.33563  0.97547  0.40507  Biso   1.000  C
  H204     1.0000 0.36473  0.00897  0.38667  Biso   1.000  H
  S15      1.0000 0.41575  0.91795  0.52003  Biso   1.000  S
  O15      1.0000 0.44153  0.93717  0.42587  Biso   1.000  O
  C164     1.0000 0.42693  0.97467  0.58267  Biso   1.000  C
  H205     1.0000 0.41033  0.99247  0.54997  Biso   1.000  H
  H206     1.0000 0.41123  0.96397  0.64477  Biso   1.000  H
  H207     1.0000 0.46543  0.99937  0.58817  Biso   1.000  H
  C165     1.0000 0.45833  0.90347  0.58297  Biso   1.000  C
  H208     1.0000 0.49063  0.93687  0.59997  Biso   1.000  H
  H209     1.0000 0.44023  0.88377  0.63947  Biso   1.000  H
  H210     1.0000 0.46823  0.88167  0.54487  Biso   1.000  H
  Ag16     1.0000 0.73627  0.80207  0.60705  Biso   1.000  Ag
  N61      1.0000 0.73590  0.73293  0.70190  Biso   1.000  N
  C166     1.0000 0.84180  0.76840  0.39940  Biso   1.000  C
  H211     1.0000 0.84230  0.76500  0.33380  Biso   1.000  H
  C167     1.0000 0.78278  0.73800  0.72860  Biso   1.000  C
  C168     1.0000 0.83636  0.77775  0.58430  Biso   1.000  C
  C169     1.0000 0.83367  0.78267  0.68790  Biso   1.000  C
  H212     1.0000 0.86460  0.78240  0.71690  Biso   1.000  H
  H213     1.0000 0.83620  0.81730  0.70270  Biso   1.000  H
  C170     1.0000 0.86692  0.75820  0.54450  Biso   1.000  C
  H214     1.0000 0.88600  0.74720  0.58400  Biso   1.000  H
  N62      1.0000 0.80817  0.79250  0.53150  Biso   1.000  N
  C171     1.0000 0.69280  0.65870  0.80280  Biso   1.000  C
  H215     1.0000 0.66030  0.63110  0.82770  Biso   1.000  H
  N63      1.0000 0.87046  0.75429  0.45280  Biso   1.000  N
  C172     1.0000 0.78370  0.70230  0.79290  Biso   1.000  C
  H216     1.0000 0.81720  0.70610  0.81010  Biso   1.000  H
  C173     1.0000 0.81140  0.78790  0.43900  Biso   1.000  C
  H217     1.0000 0.79200  0.79840  0.39940  Biso   1.000  H
  N64      1.0000 0.73872  0.66270  0.83120  Biso   1.000  N
  C174     1.0000 0.69120  0.69350  0.73840  Biso   1.000  C
  H218     1.0000 0.65770  0.68910  0.72000  Biso   1.000  H
  S16      1.0000 0.74872  0.83114  0.85336  Biso   1.000  S
  O16      1.0000 0.72950  0.83770  0.75920  Biso   1.000  O
  C175     1.0000 0.69200  0.78560  0.91600  Biso   1.000  C
  H219     1.0000 0.67420  0.75120  0.88330  Biso   1.000  H
  H220     1.0000 0.70270  0.78060  0.97810  Biso   1.000  H
  H221     1.0000 0.66730  0.79940  0.92150  Biso   1.000  H
  C176     1.0000 0.76320  0.88820  0.91630  Biso   1.000  C
  H222     1.0000 0.72980  0.88710  0.93330  Biso   1.000  H
  H223     1.0000 0.78290  0.88980  0.97280  Biso   1.000  H
  H224     1.0000 0.78500  0.91990  0.87820  Biso   1.000  H
  Ag17     1.0000 0.40294  0.13540  0.94038  Biso   1.000  Ag
  N65      1.0000 0.40257  0.06626  0.03523  Biso   1.000  N
  C177     1.0000 0.50847  0.10173  0.73273  Biso   1.000  C
  H225     1.0000 0.50897  0.09833  0.66713  Biso   1.000  H
  C178     1.0000 0.44945  0.07133  0.06193  Biso   1.000  C
  C179     1.0000 0.50303  0.11108  0.91763  Biso   1.000  C
  C180     1.0000 0.50034  0.11600  0.02123  Biso   1.000  C
  H226     1.0000 0.53127  0.11573  0.05023  Biso   1.000  H
  H227     1.0000 0.50287  0.15063  0.03603  Biso   1.000  H
  C181     1.0000 0.53359  0.09153  0.87783  Biso   1.000  C
  H228     1.0000 0.55267  0.08053  0.91733  Biso   1.000  H
  N66      1.0000 0.47484  0.12583  0.86483  Biso   1.000  N
  C182     1.0000 0.35947  0.99203  0.13613  Biso   1.000  C
  H229     1.0000 0.32697  0.96443  0.16103  Biso   1.000  H
  N67      1.0000 0.53713  0.08762  0.78613  Biso   1.000  N
  C183     1.0000 0.45037  0.03563  0.12623  Biso   1.000  C
  H230     1.0000 0.48387  0.03943  0.14343  Biso   1.000  H
  C184     1.0000 0.47807  0.12123  0.77233  Biso   1.000  C
  H231     1.0000 0.45867  0.13173  0.73273  Biso   1.000  H
  N68      1.0000 0.40539  0.99603  0.16453  Biso   1.000  N
  C185     1.0000 0.35787  0.02683  0.07173  Biso   1.000  C
  H232     1.0000 0.32437  0.02243  0.05333  Biso   1.000  H
  S17      1.0000 0.41539  0.16447  0.18669  Biso   1.000  S
  O17      1.0000 0.39617  0.17103  0.09253  Biso   1.000  O
  C186     1.0000 0.35867  0.11893  0.24933  Biso   1.000  C
  H233     1.0000 0.34087  0.08453  0.21663  Biso   1.000  H
  H234     1.0000 0.36937  0.11393  0.31143  Biso   1.000  H
  H235     1.0000 0.33397  0.13273  0.25483  Biso   1.000  H
  C187     1.0000 0.42987  0.22153  0.24963  Biso   1.000  C
  H236     1.0000 0.39647  0.22043  0.26663  Biso   1.000  H
  H237     1.0000 0.44957  0.22313  0.30613  Biso   1.000  H
  H238     1.0000 0.45167  0.25323  0.21153  Biso   1.000  H
  Ag18     1.0000 0.06960  0.46874  0.27372  Biso   1.000  Ag
  N69      1.0000 0.06923  0.39960  0.36857  Biso   1.000  N
  C188     1.0000 0.17513  0.43507  0.06607  Biso   1.000  C
  H239     1.0000 0.17563  0.43167  0.00047  Biso   1.000  H
  C189     1.0000 0.11611  0.40467  0.39527  Biso   1.000  C
  C190     1.0000 0.16969  0.44442  0.25097  Biso   1.000  C
  C191     1.0000 0.16700  0.44934  0.35457  Biso   1.000  C
  H240     1.0000 0.19793  0.44907  0.38357  Biso   1.000  H
  H241     1.0000 0.16953  0.48397  0.36937  Biso   1.000  H
  C192     1.0000 0.20025  0.42487  0.21117  Biso   1.000  C
  H242     1.0000 0.21933  0.41387  0.25067  Biso   1.000  H
  N70      1.0000 0.14150  0.45917  0.19817  Biso   1.000  N
  C193     1.0000 0.02613  0.32537  0.46947  Biso   1.000  C
  H243     1.0000 0.99363  0.29777  0.49437  Biso   1.000  H
  N71      1.0000 0.20379  0.42096  0.11947  Biso   1.000  N
  C194     1.0000 0.11703  0.36897  0.45957  Biso   1.000  C
  H244     1.0000 0.15053  0.37277  0.47677  Biso   1.000  H
  C195     1.0000 0.14473  0.45457  0.10567  Biso   1.000  C
  H245     1.0000 0.12533  0.46507  0.06607  Biso   1.000  H
  N72      1.0000 0.07205  0.32937  0.49787  Biso   1.000  N
  C196     1.0000 0.02453  0.36017  0.40507  Biso   1.000  C
  H246     1.0000 0.99103  0.35577  0.38667  Biso   1.000  H
  S18      1.0000 0.08205  0.49781  0.52003  Biso   1.000  S
  O18      1.0000 0.06283  0.50437  0.42587  Biso   1.000  O
  C197     1.0000 0.02533  0.45227  0.58267  Biso   1.000  C
  H247     1.0000 0.00753  0.41787  0.54997  Biso   1.000  H
  H248     1.0000 0.03603  0.44727  0.64477  Biso   1.000  H
  H249     1.0000 0.00063  0.46607  0.58817  Biso   1.000  H
  C198     1.0000 0.09653  0.55487  0.58297  Biso   1.000  C
  H250     1.0000 0.06313  0.55377  0.59997  Biso   1.000  H
  H251     1.0000 0.11623  0.55647  0.63947  Biso   1.000  H
  H252     1.0000 0.11833  0.58657  0.54487  Biso   1.000  H
