data_image0
_cell_length_a       28.159
_cell_length_b       28.159
_cell_length_c       11.9365
_cell_angle_alpha    90
_cell_angle_beta     90
_cell_angle_gamma    120

_symmetry_space_group_name_H-M    "P 1"
_symmetry_int_tables_number       1

loop_
  _symmetry_equiv_pos_as_xyz
  'x, y, z'

loop_
  _atom_site_label
  _atom_site_occupancy
  _atom_site_fract_x
  _atom_site_fract_y
  _atom_site_fract_z
  _atom_site_thermal_displace_type
  _atom_site_B_iso_or_equiv
  _atom_site_type_symbol
  Ag1      1.0000 0.58905  0.06801  0.19037  Biso   1.000  Ag
  C1       1.0000 0.64450  0.03690  0.99090  Biso   1.000  C
  H1       1.0000 0.60990  0.00420  0.98980  Biso   1.000  H
  C2       1.0000 0.76540  0.20040  0.28900  Biso   1.000  C
  H2       1.0000 0.79430  0.22790  0.24540  Biso   1.000  H
  N1       1.0000 0.65090  0.08060  0.04880  Biso   1.000  N
  N2       1.0000 0.73770  0.08360  0.93280  Biso   1.000  N
  C3       1.0000 0.71700  0.16690  0.23950  Biso   1.000  C
  C4       1.0000 0.68340  0.12030  0.39820  Biso   1.000  C
  H3       1.0000 0.65460  0.09100  0.43880  Biso   1.000  H
  C5       1.0000 0.68880  0.03950  0.93210  Biso   1.000  C
  H4       1.0000 0.68340  0.00840  0.89050  Biso   1.000  H
  C6       1.0000 0.70040  0.12600  0.04870  Biso   1.000  C
  N3       1.0000 0.67580  0.12670  0.29430  Biso   1.000  N
  C7       1.0000 0.74250  0.12590  0.98950  Biso   1.000  C
  H5       1.0000 0.77720  0.15860  0.98960  Biso   1.000  H
  C8       1.0000 0.73220  0.15450  0.45290  Biso   1.000  C
  H6       1.0000 0.73650  0.14920  0.53000  Biso   1.000  H
  N4       1.0000 0.77390  0.19610  0.39460  Biso   1.000  N
  C9       1.0000 0.70720  0.17320  0.11570  Biso   1.000  C
  H7       1.0000 0.67390  0.17640  0.10830  Biso   1.000  H
  H8       1.0000 0.73860  0.20730  0.08620  Biso   1.000  H
  Ag2      1.0000 0.25572  0.40134  0.52370  Biso   1.000  Ag
  C10      1.0000 0.31117  0.37023  0.32423  Biso   1.000  C
  H9       1.0000 0.27657  0.33753  0.32313  Biso   1.000  H
  C11      1.0000 0.43207  0.53373  0.62233  Biso   1.000  C
  H10      1.0000 0.46097  0.56123  0.57873  Biso   1.000  H
  N5       1.0000 0.31757  0.41393  0.38213  Biso   1.000  N
  N6       1.0000 0.40437  0.41693  0.26613  Biso   1.000  N
  C12      1.0000 0.38367  0.50023  0.57283  Biso   1.000  C
  C13      1.0000 0.35007  0.45363  0.73153  Biso   1.000  C
  H11      1.0000 0.32127  0.42433  0.77213  Biso   1.000  H
  C14      1.0000 0.35547  0.37283  0.26543  Biso   1.000  C
  H12      1.0000 0.35007  0.34173  0.22383  Biso   1.000  H
  C15      1.0000 0.36707  0.45933  0.38203  Biso   1.000  C
  N7       1.0000 0.34247  0.46003  0.62763  Biso   1.000  N
  C16      1.0000 0.40917  0.45923  0.32283  Biso   1.000  C
  H13      1.0000 0.44387  0.49193  0.32293  Biso   1.000  H
  C17      1.0000 0.39887  0.48783  0.78623  Biso   1.000  C
  H14      1.0000 0.40317  0.48253  0.86333  Biso   1.000  H
  N8       1.0000 0.44057  0.52943  0.72793  Biso   1.000  N
  C18      1.0000 0.37387  0.50653  0.44903  Biso   1.000  C
  H15      1.0000 0.34057  0.50973  0.44163  Biso   1.000  H
  H16      1.0000 0.40527  0.54063  0.41953  Biso   1.000  H
  Ag3      1.0000 0.92238  0.73468  0.85704  Biso   1.000  Ag
  C19      1.0000 0.97783  0.70357  0.65757  Biso   1.000  C
  H17      1.0000 0.94323  0.67087  0.65647  Biso   1.000  H
  C20      1.0000 0.09873  0.86707  0.95567  Biso   1.000  C
  H18      1.0000 0.12763  0.89457  0.91207  Biso   1.000  H
  N9       1.0000 0.98423  0.74727  0.71547  Biso   1.000  N
  N10      1.0000 0.07103  0.75027  0.59947  Biso   1.000  N
  C21      1.0000 0.05033  0.83357  0.90617  Biso   1.000  C
  C22      1.0000 0.01673  0.78697  0.06487  Biso   1.000  C
  H19      1.0000 0.98793  0.75767  0.10547  Biso   1.000  H
  C23      1.0000 0.02213  0.70617  0.59877  Biso   1.000  C
  H20      1.0000 0.01673  0.67507  0.55717  Biso   1.000  H
  C24      1.0000 0.03373  0.79267  0.71537  Biso   1.000  C
  N11      1.0000 0.00913  0.79337  0.96097  Biso   1.000  N
  C25      1.0000 0.07583  0.79257  0.65617  Biso   1.000  C
  H21      1.0000 0.11053  0.82527  0.65627  Biso   1.000  H
  C26      1.0000 0.06553  0.82117  0.11957  Biso   1.000  C
  H22      1.0000 0.06983  0.81587  0.19667  Biso   1.000  H
  N12      1.0000 0.10723  0.86277  0.06127  Biso   1.000  N
  C27      1.0000 0.04053  0.83987  0.78237  Biso   1.000  C
  H23      1.0000 0.00723  0.84307  0.77497  Biso   1.000  H
  H24      1.0000 0.07193  0.87397  0.75287  Biso   1.000  H
  Ag4      1.0000 0.93199  0.52104  0.19037  Biso   1.000  Ag
  C28      1.0000 0.96310  0.60760  0.99090  Biso   1.000  C
  H25      1.0000 0.99580  0.60570  0.98980  Biso   1.000  H
  C29      1.0000 0.79960  0.56500  0.28900  Biso   1.000  C
  H26      1.0000 0.77210  0.56640  0.24540  Biso   1.000  H
  N13      1.0000 0.91940  0.57030  0.04880  Biso   1.000  N
  N14      1.0000 0.91640  0.65410  0.93280  Biso   1.000  N
  C30      1.0000 0.83310  0.55010  0.23950  Biso   1.000  C
  C31      1.0000 0.87970  0.56310  0.39820  Biso   1.000  C
  H27      1.0000 0.90900  0.56360  0.43880  Biso   1.000  H
  C32      1.0000 0.96050  0.64930  0.93210  Biso   1.000  C
  H28      1.0000 0.99160  0.67500  0.89050  Biso   1.000  H
  C33      1.0000 0.87400  0.57440  0.04870  Biso   1.000  C
  N15      1.0000 0.87330  0.54910  0.29430  Biso   1.000  N
  C34      1.0000 0.87410  0.61660  0.98950  Biso   1.000  C
  H29      1.0000 0.84140  0.61860  0.98960  Biso   1.000  H
  C35      1.0000 0.84550  0.57770  0.45290  Biso   1.000  C
  H30      1.0000 0.85080  0.58730  0.53000  Biso   1.000  H
  N16      1.0000 0.80390  0.57780  0.39460  Biso   1.000  N
  C36      1.0000 0.82680  0.53400  0.11570  Biso   1.000  C
  H31      1.0000 0.82360  0.49750  0.10830  Biso   1.000  H
  H32      1.0000 0.79270  0.53130  0.08620  Biso   1.000  H
  Ag5      1.0000 0.59866  0.85437  0.52370  Biso   1.000  Ag
  C37      1.0000 0.62977  0.94093  0.32423  Biso   1.000  C
  H33      1.0000 0.66247  0.93903  0.32313  Biso   1.000  H
  C38      1.0000 0.46627  0.89833  0.62233  Biso   1.000  C
  H34      1.0000 0.43877  0.89973  0.57873  Biso   1.000  H
  N17      1.0000 0.58607  0.90363  0.38213  Biso   1.000  N
  N18      1.0000 0.58307  0.98743  0.26613  Biso   1.000  N
  C39      1.0000 0.49977  0.88343  0.57283  Biso   1.000  C
  C40      1.0000 0.54637  0.89643  0.73153  Biso   1.000  C
  H35      1.0000 0.57567  0.89693  0.77213  Biso   1.000  H
  C41      1.0000 0.62717  0.98263  0.26543  Biso   1.000  C
  H36      1.0000 0.65827  0.00833  0.22383  Biso   1.000  H
  C42      1.0000 0.54067  0.90773  0.38203  Biso   1.000  C
  N19      1.0000 0.53997  0.88243  0.62763  Biso   1.000  N
  C43      1.0000 0.54077  0.94993  0.32283  Biso   1.000  C
  H37      1.0000 0.50807  0.95193  0.32293  Biso   1.000  H
  C44      1.0000 0.51217  0.91103  0.78623  Biso   1.000  C
  H38      1.0000 0.51747  0.92063  0.86333  Biso   1.000  H
  N20      1.0000 0.47057  0.91113  0.72793  Biso   1.000  N
  C45      1.0000 0.49347  0.86733  0.44903  Biso   1.000  C
  H39      1.0000 0.49027  0.83083  0.44163  Biso   1.000  H
  H40      1.0000 0.45937  0.86463  0.41953  Biso   1.000  H
  Ag6      1.0000 0.26532  0.18771  0.85704  Biso   1.000  Ag
  C46      1.0000 0.29643  0.27427  0.65757  Biso   1.000  C
  H41      1.0000 0.32913  0.27237  0.65647  Biso   1.000  H
  C47      1.0000 0.13293  0.23167  0.95567  Biso   1.000  C
  H42      1.0000 0.10543  0.23307  0.91207  Biso   1.000  H
  N21      1.0000 0.25273  0.23697  0.71547  Biso   1.000  N
  N22      1.0000 0.24973  0.32077  0.59947  Biso   1.000  N
  C48      1.0000 0.16643  0.21677  0.90617  Biso   1.000  C
  C49      1.0000 0.21303  0.22977  0.06487  Biso   1.000  C
  H43      1.0000 0.24233  0.23027  0.10547  Biso   1.000  H
  C50      1.0000 0.29383  0.31597  0.59877  Biso   1.000  C
  H44      1.0000 0.32493  0.34167  0.55717  Biso   1.000  H
  C51      1.0000 0.20733  0.24107  0.71537  Biso   1.000  C
  N23      1.0000 0.20663  0.21577  0.96097  Biso   1.000  N
  C52      1.0000 0.20743  0.28327  0.65617  Biso   1.000  C
  H45      1.0000 0.17473  0.28527  0.65627  Biso   1.000  H
  C53      1.0000 0.17883  0.24437  0.11957  Biso   1.000  C
  H46      1.0000 0.18413  0.25397  0.19667  Biso   1.000  H
  N24      1.0000 0.13723  0.24447  0.06127  Biso   1.000  N
  C54      1.0000 0.16013  0.20067  0.78237  Biso   1.000  C
  H47      1.0000 0.15693  0.16417  0.77497  Biso   1.000  H
  H48      1.0000 0.12603  0.19797  0.75287  Biso   1.000  H
  Ag7      1.0000 0.47896  0.41095  0.19037  Biso   1.000  Ag
  C55      1.0000 0.39240  0.35550  0.99090  Biso   1.000  C
  H49      1.0000 0.39430  0.39010  0.98980  Biso   1.000  H
  C56      1.0000 0.43500  0.23460  0.28900  Biso   1.000  C
  H50      1.0000 0.43360  0.20570  0.24540  Biso   1.000  H
  N25      1.0000 0.42970  0.34910  0.04880  Biso   1.000  N
  N26      1.0000 0.34590  0.26230  0.93280  Biso   1.000  N
  C57      1.0000 0.44990  0.28300  0.23950  Biso   1.000  C
  C58      1.0000 0.43690  0.31660  0.39820  Biso   1.000  C
  H51      1.0000 0.43640  0.34540  0.43880  Biso   1.000  H
  C59      1.0000 0.35070  0.31120  0.93210  Biso   1.000  C
  H52      1.0000 0.32500  0.31660  0.89050  Biso   1.000  H
  C60      1.0000 0.42560  0.29960  0.04870  Biso   1.000  C
  N27      1.0000 0.45090  0.32420  0.29430  Biso   1.000  N
  C61      1.0000 0.38340  0.25750  0.98950  Biso   1.000  C
  H53      1.0000 0.38140  0.22280  0.98960  Biso   1.000  H
  C62      1.0000 0.42230  0.26780  0.45290  Biso   1.000  C
  H54      1.0000 0.41270  0.26350  0.53000  Biso   1.000  H
  N28      1.0000 0.42220  0.22610  0.39460  Biso   1.000  N
  C63      1.0000 0.46600  0.29280  0.11570  Biso   1.000  C
  H55      1.0000 0.50250  0.32610  0.10830  Biso   1.000  H
  H56      1.0000 0.46870  0.26140  0.08620  Biso   1.000  H
  Ag8      1.0000 0.14563  0.74428  0.52370  Biso   1.000  Ag
  C64      1.0000 0.05907  0.68883  0.32423  Biso   1.000  C
  H57      1.0000 0.06097  0.72343  0.32313  Biso   1.000  H
  C65      1.0000 0.10167  0.56793  0.62233  Biso   1.000  C
  H58      1.0000 0.10027  0.53903  0.57873  Biso   1.000  H
  N29      1.0000 0.09637  0.68243  0.38213  Biso   1.000  N
  N30      1.0000 0.01257  0.59563  0.26613  Biso   1.000  N
  C66      1.0000 0.11657  0.61633  0.57283  Biso   1.000  C
  C67      1.0000 0.10357  0.64993  0.73153  Biso   1.000  C
  H59      1.0000 0.10307  0.67873  0.77213  Biso   1.000  H
  C68      1.0000 0.01737  0.64453  0.26543  Biso   1.000  C
  H60      1.0000 0.99167  0.64993  0.22383  Biso   1.000  H
  C69      1.0000 0.09227  0.63293  0.38203  Biso   1.000  C
  N31      1.0000 0.11757  0.65753  0.62763  Biso   1.000  N
  C70      1.0000 0.05007  0.59083  0.32283  Biso   1.000  C
  H61      1.0000 0.04807  0.55613  0.32293  Biso   1.000  H
  C71      1.0000 0.08897  0.60113  0.78623  Biso   1.000  C
  H62      1.0000 0.07937  0.59683  0.86333  Biso   1.000  H
  N32      1.0000 0.08887  0.55943  0.72793  Biso   1.000  N
  C72      1.0000 0.13267  0.62613  0.44903  Biso   1.000  C
  H63      1.0000 0.16917  0.65943  0.44163  Biso   1.000  H
  H64      1.0000 0.13537  0.59473  0.41953  Biso   1.000  H
  Ag9      1.0000 0.81229  0.07762  0.85704  Biso   1.000  Ag
  C73      1.0000 0.72573  0.02217  0.65757  Biso   1.000  C
  H65      1.0000 0.72763  0.05677  0.65647  Biso   1.000  H
  C74      1.0000 0.76833  0.90127  0.95567  Biso   1.000  C
  H66      1.0000 0.76693  0.87237  0.91207  Biso   1.000  H
  N33      1.0000 0.76303  0.01577  0.71547  Biso   1.000  N
  N34      1.0000 0.67923  0.92897  0.59947  Biso   1.000  N
  C75      1.0000 0.78323  0.94967  0.90617  Biso   1.000  C
  C76      1.0000 0.77023  0.98327  0.06487  Biso   1.000  C
  H67      1.0000 0.76973  0.01207  0.10547  Biso   1.000  H
  C77      1.0000 0.68403  0.97787  0.59877  Biso   1.000  C
  H68      1.0000 0.65833  0.98327  0.55717  Biso   1.000  H
  C78      1.0000 0.75893  0.96627  0.71537  Biso   1.000  C
  N35      1.0000 0.78423  0.99087  0.96097  Biso   1.000  N
  C79      1.0000 0.71673  0.92417  0.65617  Biso   1.000  C
  H69      1.0000 0.71473  0.88947  0.65627  Biso   1.000  H
  C80      1.0000 0.75563  0.93447  0.11957  Biso   1.000  C
  H70      1.0000 0.74603  0.93017  0.19667  Biso   1.000  H
  N36      1.0000 0.75553  0.89277  0.06127  Biso   1.000  N
  C81      1.0000 0.79933  0.95947  0.78237  Biso   1.000  C
  H71      1.0000 0.83583  0.99277  0.77497  Biso   1.000  H
  H72      1.0000 0.80203  0.92807  0.75287  Biso   1.000  H
  Ag10     1.0000 0.41095  0.93199  0.80963  Biso   1.000  Ag
  C82      1.0000 0.35550  0.96310  0.00910  Biso   1.000  C
  H73      1.0000 0.39010  0.99580  0.01020  Biso   1.000  H
  C83      1.0000 0.23460  0.79960  0.71100  Biso   1.000  C
  H74      1.0000 0.20570  0.77210  0.75460  Biso   1.000  H
  N37      1.0000 0.34910  0.91940  0.95120  Biso   1.000  N
  N38      1.0000 0.26230  0.91640  0.06720  Biso   1.000  N
  C84      1.0000 0.28300  0.83310  0.76050  Biso   1.000  C
  C85      1.0000 0.31660  0.87970  0.60180  Biso   1.000  C
  H75      1.0000 0.34540  0.90900  0.56120  Biso   1.000  H
  C86      1.0000 0.31120  0.96050  0.06790  Biso   1.000  C
  H76      1.0000 0.31660  0.99160  0.10950  Biso   1.000  H
  C87      1.0000 0.29960  0.87400  0.95130  Biso   1.000  C
  N39      1.0000 0.32420  0.87330  0.70570  Biso   1.000  N
  C88      1.0000 0.25750  0.87410  0.01050  Biso   1.000  C
  H77      1.0000 0.22280  0.84140  0.01040  Biso   1.000  H
  C89      1.0000 0.26780  0.84550  0.54710  Biso   1.000  C
  H78      1.0000 0.26350  0.85080  0.47000  Biso   1.000  H
  N40      1.0000 0.22610  0.80390  0.60540  Biso   1.000  N
  C90      1.0000 0.29280  0.82680  0.88430  Biso   1.000  C
  H79      1.0000 0.32610  0.82360  0.89170  Biso   1.000  H
  H80      1.0000 0.26140  0.79270  0.91380  Biso   1.000  H
  Ag11     1.0000 0.07762  0.26532  0.14296  Biso   1.000  Ag
  C91      1.0000 0.02217  0.29643  0.34243  Biso   1.000  C
  H81      1.0000 0.05677  0.32913  0.34353  Biso   1.000  H
  C92      1.0000 0.90127  0.13293  0.04433  Biso   1.000  C
  H82      1.0000 0.87237  0.10543  0.08793  Biso   1.000  H
  N41      1.0000 0.01577  0.25273  0.28453  Biso   1.000  N
  N42      1.0000 0.92897  0.24973  0.40053  Biso   1.000  N
  C93      1.0000 0.94967  0.16643  0.09383  Biso   1.000  C
  C94      1.0000 0.98327  0.21303  0.93513  Biso   1.000  C
  H83      1.0000 0.01207  0.24233  0.89453  Biso   1.000  H
  C95      1.0000 0.97787  0.29383  0.40123  Biso   1.000  C
  H84      1.0000 0.98327  0.32493  0.44283  Biso   1.000  H
  C96      1.0000 0.96627  0.20733  0.28463  Biso   1.000  C
  N43      1.0000 0.99087  0.20663  0.03903  Biso   1.000  N
  C97      1.0000 0.92417  0.20743  0.34383  Biso   1.000  C
  H85      1.0000 0.88947  0.17473  0.34373  Biso   1.000  H
  C98      1.0000 0.93447  0.17883  0.88043  Biso   1.000  C
  H86      1.0000 0.93017  0.18413  0.80333  Biso   1.000  H
  N44      1.0000 0.89277  0.13723  0.93873  Biso   1.000  N
  C99      1.0000 0.95947  0.16013  0.21763  Biso   1.000  C
  H87      1.0000 0.99277  0.15693  0.22503  Biso   1.000  H
  H88      1.0000 0.92807  0.12603  0.24713  Biso   1.000  H
  Ag12     1.0000 0.74428  0.59866  0.47630  Biso   1.000  Ag
  C100     1.0000 0.68883  0.62977  0.67577  Biso   1.000  C
  H89      1.0000 0.72343  0.66247  0.67687  Biso   1.000  H
  C101     1.0000 0.56793  0.46627  0.37767  Biso   1.000  C
  H90      1.0000 0.53903  0.43877  0.42127  Biso   1.000  H
  N45      1.0000 0.68243  0.58607  0.61787  Biso   1.000  N
  N46      1.0000 0.59563  0.58307  0.73387  Biso   1.000  N
  C102     1.0000 0.61633  0.49977  0.42717  Biso   1.000  C
  C103     1.0000 0.64993  0.54637  0.26847  Biso   1.000  C
  H91      1.0000 0.67873  0.57567  0.22787  Biso   1.000  H
  C104     1.0000 0.64453  0.62717  0.73457  Biso   1.000  C
  H92      1.0000 0.64993  0.65827  0.77617  Biso   1.000  H
  C105     1.0000 0.63293  0.54067  0.61797  Biso   1.000  C
  N47      1.0000 0.65753  0.53997  0.37237  Biso   1.000  N
  C106     1.0000 0.59083  0.54077  0.67717  Biso   1.000  C
  H93      1.0000 0.55613  0.50807  0.67707  Biso   1.000  H
  C107     1.0000 0.60113  0.51217  0.21377  Biso   1.000  C
  H94      1.0000 0.59683  0.51747  0.13667  Biso   1.000  H
  N48      1.0000 0.55943  0.47057  0.27207  Biso   1.000  N
  C108     1.0000 0.62613  0.49347  0.55097  Biso   1.000  C
  H95      1.0000 0.65943  0.49027  0.55837  Biso   1.000  H
  H96      1.0000 0.59473  0.45937  0.58047  Biso   1.000  H
  Ag13     1.0000 0.06801  0.47896  0.80963  Biso   1.000  Ag
  C109     1.0000 0.03690  0.39240  0.00910  Biso   1.000  C
  H97      1.0000 0.00420  0.39430  0.01020  Biso   1.000  H
  C110     1.0000 0.20040  0.43500  0.71100  Biso   1.000  C
  H98      1.0000 0.22790  0.43360  0.75460  Biso   1.000  H
  N49      1.0000 0.08060  0.42970  0.95120  Biso   1.000  N
  N50      1.0000 0.08360  0.34590  0.06720  Biso   1.000  N
  C111     1.0000 0.16690  0.44990  0.76050  Biso   1.000  C
  C112     1.0000 0.12030  0.43690  0.60180  Biso   1.000  C
  H99      1.0000 0.09100  0.43640  0.56120  Biso   1.000  H
  C113     1.0000 0.03950  0.35070  0.06790  Biso   1.000  C
  H100     1.0000 0.00840  0.32500  0.10950  Biso   1.000  H
  C114     1.0000 0.12600  0.42560  0.95130  Biso   1.000  C
  N51      1.0000 0.12670  0.45090  0.70570  Biso   1.000  N
  C115     1.0000 0.12590  0.38340  0.01050  Biso   1.000  C
  H101     1.0000 0.15860  0.38140  0.01040  Biso   1.000  H
  C116     1.0000 0.15450  0.42230  0.54710  Biso   1.000  C
  H102     1.0000 0.14920  0.41270  0.47000  Biso   1.000  H
  N52      1.0000 0.19610  0.42220  0.60540  Biso   1.000  N
  C117     1.0000 0.17320  0.46600  0.88430  Biso   1.000  C
  H103     1.0000 0.17640  0.50250  0.89170  Biso   1.000  H
  H104     1.0000 0.20730  0.46870  0.91380  Biso   1.000  H
  Ag14     1.0000 0.73468  0.81229  0.14296  Biso   1.000  Ag
  C118     1.0000 0.70357  0.72573  0.34243  Biso   1.000  C
  H105     1.0000 0.67087  0.72763  0.34353  Biso   1.000  H
  C119     1.0000 0.86707  0.76833  0.04433  Biso   1.000  C
  H106     1.0000 0.89457  0.76693  0.08793  Biso   1.000  H
  N53      1.0000 0.74727  0.76303  0.28453  Biso   1.000  N
  N54      1.0000 0.75027  0.67923  0.40053  Biso   1.000  N
  C120     1.0000 0.83357  0.78323  0.09383  Biso   1.000  C
  C121     1.0000 0.78697  0.77023  0.93513  Biso   1.000  C
  H107     1.0000 0.75767  0.76973  0.89453  Biso   1.000  H
  C122     1.0000 0.70617  0.68403  0.40123  Biso   1.000  C
  H108     1.0000 0.67507  0.65833  0.44283  Biso   1.000  H
  C123     1.0000 0.79267  0.75893  0.28463  Biso   1.000  C
  N55      1.0000 0.79337  0.78423  0.03903  Biso   1.000  N
  C124     1.0000 0.79257  0.71673  0.34383  Biso   1.000  C
  H109     1.0000 0.82527  0.71473  0.34373  Biso   1.000  H
  C125     1.0000 0.82117  0.75563  0.88043  Biso   1.000  C
  H110     1.0000 0.81587  0.74603  0.80333  Biso   1.000  H
  N56      1.0000 0.86277  0.75553  0.93873  Biso   1.000  N
  C126     1.0000 0.83987  0.79933  0.21763  Biso   1.000  C
  H111     1.0000 0.84307  0.83583  0.22503  Biso   1.000  H
  H112     1.0000 0.87397  0.80203  0.24713  Biso   1.000  H
  Ag15     1.0000 0.40134  0.14563  0.47630  Biso   1.000  Ag
  C127     1.0000 0.37023  0.05907  0.67577  Biso   1.000  C
  H113     1.0000 0.33753  0.06097  0.67687  Biso   1.000  H
  C128     1.0000 0.53373  0.10167  0.37767  Biso   1.000  C
  H114     1.0000 0.56123  0.10027  0.42127  Biso   1.000  H
  N57      1.0000 0.41393  0.09637  0.61787  Biso   1.000  N
  N58      1.0000 0.41693  0.01257  0.73387  Biso   1.000  N
  C129     1.0000 0.50023  0.11657  0.42717  Biso   1.000  C
  C130     1.0000 0.45363  0.10357  0.26847  Biso   1.000  C
  H115     1.0000 0.42433  0.10307  0.22787  Biso   1.000  H
  C131     1.0000 0.37283  0.01737  0.73457  Biso   1.000  C
  H116     1.0000 0.34173  0.99167  0.77617  Biso   1.000  H
  C132     1.0000 0.45933  0.09227  0.61797  Biso   1.000  C
  N59      1.0000 0.46003  0.11757  0.37237  Biso   1.000  N
  C133     1.0000 0.45923  0.05007  0.67717  Biso   1.000  C
  H117     1.0000 0.49193  0.04807  0.67707  Biso   1.000  H
  C134     1.0000 0.48783  0.08897  0.21377  Biso   1.000  C
  H118     1.0000 0.48253  0.07937  0.13667  Biso   1.000  H
  N60      1.0000 0.52943  0.08887  0.27207  Biso   1.000  N
  C135     1.0000 0.50653  0.13267  0.55097  Biso   1.000  C
  H119     1.0000 0.50973  0.16917  0.55837  Biso   1.000  H
  H120     1.0000 0.54063  0.13537  0.58047  Biso   1.000  H
  Ag16     1.0000 0.52104  0.58905  0.80963  Biso   1.000  Ag
  C136     1.0000 0.60760  0.64450  0.00910  Biso   1.000  C
  H121     1.0000 0.60570  0.60990  0.01020  Biso   1.000  H
  C137     1.0000 0.56500  0.76540  0.71100  Biso   1.000  C
  H122     1.0000 0.56640  0.79430  0.75460  Biso   1.000  H
  N61      1.0000 0.57030  0.65090  0.95120  Biso   1.000  N
  N62      1.0000 0.65410  0.73770  0.06720  Biso   1.000  N
  C138     1.0000 0.55010  0.71700  0.76050  Biso   1.000  C
  C139     1.0000 0.56310  0.68340  0.60180  Biso   1.000  C
  H123     1.0000 0.56360  0.65460  0.56120  Biso   1.000  H
  C140     1.0000 0.64930  0.68880  0.06790  Biso   1.000  C
  H124     1.0000 0.67500  0.68340  0.10950  Biso   1.000  H
  C141     1.0000 0.57440  0.70040  0.95130  Biso   1.000  C
  N63      1.0000 0.54910  0.67580  0.70570  Biso   1.000  N
  C142     1.0000 0.61660  0.74250  0.01050  Biso   1.000  C
  H125     1.0000 0.61860  0.77720  0.01040  Biso   1.000  H
  C143     1.0000 0.57770  0.73220  0.54710  Biso   1.000  C
  H126     1.0000 0.58730  0.73650  0.47000  Biso   1.000  H
  N64      1.0000 0.57780  0.77390  0.60540  Biso   1.000  N
  C144     1.0000 0.53400  0.70720  0.88430  Biso   1.000  C
  H127     1.0000 0.49750  0.67390  0.89170  Biso   1.000  H
  H128     1.0000 0.53130  0.73860  0.91380  Biso   1.000  H
  Ag17     1.0000 0.18771  0.92238  0.14296  Biso   1.000  Ag
  C145     1.0000 0.27427  0.97783  0.34243  Biso   1.000  C
  H129     1.0000 0.27237  0.94323  0.34353  Biso   1.000  H
  C146     1.0000 0.23167  0.09873  0.04433  Biso   1.000  C
  H130     1.0000 0.23307  0.12763  0.08793  Biso   1.000  H
  N65      1.0000 0.23697  0.98423  0.28453  Biso   1.000  N
  N66      1.0000 0.32077  0.07103  0.40053  Biso   1.000  N
  C147     1.0000 0.21677  0.05033  0.09383  Biso   1.000  C
  C148     1.0000 0.22977  0.01673  0.93513  Biso   1.000  C
  H131     1.0000 0.23027  0.98793  0.89453  Biso   1.000  H
  C149     1.0000 0.31597  0.02213  0.40123  Biso   1.000  C
  H132     1.0000 0.34167  0.01673  0.44283  Biso   1.000  H
  C150     1.0000 0.24107  0.03373  0.28463  Biso   1.000  C
  N67      1.0000 0.21577  0.00913  0.03903  Biso   1.000  N
  C151     1.0000 0.28327  0.07583  0.34383  Biso   1.000  C
  H133     1.0000 0.28527  0.11053  0.34373  Biso   1.000  H
  C152     1.0000 0.24437  0.06553  0.88043  Biso   1.000  C
  H134     1.0000 0.25397  0.06983  0.80333  Biso   1.000  H
  N68      1.0000 0.24447  0.10723  0.93873  Biso   1.000  N
  C153     1.0000 0.20067  0.04053  0.21763  Biso   1.000  C
  H135     1.0000 0.16417  0.00723  0.22503  Biso   1.000  H
  H136     1.0000 0.19797  0.07193  0.24713  Biso   1.000  H
  Ag18     1.0000 0.85437  0.25572  0.47630  Biso   1.000  Ag
  C154     1.0000 0.94093  0.31117  0.67577  Biso   1.000  C
  H137     1.0000 0.93903  0.27657  0.67687  Biso   1.000  H
  C155     1.0000 0.89833  0.43207  0.37767  Biso   1.000  C
  H138     1.0000 0.89973  0.46097  0.42127  Biso   1.000  H
  N69      1.0000 0.90363  0.31757  0.61787  Biso   1.000  N
  N70      1.0000 0.98743  0.40437  0.73387  Biso   1.000  N
  C156     1.0000 0.88343  0.38367  0.42717  Biso   1.000  C
  C157     1.0000 0.89643  0.35007  0.26847  Biso   1.000  C
  H139     1.0000 0.89693  0.32127  0.22787  Biso   1.000  H
  C158     1.0000 0.98263  0.35547  0.73457  Biso   1.000  C
  H140     1.0000 0.00833  0.35007  0.77617  Biso   1.000  H
  C159     1.0000 0.90773  0.36707  0.61797  Biso   1.000  C
  N71      1.0000 0.88243  0.34247  0.37237  Biso   1.000  N
  C160     1.0000 0.94993  0.40917  0.67717  Biso   1.000  C
  H141     1.0000 0.95193  0.44387  0.67707  Biso   1.000  H
  C161     1.0000 0.91103  0.39887  0.21377  Biso   1.000  C
  H142     1.0000 0.92063  0.40317  0.13667  Biso   1.000  H
  N72      1.0000 0.91113  0.44057  0.27207  Biso   1.000  N
  C162     1.0000 0.86733  0.37387  0.55097  Biso   1.000  C
  H143     1.0000 0.83083  0.34057  0.55837  Biso   1.000  H
  H144     1.0000 0.86463  0.40527  0.58047  Biso   1.000  H
