data_image0
_cell_length_a       7.87238
_cell_length_b       9.2884
_cell_length_c       9.4607
_cell_angle_alpha    93.3608
_cell_angle_beta     114.586
_cell_angle_gamma    81.8999

_symmetry_space_group_name_H-M    P 1
_symmetry_int_tables_number       1

loop_
  _symmetry_equiv_pos_as_xyz
  'x, y, z'

loop_
  _atom_site_label
  _atom_site_occupancy
  _atom_site_fract_x
  _atom_site_fract_y
  _atom_site_fract_z
  _atom_site_thermal_displace_type
  _atom_site_B_iso_or_equiv
  _atom_site_type_symbol
  Cd1      1.0000 0.00000  0.50000  0.50000  Biso   1.000  Cd
  Cd2      1.0000 0.50000  0.50000  0.50000  Biso   1.000  Cd
  Cd3      1.0000 0.50000  0.00000  0.00000  Biso   1.000  Cd
  H1       1.0000 0.05680  0.22300  0.24880  Biso   1.000  H
  H2       1.0000 0.94460  0.10260  0.14060  Biso   1.000  H
  H3       1.0000 0.11440  0.07890  0.47000  Biso   1.000  H
  H4       1.0000 0.01460  0.95690  0.35740  Biso   1.000  H
  H5       1.0000 0.19200  0.77700  0.24880  Biso   1.000  H
  H6       1.0000 0.19600  0.89740  0.14060  Biso   1.000  H
  H7       1.0000 0.35560  0.92110  0.47000  Biso   1.000  H
  H8       1.0000 0.34280  0.04310  0.35740  Biso   1.000  H
  H9       1.0000 0.94320  0.77700  0.75120  Biso   1.000  H
  H10      1.0000 0.05540  0.89740  0.85940  Biso   1.000  H
  H11      1.0000 0.88560  0.92110  0.53000  Biso   1.000  H
  H12      1.0000 0.98540  0.04310  0.64260  Biso   1.000  H
  H13      1.0000 0.80800  0.22300  0.75120  Biso   1.000  H
  H14      1.0000 0.80400  0.10260  0.85940  Biso   1.000  H
  H15      1.0000 0.64440  0.07890  0.53000  Biso   1.000  H
  H16      1.0000 0.65720  0.95690  0.64260  Biso   1.000  H
  C1       1.0000 0.80680  0.21340  0.26280  Biso   1.000  C
  C2       1.0000 0.97970  0.14790  0.24200  Biso   1.000  C
  C3       1.0000 0.09130  0.03370  0.36980  Biso   1.000  C
  C4       1.0000 0.45600  0.78660  0.26280  Biso   1.000  C
  C5       1.0000 0.26230  0.85210  0.24200  Biso   1.000  C
  C6       1.0000 0.27850  0.96630  0.36980  Biso   1.000  C
  C7       1.0000 0.19320  0.78660  0.73720  Biso   1.000  C
  C8       1.0000 0.02030  0.85210  0.75800  Biso   1.000  C
  C9       1.0000 0.90870  0.96630  0.63020  Biso   1.000  C
  C10      1.0000 0.54400  0.21340  0.73720  Biso   1.000  C
  C11      1.0000 0.73770  0.14790  0.75800  Biso   1.000  C
  C12      1.0000 0.72150  0.03370  0.63020  Biso   1.000  C
  N1       1.0000 0.62270  0.33630  0.35320  Biso   1.000  N
  N2       1.0000 0.52530  0.24520  0.25160  Biso   1.000  N
  N3       1.0000 0.63870  0.16630  0.19300  Biso   1.000  N
  N4       1.0000 0.80200  0.31960  0.36400  Biso   1.000  N
  N5       1.0000 0.73050  0.66370  0.35320  Biso   1.000  N
  N6       1.0000 0.72630  0.75480  0.25160  Biso   1.000  N
  N7       1.0000 0.55430  0.83370  0.19300  Biso   1.000  N
  N8       1.0000 0.56200  0.68040  0.36400  Biso   1.000  N
  N9       1.0000 0.37730  0.66370  0.64680  Biso   1.000  N
  N10      1.0000 0.47470  0.75480  0.74840  Biso   1.000  N
  N11      1.0000 0.36130  0.83370  0.80700  Biso   1.000  N
  N12      1.0000 0.19800  0.68040  0.63600  Biso   1.000  N
  N13      1.0000 0.26950  0.33630  0.64680  Biso   1.000  N
  N14      1.0000 0.27370  0.24520  0.74840  Biso   1.000  N
  N15      1.0000 0.44570  0.16630  0.80700  Biso   1.000  N
  N16      1.0000 0.43800  0.31960  0.63600  Biso   1.000  N
  Cl1      1.0000 0.14903  0.50000  0.29806  Biso   1.000  Cl
  Cl2      1.0000 0.85097  0.50000  0.70194  Biso   1.000  Cl
