data_image0
_cell_length_a       9.032
_cell_length_b       9.032
_cell_length_c       31.322
_cell_angle_alpha    90
_cell_angle_beta     90
_cell_angle_gamma    90

_symmetry_space_group_name_H-M    "P 1"
_symmetry_int_tables_number       1

loop_
  _symmetry_equiv_pos_as_xyz
  'x, y, z'

loop_
  _atom_site_label
  _atom_site_occupancy
  _atom_site_fract_x
  _atom_site_fract_y
  _atom_site_fract_z
  _atom_site_thermal_displace_type
  _atom_site_B_iso_or_equiv
  _atom_site_type_symbol
  N1       1.0000 0.62650  0.61840  0.04515  Biso   1.000  N
  N2       1.0000 0.60700  0.47100  0.04427  Biso   1.000  N
  N3       1.0000 0.32650  0.64060  0.20510  Biso   1.000  N
  N4       1.0000 0.31460  0.49210  0.20437  Biso   1.000  N
  C1       1.0000 0.56230  0.66380  0.08129  Biso   1.000  C
  C2       1.0000 0.50120  0.54420  0.10354  Biso   1.000  C
  C3       1.0000 0.53320  0.42380  0.07870  Biso   1.000  C
  C4       1.0000 0.39490  0.67530  0.16866  Biso   1.000  C
  C5       1.0000 0.42580  0.54960  0.14464  Biso   1.000  C
  C6       1.0000 0.37230  0.43540  0.16901  Biso   1.000  C
  H1       1.0000 0.56000  0.77800  0.09030  Biso   1.000  H
  H2       1.0000 0.63400  0.42100  0.02340  Biso   1.000  H
  H3       1.0000 0.52300  0.33700  0.08290  Biso   1.000  H
  H4       1.0000 0.37200  0.34100  0.16350  Biso   1.000  H
  H5       1.0000 0.28900  0.44800  0.22560  Biso   1.000  H
  H6       1.0000 0.40700  0.78000  0.16190  Biso   1.000  H
  N5       1.0000 0.37350  0.38160  0.54515  Biso   1.000  N
  N6       1.0000 0.39300  0.52900  0.54427  Biso   1.000  N
  N7       1.0000 0.67350  0.35940  0.70510  Biso   1.000  N
  N8       1.0000 0.68540  0.50790  0.70437  Biso   1.000  N
  C7       1.0000 0.43770  0.33620  0.58129  Biso   1.000  C
  C8       1.0000 0.49880  0.45580  0.60354  Biso   1.000  C
  C9       1.0000 0.46680  0.57620  0.57870  Biso   1.000  C
  C10      1.0000 0.60510  0.32470  0.66866  Biso   1.000  C
  C11      1.0000 0.57420  0.45040  0.64464  Biso   1.000  C
  C12      1.0000 0.62770  0.56460  0.66901  Biso   1.000  C
  H7       1.0000 0.44000  0.22200  0.59030  Biso   1.000  H
  H8       1.0000 0.36600  0.57900  0.52340  Biso   1.000  H
  H9       1.0000 0.47700  0.66300  0.58290  Biso   1.000  H
  H10      1.0000 0.62800  0.65900  0.66350  Biso   1.000  H
  H11      1.0000 0.71100  0.55200  0.72560  Biso   1.000  H
  H12      1.0000 0.59300  0.22000  0.66190  Biso   1.000  H
  N9       1.0000 0.88160  0.12650  0.79515  Biso   1.000  N
  N10      1.0000 0.02900  0.10700  0.79427  Biso   1.000  N
  N11      1.0000 0.85940  0.82650  0.95510  Biso   1.000  N
  N12      1.0000 0.00790  0.81460  0.95437  Biso   1.000  N
  C13      1.0000 0.83620  0.06230  0.83129  Biso   1.000  C
  C14      1.0000 0.95580  0.00120  0.85354  Biso   1.000  C
  C15      1.0000 0.07620  0.03320  0.82870  Biso   1.000  C
  C16      1.0000 0.82470  0.89490  0.91866  Biso   1.000  C
  C17      1.0000 0.95040  0.92580  0.89464  Biso   1.000  C
  C18      1.0000 0.06460  0.87230  0.91901  Biso   1.000  C
  H13      1.0000 0.72200  0.06000  0.84030  Biso   1.000  H
  H14      1.0000 0.07900  0.13400  0.77340  Biso   1.000  H
  H15      1.0000 0.16300  0.02300  0.83290  Biso   1.000  H
  H16      1.0000 0.15900  0.87200  0.91350  Biso   1.000  H
  H17      1.0000 0.05200  0.78900  0.97560  Biso   1.000  H
  H18      1.0000 0.72000  0.90700  0.91190  Biso   1.000  H
  N13      1.0000 0.11840  0.87350  0.29515  Biso   1.000  N
  N14      1.0000 0.97100  0.89300  0.29427  Biso   1.000  N
  N15      1.0000 0.14060  0.17350  0.45510  Biso   1.000  N
  N16      1.0000 0.99210  0.18540  0.45437  Biso   1.000  N
  C19      1.0000 0.16380  0.93770  0.33129  Biso   1.000  C
  C20      1.0000 0.04420  0.99880  0.35354  Biso   1.000  C
  C21      1.0000 0.92380  0.96680  0.32870  Biso   1.000  C
  C22      1.0000 0.17530  0.10510  0.41866  Biso   1.000  C
  C23      1.0000 0.04960  0.07420  0.39464  Biso   1.000  C
  C24      1.0000 0.93540  0.12770  0.41901  Biso   1.000  C
  H19      1.0000 0.27800  0.94000  0.34030  Biso   1.000  H
  H20      1.0000 0.92100  0.86600  0.27340  Biso   1.000  H
  H21      1.0000 0.83700  0.97700  0.33290  Biso   1.000  H
  H22      1.0000 0.84100  0.12800  0.41350  Biso   1.000  H
  H23      1.0000 0.94800  0.21100  0.47560  Biso   1.000  H
  H24      1.0000 0.28000  0.09300  0.41190  Biso   1.000  H
  N17      1.0000 0.87350  0.11840  0.70485  Biso   1.000  N
  N18      1.0000 0.89300  0.97100  0.70573  Biso   1.000  N
  N19      1.0000 0.17350  0.14060  0.54490  Biso   1.000  N
  N20      1.0000 0.18540  0.99210  0.54563  Biso   1.000  N
  C25      1.0000 0.93770  0.16380  0.66871  Biso   1.000  C
  C26      1.0000 0.99880  0.04420  0.64646  Biso   1.000  C
  C27      1.0000 0.96680  0.92380  0.67130  Biso   1.000  C
  C28      1.0000 0.10510  0.17530  0.58134  Biso   1.000  C
  C29      1.0000 0.07420  0.04960  0.60536  Biso   1.000  C
  C30      1.0000 0.12770  0.93540  0.58099  Biso   1.000  C
  H25      1.0000 0.94000  0.27800  0.65970  Biso   1.000  H
  H26      1.0000 0.86600  0.92100  0.72660  Biso   1.000  H
  H27      1.0000 0.97700  0.83700  0.66710  Biso   1.000  H
  H28      1.0000 0.12800  0.84100  0.58650  Biso   1.000  H
  H29      1.0000 0.21100  0.94800  0.52440  Biso   1.000  H
  H30      1.0000 0.09300  0.28000  0.58810  Biso   1.000  H
  N21      1.0000 0.12650  0.88160  0.20485  Biso   1.000  N
  N22      1.0000 0.10700  0.02900  0.20573  Biso   1.000  N
  N23      1.0000 0.82650  0.85940  0.04490  Biso   1.000  N
  N24      1.0000 0.81460  0.00790  0.04563  Biso   1.000  N
  C31      1.0000 0.06230  0.83620  0.16871  Biso   1.000  C
  C32      1.0000 0.00120  0.95580  0.14646  Biso   1.000  C
  C33      1.0000 0.03320  0.07620  0.17130  Biso   1.000  C
  C34      1.0000 0.89490  0.82470  0.08134  Biso   1.000  C
  C35      1.0000 0.92580  0.95040  0.10536  Biso   1.000  C
  C36      1.0000 0.87230  0.06460  0.08099  Biso   1.000  C
  H31      1.0000 0.06000  0.72200  0.15970  Biso   1.000  H
  H32      1.0000 0.13400  0.07900  0.22660  Biso   1.000  H
  H33      1.0000 0.02300  0.16300  0.16710  Biso   1.000  H
  H34      1.0000 0.87200  0.15900  0.08650  Biso   1.000  H
  H35      1.0000 0.78900  0.05200  0.02440  Biso   1.000  H
  H36      1.0000 0.90700  0.72000  0.08810  Biso   1.000  H
  N25      1.0000 0.61840  0.62650  0.95485  Biso   1.000  N
  N26      1.0000 0.47100  0.60700  0.95573  Biso   1.000  N
  N27      1.0000 0.64060  0.32650  0.79490  Biso   1.000  N
  N28      1.0000 0.49210  0.31460  0.79563  Biso   1.000  N
  C37      1.0000 0.66380  0.56230  0.91871  Biso   1.000  C
  C38      1.0000 0.54420  0.50120  0.89646  Biso   1.000  C
  C39      1.0000 0.42380  0.53320  0.92130  Biso   1.000  C
  C40      1.0000 0.67530  0.39490  0.83134  Biso   1.000  C
  C41      1.0000 0.54960  0.42580  0.85536  Biso   1.000  C
  C42      1.0000 0.43540  0.37230  0.83099  Biso   1.000  C
  H37      1.0000 0.77800  0.56000  0.90970  Biso   1.000  H
  H38      1.0000 0.42100  0.63400  0.97660  Biso   1.000  H
  H39      1.0000 0.33700  0.52300  0.91710  Biso   1.000  H
  H40      1.0000 0.34100  0.37200  0.83650  Biso   1.000  H
  H41      1.0000 0.44800  0.28900  0.77440  Biso   1.000  H
  H42      1.0000 0.78000  0.40700  0.83810  Biso   1.000  H
  N29      1.0000 0.38160  0.37350  0.45485  Biso   1.000  N
  N30      1.0000 0.52900  0.39300  0.45573  Biso   1.000  N
  N31      1.0000 0.35940  0.67350  0.29490  Biso   1.000  N
  N32      1.0000 0.50790  0.68540  0.29563  Biso   1.000  N
  C43      1.0000 0.33620  0.43770  0.41871  Biso   1.000  C
  C44      1.0000 0.45580  0.49880  0.39646  Biso   1.000  C
  C45      1.0000 0.57620  0.46680  0.42130  Biso   1.000  C
  C46      1.0000 0.32470  0.60510  0.33134  Biso   1.000  C
  C47      1.0000 0.45040  0.57420  0.35536  Biso   1.000  C
  C48      1.0000 0.56460  0.62770  0.33099  Biso   1.000  C
  H43      1.0000 0.22200  0.44000  0.40970  Biso   1.000  H
  H44      1.0000 0.57900  0.36600  0.47660  Biso   1.000  H
  H45      1.0000 0.66300  0.47700  0.41710  Biso   1.000  H
  H46      1.0000 0.65900  0.62800  0.33650  Biso   1.000  H
  H47      1.0000 0.55200  0.71100  0.27440  Biso   1.000  H
  H48      1.0000 0.22000  0.59300  0.33810  Biso   1.000  H
  Cu1      1.0000 0.73262  0.73262  0.00000  Biso   1.000  Cu
  Cu2      1.0000 0.26738  0.26738  0.50000  Biso   1.000  Cu
  Cu3      1.0000 0.76738  0.23262  0.75000  Biso   1.000  Cu
  Cu4      1.0000 0.23262  0.76738  0.25000  Biso   1.000  Cu
