data_image0
_cell_length_a       22.7098
_cell_length_b       22.7098
_cell_length_c       22.7098
_cell_angle_alpha    90
_cell_angle_beta     90
_cell_angle_gamma    90

_symmetry_space_group_name_H-M    "P 1"
_symmetry_int_tables_number       1

loop_
  _symmetry_equiv_pos_as_xyz
  'x, y, z'

loop_
  _atom_site_label
  _atom_site_occupancy
  _atom_site_fract_x
  _atom_site_fract_y
  _atom_site_fract_z
  _atom_site_thermal_displace_type
  _atom_site_B_iso_or_equiv
  _atom_site_type_symbol
  O1       1.0000 0.45066  0.37990  0.06952  Biso   1.000  O
  C1       1.0000 0.31510  0.31600  0.23028  Biso   1.000  C
  C2       1.0000 0.39750  0.39770  0.08111  Biso   1.000  C
  C3       1.0000 0.36850  0.36890  0.13300  Biso   1.000  C
  C4       1.0000 0.34980  0.30990  0.12950  Biso   1.000  C
  C5       1.0000 0.33410  0.37730  0.23280  Biso   1.000  C
  C6       1.0000 0.36210  0.40180  0.18460  Biso   1.000  C
  C7       1.0000 0.32350  0.28470  0.17880  Biso   1.000  C
  C8       1.0000 0.30440  0.22090  0.17320  Biso   1.000  C
  H1       1.0000 0.30070  0.20390  0.21180  Biso   1.000  H
  H2       1.0000 0.33320  0.19940  0.15110  Biso   1.000  H
  H3       1.0000 0.26710  0.21900  0.15340  Biso   1.000  H
  C9       1.0000 0.32350  0.41520  0.28690  Biso   1.000  C
  H4       1.0000 0.28300  0.41230  0.29840  Biso   1.000  H
  H5       1.0000 0.33280  0.45540  0.27790  Biso   1.000  H
  H6       1.0000 0.34810  0.40180  0.31850  Biso   1.000  H
  C10      1.0000 0.35720  0.27600  0.07200  Biso   1.000  C
  H7       1.0000 0.31930  0.26380  0.05790  Biso   1.000  H
  H8       1.0000 0.38130  0.24190  0.07880  Biso   1.000  H
  H9       1.0000 0.37570  0.30080  0.04330  Biso   1.000  H
  C11      1.0000 0.38510  0.46520  0.18740  Biso   1.000  C
  H10      1.0000 0.40960  0.46980  0.22150  Biso   1.000  H
  H11      1.0000 0.35250  0.49190  0.18980  Biso   1.000  H
  H12      1.0000 0.40770  0.47350  0.15260  Biso   1.000  H
  O2       1.0000 0.36914  0.43359  0.05242  Biso   1.000  O
  O3       1.0000 0.54934  0.62010  0.06952  Biso   1.000  O
  C12      1.0000 0.68490  0.68400  0.23028  Biso   1.000  C
  C13      1.0000 0.60250  0.60230  0.08111  Biso   1.000  C
  C14      1.0000 0.63150  0.63110  0.13300  Biso   1.000  C
  C15      1.0000 0.65020  0.69010  0.12950  Biso   1.000  C
  C16      1.0000 0.66590  0.62270  0.23280  Biso   1.000  C
  C17      1.0000 0.63790  0.59820  0.18460  Biso   1.000  C
  C18      1.0000 0.67650  0.71530  0.17880  Biso   1.000  C
  C19      1.0000 0.69560  0.77910  0.17320  Biso   1.000  C
  H13      1.0000 0.69930  0.79610  0.21180  Biso   1.000  H
  H14      1.0000 0.66680  0.80060  0.15110  Biso   1.000  H
  H15      1.0000 0.73290  0.78100  0.15340  Biso   1.000  H
  C20      1.0000 0.67650  0.58480  0.28690  Biso   1.000  C
  H16      1.0000 0.71700  0.58770  0.29840  Biso   1.000  H
  H17      1.0000 0.66720  0.54460  0.27790  Biso   1.000  H
  H18      1.0000 0.65190  0.59820  0.31850  Biso   1.000  H
  C21      1.0000 0.64280  0.72400  0.07200  Biso   1.000  C
  H19      1.0000 0.68070  0.73620  0.05790  Biso   1.000  H
  H20      1.0000 0.61870  0.75810  0.07880  Biso   1.000  H
  H21      1.0000 0.62430  0.69920  0.04330  Biso   1.000  H
  C22      1.0000 0.61490  0.53480  0.18740  Biso   1.000  C
  H22      1.0000 0.59040  0.53020  0.22150  Biso   1.000  H
  H23      1.0000 0.64750  0.50810  0.18980  Biso   1.000  H
  H24      1.0000 0.59230  0.52650  0.15260  Biso   1.000  H
  O4       1.0000 0.63086  0.56641  0.05242  Biso   1.000  O
  O5       1.0000 0.54934  0.37990  0.93048  Biso   1.000  O
  C23      1.0000 0.68490  0.31600  0.76972  Biso   1.000  C
  C24      1.0000 0.60250  0.39770  0.91889  Biso   1.000  C
  C25      1.0000 0.63150  0.36890  0.86700  Biso   1.000  C
  C26      1.0000 0.65020  0.30990  0.87050  Biso   1.000  C
  C27      1.0000 0.66590  0.37730  0.76720  Biso   1.000  C
  C28      1.0000 0.63790  0.40180  0.81540  Biso   1.000  C
  C29      1.0000 0.67650  0.28470  0.82120  Biso   1.000  C
  C30      1.0000 0.69560  0.22090  0.82680  Biso   1.000  C
  H25      1.0000 0.69930  0.20390  0.78820  Biso   1.000  H
  H26      1.0000 0.66680  0.19940  0.84890  Biso   1.000  H
  H27      1.0000 0.73290  0.21900  0.84660  Biso   1.000  H
  C31      1.0000 0.67650  0.41520  0.71310  Biso   1.000  C
  H28      1.0000 0.71700  0.41230  0.70160  Biso   1.000  H
  H29      1.0000 0.66720  0.45540  0.72210  Biso   1.000  H
  H30      1.0000 0.65190  0.40180  0.68150  Biso   1.000  H
  C32      1.0000 0.64280  0.27600  0.92800  Biso   1.000  C
  H31      1.0000 0.68070  0.26380  0.94210  Biso   1.000  H
  H32      1.0000 0.61870  0.24190  0.92120  Biso   1.000  H
  H33      1.0000 0.62430  0.30080  0.95670  Biso   1.000  H
  C33      1.0000 0.61490  0.46520  0.81260  Biso   1.000  C
  H34      1.0000 0.59040  0.46980  0.77850  Biso   1.000  H
  H35      1.0000 0.64750  0.49190  0.81020  Biso   1.000  H
  H36      1.0000 0.59230  0.47350  0.84740  Biso   1.000  H
  O6       1.0000 0.63086  0.43359  0.94758  Biso   1.000  O
  O7       1.0000 0.45066  0.62010  0.93048  Biso   1.000  O
  C34      1.0000 0.31510  0.68400  0.76972  Biso   1.000  C
  C35      1.0000 0.39750  0.60230  0.91889  Biso   1.000  C
  C36      1.0000 0.36850  0.63110  0.86700  Biso   1.000  C
  C37      1.0000 0.34980  0.69010  0.87050  Biso   1.000  C
  C38      1.0000 0.33410  0.62270  0.76720  Biso   1.000  C
  C39      1.0000 0.36210  0.59820  0.81540  Biso   1.000  C
  C40      1.0000 0.32350  0.71530  0.82120  Biso   1.000  C
  C41      1.0000 0.30440  0.77910  0.82680  Biso   1.000  C
  H37      1.0000 0.30070  0.79610  0.78820  Biso   1.000  H
  H38      1.0000 0.33320  0.80060  0.84890  Biso   1.000  H
  H39      1.0000 0.26710  0.78100  0.84660  Biso   1.000  H
  C42      1.0000 0.32350  0.58480  0.71310  Biso   1.000  C
  H40      1.0000 0.28300  0.58770  0.70160  Biso   1.000  H
  H41      1.0000 0.33280  0.54460  0.72210  Biso   1.000  H
  H42      1.0000 0.34810  0.59820  0.68150  Biso   1.000  H
  C43      1.0000 0.35720  0.72400  0.92800  Biso   1.000  C
  H43      1.0000 0.31930  0.73620  0.94210  Biso   1.000  H
  H44      1.0000 0.38130  0.75810  0.92120  Biso   1.000  H
  H45      1.0000 0.37570  0.69920  0.95670  Biso   1.000  H
  C44      1.0000 0.38510  0.53480  0.81260  Biso   1.000  C
  H46      1.0000 0.40960  0.53020  0.77850  Biso   1.000  H
  H47      1.0000 0.35250  0.50810  0.81020  Biso   1.000  H
  H48      1.0000 0.40770  0.52650  0.84740  Biso   1.000  H
  O8       1.0000 0.36914  0.56641  0.94758  Biso   1.000  O
  O9       1.0000 0.06952  0.45066  0.37990  Biso   1.000  O
  C45      1.0000 0.23028  0.31510  0.31600  Biso   1.000  C
  C46      1.0000 0.08111  0.39750  0.39770  Biso   1.000  C
  C47      1.0000 0.13300  0.36850  0.36890  Biso   1.000  C
  C48      1.0000 0.12950  0.34980  0.30990  Biso   1.000  C
  C49      1.0000 0.23280  0.33410  0.37730  Biso   1.000  C
  C50      1.0000 0.18460  0.36210  0.40180  Biso   1.000  C
  C51      1.0000 0.17880  0.32350  0.28470  Biso   1.000  C
  C52      1.0000 0.17320  0.30440  0.22090  Biso   1.000  C
  H49      1.0000 0.21180  0.30070  0.20390  Biso   1.000  H
  H50      1.0000 0.15110  0.33320  0.19940  Biso   1.000  H
  H51      1.0000 0.15340  0.26710  0.21900  Biso   1.000  H
  C53      1.0000 0.28690  0.32350  0.41520  Biso   1.000  C
  H52      1.0000 0.29840  0.28300  0.41230  Biso   1.000  H
  H53      1.0000 0.27790  0.33280  0.45540  Biso   1.000  H
  H54      1.0000 0.31850  0.34810  0.40180  Biso   1.000  H
  C54      1.0000 0.07200  0.35720  0.27600  Biso   1.000  C
  H55      1.0000 0.05790  0.31930  0.26380  Biso   1.000  H
  H56      1.0000 0.07880  0.38130  0.24190  Biso   1.000  H
  H57      1.0000 0.04330  0.37570  0.30080  Biso   1.000  H
  C55      1.0000 0.18740  0.38510  0.46520  Biso   1.000  C
  H58      1.0000 0.22150  0.40960  0.46980  Biso   1.000  H
  H59      1.0000 0.18980  0.35250  0.49190  Biso   1.000  H
  H60      1.0000 0.15260  0.40770  0.47350  Biso   1.000  H
  O10      1.0000 0.05242  0.36914  0.43359  Biso   1.000  O
  O11      1.0000 0.06952  0.54934  0.62010  Biso   1.000  O
  C56      1.0000 0.23028  0.68490  0.68400  Biso   1.000  C
  C57      1.0000 0.08111  0.60250  0.60230  Biso   1.000  C
  C58      1.0000 0.13300  0.63150  0.63110  Biso   1.000  C
  C59      1.0000 0.12950  0.65020  0.69010  Biso   1.000  C
  C60      1.0000 0.23280  0.66590  0.62270  Biso   1.000  C
  C61      1.0000 0.18460  0.63790  0.59820  Biso   1.000  C
  C62      1.0000 0.17880  0.67650  0.71530  Biso   1.000  C
  C63      1.0000 0.17320  0.69560  0.77910  Biso   1.000  C
  H61      1.0000 0.21180  0.69930  0.79610  Biso   1.000  H
  H62      1.0000 0.15110  0.66680  0.80060  Biso   1.000  H
  H63      1.0000 0.15340  0.73290  0.78100  Biso   1.000  H
  C64      1.0000 0.28690  0.67650  0.58480  Biso   1.000  C
  H64      1.0000 0.29840  0.71700  0.58770  Biso   1.000  H
  H65      1.0000 0.27790  0.66720  0.54460  Biso   1.000  H
  H66      1.0000 0.31850  0.65190  0.59820  Biso   1.000  H
  C65      1.0000 0.07200  0.64280  0.72400  Biso   1.000  C
  H67      1.0000 0.05790  0.68070  0.73620  Biso   1.000  H
  H68      1.0000 0.07880  0.61870  0.75810  Biso   1.000  H
  H69      1.0000 0.04330  0.62430  0.69920  Biso   1.000  H
  C66      1.0000 0.18740  0.61490  0.53480  Biso   1.000  C
  H70      1.0000 0.22150  0.59040  0.53020  Biso   1.000  H
  H71      1.0000 0.18980  0.64750  0.50810  Biso   1.000  H
  H72      1.0000 0.15260  0.59230  0.52650  Biso   1.000  H
  O12      1.0000 0.05242  0.63086  0.56641  Biso   1.000  O
  O13      1.0000 0.93048  0.54934  0.37990  Biso   1.000  O
  C67      1.0000 0.76972  0.68490  0.31600  Biso   1.000  C
  C68      1.0000 0.91889  0.60250  0.39770  Biso   1.000  C
  C69      1.0000 0.86700  0.63150  0.36890  Biso   1.000  C
  C70      1.0000 0.87050  0.65020  0.30990  Biso   1.000  C
  C71      1.0000 0.76720  0.66590  0.37730  Biso   1.000  C
  C72      1.0000 0.81540  0.63790  0.40180  Biso   1.000  C
  C73      1.0000 0.82120  0.67650  0.28470  Biso   1.000  C
  C74      1.0000 0.82680  0.69560  0.22090  Biso   1.000  C
  H73      1.0000 0.78820  0.69930  0.20390  Biso   1.000  H
  H74      1.0000 0.84890  0.66680  0.19940  Biso   1.000  H
  H75      1.0000 0.84660  0.73290  0.21900  Biso   1.000  H
  C75      1.0000 0.71310  0.67650  0.41520  Biso   1.000  C
  H76      1.0000 0.70160  0.71700  0.41230  Biso   1.000  H
  H77      1.0000 0.72210  0.66720  0.45540  Biso   1.000  H
  H78      1.0000 0.68150  0.65190  0.40180  Biso   1.000  H
  C76      1.0000 0.92800  0.64280  0.27600  Biso   1.000  C
  H79      1.0000 0.94210  0.68070  0.26380  Biso   1.000  H
  H80      1.0000 0.92120  0.61870  0.24190  Biso   1.000  H
  H81      1.0000 0.95670  0.62430  0.30080  Biso   1.000  H
  C77      1.0000 0.81260  0.61490  0.46520  Biso   1.000  C
  H82      1.0000 0.77850  0.59040  0.46980  Biso   1.000  H
  H83      1.0000 0.81020  0.64750  0.49190  Biso   1.000  H
  H84      1.0000 0.84740  0.59230  0.47350  Biso   1.000  H
  O14      1.0000 0.94758  0.63086  0.43359  Biso   1.000  O
  O15      1.0000 0.93048  0.45066  0.62010  Biso   1.000  O
  C78      1.0000 0.76972  0.31510  0.68400  Biso   1.000  C
  C79      1.0000 0.91889  0.39750  0.60230  Biso   1.000  C
  C80      1.0000 0.86700  0.36850  0.63110  Biso   1.000  C
  C81      1.0000 0.87050  0.34980  0.69010  Biso   1.000  C
  C82      1.0000 0.76720  0.33410  0.62270  Biso   1.000  C
  C83      1.0000 0.81540  0.36210  0.59820  Biso   1.000  C
  C84      1.0000 0.82120  0.32350  0.71530  Biso   1.000  C
  C85      1.0000 0.82680  0.30440  0.77910  Biso   1.000  C
  H85      1.0000 0.78820  0.30070  0.79610  Biso   1.000  H
  H86      1.0000 0.84890  0.33320  0.80060  Biso   1.000  H
  H87      1.0000 0.84660  0.26710  0.78100  Biso   1.000  H
  C86      1.0000 0.71310  0.32350  0.58480  Biso   1.000  C
  H88      1.0000 0.70160  0.28300  0.58770  Biso   1.000  H
  H89      1.0000 0.72210  0.33280  0.54460  Biso   1.000  H
  H90      1.0000 0.68150  0.34810  0.59820  Biso   1.000  H
  C87      1.0000 0.92800  0.35720  0.72400  Biso   1.000  C
  H91      1.0000 0.94210  0.31930  0.73620  Biso   1.000  H
  H92      1.0000 0.92120  0.38130  0.75810  Biso   1.000  H
  H93      1.0000 0.95670  0.37570  0.69920  Biso   1.000  H
  C88      1.0000 0.81260  0.38510  0.53480  Biso   1.000  C
  H94      1.0000 0.77850  0.40960  0.53020  Biso   1.000  H
  H95      1.0000 0.81020  0.35250  0.50810  Biso   1.000  H
  H96      1.0000 0.84740  0.40770  0.52650  Biso   1.000  H
  O16      1.0000 0.94758  0.36914  0.56641  Biso   1.000  O
  O17      1.0000 0.37990  0.06952  0.45066  Biso   1.000  O
  C89      1.0000 0.31600  0.23028  0.31510  Biso   1.000  C
  C90      1.0000 0.39770  0.08111  0.39750  Biso   1.000  C
  C91      1.0000 0.36890  0.13300  0.36850  Biso   1.000  C
  C92      1.0000 0.30990  0.12950  0.34980  Biso   1.000  C
  C93      1.0000 0.37730  0.23280  0.33410  Biso   1.000  C
  C94      1.0000 0.40180  0.18460  0.36210  Biso   1.000  C
  C95      1.0000 0.28470  0.17880  0.32350  Biso   1.000  C
  C96      1.0000 0.22090  0.17320  0.30440  Biso   1.000  C
  H97      1.0000 0.20390  0.21180  0.30070  Biso   1.000  H
  H98      1.0000 0.19940  0.15110  0.33320  Biso   1.000  H
  H99      1.0000 0.21900  0.15340  0.26710  Biso   1.000  H
  C97      1.0000 0.41520  0.28690  0.32350  Biso   1.000  C
  H100     1.0000 0.41230  0.29840  0.28300  Biso   1.000  H
  H101     1.0000 0.45540  0.27790  0.33280  Biso   1.000  H
  H102     1.0000 0.40180  0.31850  0.34810  Biso   1.000  H
  C98      1.0000 0.27600  0.07200  0.35720  Biso   1.000  C
  H103     1.0000 0.26380  0.05790  0.31930  Biso   1.000  H
  H104     1.0000 0.24190  0.07880  0.38130  Biso   1.000  H
  H105     1.0000 0.30080  0.04330  0.37570  Biso   1.000  H
  C99      1.0000 0.46520  0.18740  0.38510  Biso   1.000  C
  H106     1.0000 0.46980  0.22150  0.40960  Biso   1.000  H
  H107     1.0000 0.49190  0.18980  0.35250  Biso   1.000  H
  H108     1.0000 0.47350  0.15260  0.40770  Biso   1.000  H
  O18      1.0000 0.43359  0.05242  0.36914  Biso   1.000  O
  O19      1.0000 0.62010  0.06952  0.54934  Biso   1.000  O
  C100     1.0000 0.68400  0.23028  0.68490  Biso   1.000  C
  C101     1.0000 0.60230  0.08111  0.60250  Biso   1.000  C
  C102     1.0000 0.63110  0.13300  0.63150  Biso   1.000  C
  C103     1.0000 0.69010  0.12950  0.65020  Biso   1.000  C
  C104     1.0000 0.62270  0.23280  0.66590  Biso   1.000  C
  C105     1.0000 0.59820  0.18460  0.63790  Biso   1.000  C
  C106     1.0000 0.71530  0.17880  0.67650  Biso   1.000  C
  C107     1.0000 0.77910  0.17320  0.69560  Biso   1.000  C
  H109     1.0000 0.79610  0.21180  0.69930  Biso   1.000  H
  H110     1.0000 0.80060  0.15110  0.66680  Biso   1.000  H
  H111     1.0000 0.78100  0.15340  0.73290  Biso   1.000  H
  C108     1.0000 0.58480  0.28690  0.67650  Biso   1.000  C
  H112     1.0000 0.58770  0.29840  0.71700  Biso   1.000  H
  H113     1.0000 0.54460  0.27790  0.66720  Biso   1.000  H
  H114     1.0000 0.59820  0.31850  0.65190  Biso   1.000  H
  C109     1.0000 0.72400  0.07200  0.64280  Biso   1.000  C
  H115     1.0000 0.73620  0.05790  0.68070  Biso   1.000  H
  H116     1.0000 0.75810  0.07880  0.61870  Biso   1.000  H
  H117     1.0000 0.69920  0.04330  0.62430  Biso   1.000  H
  C110     1.0000 0.53480  0.18740  0.61490  Biso   1.000  C
  H118     1.0000 0.53020  0.22150  0.59040  Biso   1.000  H
  H119     1.0000 0.50810  0.18980  0.64750  Biso   1.000  H
  H120     1.0000 0.52650  0.15260  0.59230  Biso   1.000  H
  O20      1.0000 0.56641  0.05242  0.63086  Biso   1.000  O
  O21      1.0000 0.37990  0.93048  0.54934  Biso   1.000  O
  C111     1.0000 0.31600  0.76972  0.68490  Biso   1.000  C
  C112     1.0000 0.39770  0.91889  0.60250  Biso   1.000  C
  C113     1.0000 0.36890  0.86700  0.63150  Biso   1.000  C
  C114     1.0000 0.30990  0.87050  0.65020  Biso   1.000  C
  C115     1.0000 0.37730  0.76720  0.66590  Biso   1.000  C
  C116     1.0000 0.40180  0.81540  0.63790  Biso   1.000  C
  C117     1.0000 0.28470  0.82120  0.67650  Biso   1.000  C
  C118     1.0000 0.22090  0.82680  0.69560  Biso   1.000  C
  H121     1.0000 0.20390  0.78820  0.69930  Biso   1.000  H
  H122     1.0000 0.19940  0.84890  0.66680  Biso   1.000  H
  H123     1.0000 0.21900  0.84660  0.73290  Biso   1.000  H
  C119     1.0000 0.41520  0.71310  0.67650  Biso   1.000  C
  H124     1.0000 0.41230  0.70160  0.71700  Biso   1.000  H
  H125     1.0000 0.45540  0.72210  0.66720  Biso   1.000  H
  H126     1.0000 0.40180  0.68150  0.65190  Biso   1.000  H
  C120     1.0000 0.27600  0.92800  0.64280  Biso   1.000  C
  H127     1.0000 0.26380  0.94210  0.68070  Biso   1.000  H
  H128     1.0000 0.24190  0.92120  0.61870  Biso   1.000  H
  H129     1.0000 0.30080  0.95670  0.62430  Biso   1.000  H
  C121     1.0000 0.46520  0.81260  0.61490  Biso   1.000  C
  H130     1.0000 0.46980  0.77850  0.59040  Biso   1.000  H
  H131     1.0000 0.49190  0.81020  0.64750  Biso   1.000  H
  H132     1.0000 0.47350  0.84740  0.59230  Biso   1.000  H
  O22      1.0000 0.43359  0.94758  0.63086  Biso   1.000  O
  O23      1.0000 0.62010  0.93048  0.45066  Biso   1.000  O
  C122     1.0000 0.68400  0.76972  0.31510  Biso   1.000  C
  C123     1.0000 0.60230  0.91889  0.39750  Biso   1.000  C
  C124     1.0000 0.63110  0.86700  0.36850  Biso   1.000  C
  C125     1.0000 0.69010  0.87050  0.34980  Biso   1.000  C
  C126     1.0000 0.62270  0.76720  0.33410  Biso   1.000  C
  C127     1.0000 0.59820  0.81540  0.36210  Biso   1.000  C
  C128     1.0000 0.71530  0.82120  0.32350  Biso   1.000  C
  C129     1.0000 0.77910  0.82680  0.30440  Biso   1.000  C
  H133     1.0000 0.79610  0.78820  0.30070  Biso   1.000  H
  H134     1.0000 0.80060  0.84890  0.33320  Biso   1.000  H
  H135     1.0000 0.78100  0.84660  0.26710  Biso   1.000  H
  C130     1.0000 0.58480  0.71310  0.32350  Biso   1.000  C
  H136     1.0000 0.58770  0.70160  0.28300  Biso   1.000  H
  H137     1.0000 0.54460  0.72210  0.33280  Biso   1.000  H
  H138     1.0000 0.59820  0.68150  0.34810  Biso   1.000  H
  C131     1.0000 0.72400  0.92800  0.35720  Biso   1.000  C
  H139     1.0000 0.73620  0.94210  0.31930  Biso   1.000  H
  H140     1.0000 0.75810  0.92120  0.38130  Biso   1.000  H
  H141     1.0000 0.69920  0.95670  0.37570  Biso   1.000  H
  C132     1.0000 0.53480  0.81260  0.38510  Biso   1.000  C
  H142     1.0000 0.53020  0.77850  0.40960  Biso   1.000  H
  H143     1.0000 0.50810  0.81020  0.35250  Biso   1.000  H
  H144     1.0000 0.52650  0.84740  0.40770  Biso   1.000  H
  O24      1.0000 0.56641  0.94758  0.36914  Biso   1.000  O
  O25      1.0000 0.37990  0.45066  0.93048  Biso   1.000  O
  C133     1.0000 0.31600  0.31510  0.76972  Biso   1.000  C
  C134     1.0000 0.39770  0.39750  0.91889  Biso   1.000  C
  C135     1.0000 0.36890  0.36850  0.86700  Biso   1.000  C
  C136     1.0000 0.30990  0.34980  0.87050  Biso   1.000  C
  C137     1.0000 0.37730  0.33410  0.76720  Biso   1.000  C
  C138     1.0000 0.40180  0.36210  0.81540  Biso   1.000  C
  C139     1.0000 0.28470  0.32350  0.82120  Biso   1.000  C
  C140     1.0000 0.22090  0.30440  0.82680  Biso   1.000  C
  H145     1.0000 0.20390  0.30070  0.78820  Biso   1.000  H
  H146     1.0000 0.19940  0.33320  0.84890  Biso   1.000  H
  H147     1.0000 0.21900  0.26710  0.84660  Biso   1.000  H
  C141     1.0000 0.41520  0.32350  0.71310  Biso   1.000  C
  H148     1.0000 0.41230  0.28300  0.70160  Biso   1.000  H
  H149     1.0000 0.45540  0.33280  0.72210  Biso   1.000  H
  H150     1.0000 0.40180  0.34810  0.68150  Biso   1.000  H
  C142     1.0000 0.27600  0.35720  0.92800  Biso   1.000  C
  H151     1.0000 0.26380  0.31930  0.94210  Biso   1.000  H
  H152     1.0000 0.24190  0.38130  0.92120  Biso   1.000  H
  H153     1.0000 0.30080  0.37570  0.95670  Biso   1.000  H
  C143     1.0000 0.46520  0.38510  0.81260  Biso   1.000  C
  H154     1.0000 0.46980  0.40960  0.77850  Biso   1.000  H
  H155     1.0000 0.49190  0.35250  0.81020  Biso   1.000  H
  H156     1.0000 0.47350  0.40770  0.84740  Biso   1.000  H
  O26      1.0000 0.43359  0.36914  0.94758  Biso   1.000  O
  O27      1.0000 0.62010  0.54934  0.93048  Biso   1.000  O
  C144     1.0000 0.68400  0.68490  0.76972  Biso   1.000  C
  C145     1.0000 0.60230  0.60250  0.91889  Biso   1.000  C
  C146     1.0000 0.63110  0.63150  0.86700  Biso   1.000  C
  C147     1.0000 0.69010  0.65020  0.87050  Biso   1.000  C
  C148     1.0000 0.62270  0.66590  0.76720  Biso   1.000  C
  C149     1.0000 0.59820  0.63790  0.81540  Biso   1.000  C
  C150     1.0000 0.71530  0.67650  0.82120  Biso   1.000  C
  C151     1.0000 0.77910  0.69560  0.82680  Biso   1.000  C
  H157     1.0000 0.79610  0.69930  0.78820  Biso   1.000  H
  H158     1.0000 0.80060  0.66680  0.84890  Biso   1.000  H
  H159     1.0000 0.78100  0.73290  0.84660  Biso   1.000  H
  C152     1.0000 0.58480  0.67650  0.71310  Biso   1.000  C
  H160     1.0000 0.58770  0.71700  0.70160  Biso   1.000  H
  H161     1.0000 0.54460  0.66720  0.72210  Biso   1.000  H
  H162     1.0000 0.59820  0.65190  0.68150  Biso   1.000  H
  C153     1.0000 0.72400  0.64280  0.92800  Biso   1.000  C
  H163     1.0000 0.73620  0.68070  0.94210  Biso   1.000  H
  H164     1.0000 0.75810  0.61870  0.92120  Biso   1.000  H
  H165     1.0000 0.69920  0.62430  0.95670  Biso   1.000  H
  C154     1.0000 0.53480  0.61490  0.81260  Biso   1.000  C
  H166     1.0000 0.53020  0.59040  0.77850  Biso   1.000  H
  H167     1.0000 0.50810  0.64750  0.81020  Biso   1.000  H
  H168     1.0000 0.52650  0.59230  0.84740  Biso   1.000  H
  O28      1.0000 0.56641  0.63086  0.94758  Biso   1.000  O
  O29      1.0000 0.37990  0.54934  0.06952  Biso   1.000  O
  C155     1.0000 0.31600  0.68490  0.23028  Biso   1.000  C
  C156     1.0000 0.39770  0.60250  0.08111  Biso   1.000  C
  C157     1.0000 0.36890  0.63150  0.13300  Biso   1.000  C
  C158     1.0000 0.30990  0.65020  0.12950  Biso   1.000  C
  C159     1.0000 0.37730  0.66590  0.23280  Biso   1.000  C
  C160     1.0000 0.40180  0.63790  0.18460  Biso   1.000  C
  C161     1.0000 0.28470  0.67650  0.17880  Biso   1.000  C
  C162     1.0000 0.22090  0.69560  0.17320  Biso   1.000  C
  H169     1.0000 0.20390  0.69930  0.21180  Biso   1.000  H
  H170     1.0000 0.19940  0.66680  0.15110  Biso   1.000  H
  H171     1.0000 0.21900  0.73290  0.15340  Biso   1.000  H
  C163     1.0000 0.41520  0.67650  0.28690  Biso   1.000  C
  H172     1.0000 0.41230  0.71700  0.29840  Biso   1.000  H
  H173     1.0000 0.45540  0.66720  0.27790  Biso   1.000  H
  H174     1.0000 0.40180  0.65190  0.31850  Biso   1.000  H
  C164     1.0000 0.27600  0.64280  0.07200  Biso   1.000  C
  H175     1.0000 0.26380  0.68070  0.05790  Biso   1.000  H
  H176     1.0000 0.24190  0.61870  0.07880  Biso   1.000  H
  H177     1.0000 0.30080  0.62430  0.04330  Biso   1.000  H
  C165     1.0000 0.46520  0.61490  0.18740  Biso   1.000  C
  H178     1.0000 0.46980  0.59040  0.22150  Biso   1.000  H
  H179     1.0000 0.49190  0.64750  0.18980  Biso   1.000  H
  H180     1.0000 0.47350  0.59230  0.15260  Biso   1.000  H
  O30      1.0000 0.43359  0.63086  0.05242  Biso   1.000  O
  O31      1.0000 0.62010  0.45066  0.06952  Biso   1.000  O
  C166     1.0000 0.68400  0.31510  0.23028  Biso   1.000  C
  C167     1.0000 0.60230  0.39750  0.08111  Biso   1.000  C
  C168     1.0000 0.63110  0.36850  0.13300  Biso   1.000  C
  C169     1.0000 0.69010  0.34980  0.12950  Biso   1.000  C
  C170     1.0000 0.62270  0.33410  0.23280  Biso   1.000  C
  C171     1.0000 0.59820  0.36210  0.18460  Biso   1.000  C
  C172     1.0000 0.71530  0.32350  0.17880  Biso   1.000  C
  C173     1.0000 0.77910  0.30440  0.17320  Biso   1.000  C
  H181     1.0000 0.79610  0.30070  0.21180  Biso   1.000  H
  H182     1.0000 0.80060  0.33320  0.15110  Biso   1.000  H
  H183     1.0000 0.78100  0.26710  0.15340  Biso   1.000  H
  C174     1.0000 0.58480  0.32350  0.28690  Biso   1.000  C
  H184     1.0000 0.58770  0.28300  0.29840  Biso   1.000  H
  H185     1.0000 0.54460  0.33280  0.27790  Biso   1.000  H
  H186     1.0000 0.59820  0.34810  0.31850  Biso   1.000  H
  C175     1.0000 0.72400  0.35720  0.07200  Biso   1.000  C
  H187     1.0000 0.73620  0.31930  0.05790  Biso   1.000  H
  H188     1.0000 0.75810  0.38130  0.07880  Biso   1.000  H
  H189     1.0000 0.69920  0.37570  0.04330  Biso   1.000  H
  C176     1.0000 0.53480  0.38510  0.18740  Biso   1.000  C
  H190     1.0000 0.53020  0.40960  0.22150  Biso   1.000  H
  H191     1.0000 0.50810  0.35250  0.18980  Biso   1.000  H
  H192     1.0000 0.52650  0.40770  0.15260  Biso   1.000  H
  O32      1.0000 0.56641  0.36914  0.05242  Biso   1.000  O
  O33      1.0000 0.45066  0.06952  0.62010  Biso   1.000  O
  C177     1.0000 0.31510  0.23028  0.68400  Biso   1.000  C
  C178     1.0000 0.39750  0.08111  0.60230  Biso   1.000  C
  C179     1.0000 0.36850  0.13300  0.63110  Biso   1.000  C
  C180     1.0000 0.34980  0.12950  0.69010  Biso   1.000  C
  C181     1.0000 0.33410  0.23280  0.62270  Biso   1.000  C
  C182     1.0000 0.36210  0.18460  0.59820  Biso   1.000  C
  C183     1.0000 0.32350  0.17880  0.71530  Biso   1.000  C
  C184     1.0000 0.30440  0.17320  0.77910  Biso   1.000  C
  H193     1.0000 0.30070  0.21180  0.79610  Biso   1.000  H
  H194     1.0000 0.33320  0.15110  0.80060  Biso   1.000  H
  H195     1.0000 0.26710  0.15340  0.78100  Biso   1.000  H
  C185     1.0000 0.32350  0.28690  0.58480  Biso   1.000  C
  H196     1.0000 0.28300  0.29840  0.58770  Biso   1.000  H
  H197     1.0000 0.33280  0.27790  0.54460  Biso   1.000  H
  H198     1.0000 0.34810  0.31850  0.59820  Biso   1.000  H
  C186     1.0000 0.35720  0.07200  0.72400  Biso   1.000  C
  H199     1.0000 0.31930  0.05790  0.73620  Biso   1.000  H
  H200     1.0000 0.38130  0.07880  0.75810  Biso   1.000  H
  H201     1.0000 0.37570  0.04330  0.69920  Biso   1.000  H
  C187     1.0000 0.38510  0.18740  0.53480  Biso   1.000  C
  H202     1.0000 0.40960  0.22150  0.53020  Biso   1.000  H
  H203     1.0000 0.35250  0.18980  0.50810  Biso   1.000  H
  H204     1.0000 0.40770  0.15260  0.52650  Biso   1.000  H
  O34      1.0000 0.36914  0.05242  0.56641  Biso   1.000  O
  O35      1.0000 0.54934  0.06952  0.37990  Biso   1.000  O
  C188     1.0000 0.68490  0.23028  0.31600  Biso   1.000  C
  C189     1.0000 0.60250  0.08111  0.39770  Biso   1.000  C
  C190     1.0000 0.63150  0.13300  0.36890  Biso   1.000  C
  C191     1.0000 0.65020  0.12950  0.30990  Biso   1.000  C
  C192     1.0000 0.66590  0.23280  0.37730  Biso   1.000  C
  C193     1.0000 0.63790  0.18460  0.40180  Biso   1.000  C
  C194     1.0000 0.67650  0.17880  0.28470  Biso   1.000  C
  C195     1.0000 0.69560  0.17320  0.22090  Biso   1.000  C
  H205     1.0000 0.69930  0.21180  0.20390  Biso   1.000  H
  H206     1.0000 0.66680  0.15110  0.19940  Biso   1.000  H
  H207     1.0000 0.73290  0.15340  0.21900  Biso   1.000  H
  C196     1.0000 0.67650  0.28690  0.41520  Biso   1.000  C
  H208     1.0000 0.71700  0.29840  0.41230  Biso   1.000  H
  H209     1.0000 0.66720  0.27790  0.45540  Biso   1.000  H
  H210     1.0000 0.65190  0.31850  0.40180  Biso   1.000  H
  C197     1.0000 0.64280  0.07200  0.27600  Biso   1.000  C
  H211     1.0000 0.68070  0.05790  0.26380  Biso   1.000  H
  H212     1.0000 0.61870  0.07880  0.24190  Biso   1.000  H
  H213     1.0000 0.62430  0.04330  0.30080  Biso   1.000  H
  C198     1.0000 0.61490  0.18740  0.46520  Biso   1.000  C
  H214     1.0000 0.59040  0.22150  0.46980  Biso   1.000  H
  H215     1.0000 0.64750  0.18980  0.49190  Biso   1.000  H
  H216     1.0000 0.59230  0.15260  0.47350  Biso   1.000  H
  O36      1.0000 0.63086  0.05242  0.43359  Biso   1.000  O
  O37      1.0000 0.54934  0.93048  0.62010  Biso   1.000  O
  C199     1.0000 0.68490  0.76972  0.68400  Biso   1.000  C
  C200     1.0000 0.60250  0.91889  0.60230  Biso   1.000  C
  C201     1.0000 0.63150  0.86700  0.63110  Biso   1.000  C
  C202     1.0000 0.65020  0.87050  0.69010  Biso   1.000  C
  C203     1.0000 0.66590  0.76720  0.62270  Biso   1.000  C
  C204     1.0000 0.63790  0.81540  0.59820  Biso   1.000  C
  C205     1.0000 0.67650  0.82120  0.71530  Biso   1.000  C
  C206     1.0000 0.69560  0.82680  0.77910  Biso   1.000  C
  H217     1.0000 0.69930  0.78820  0.79610  Biso   1.000  H
  H218     1.0000 0.66680  0.84890  0.80060  Biso   1.000  H
  H219     1.0000 0.73290  0.84660  0.78100  Biso   1.000  H
  C207     1.0000 0.67650  0.71310  0.58480  Biso   1.000  C
  H220     1.0000 0.71700  0.70160  0.58770  Biso   1.000  H
  H221     1.0000 0.66720  0.72210  0.54460  Biso   1.000  H
  H222     1.0000 0.65190  0.68150  0.59820  Biso   1.000  H
  C208     1.0000 0.64280  0.92800  0.72400  Biso   1.000  C
  H223     1.0000 0.68070  0.94210  0.73620  Biso   1.000  H
  H224     1.0000 0.61870  0.92120  0.75810  Biso   1.000  H
  H225     1.0000 0.62430  0.95670  0.69920  Biso   1.000  H
  C209     1.0000 0.61490  0.81260  0.53480  Biso   1.000  C
  H226     1.0000 0.59040  0.77850  0.53020  Biso   1.000  H
  H227     1.0000 0.64750  0.81020  0.50810  Biso   1.000  H
  H228     1.0000 0.59230  0.84740  0.52650  Biso   1.000  H
  O38      1.0000 0.63086  0.94758  0.56641  Biso   1.000  O
  O39      1.0000 0.45066  0.93048  0.37990  Biso   1.000  O
  C210     1.0000 0.31510  0.76972  0.31600  Biso   1.000  C
  C211     1.0000 0.39750  0.91889  0.39770  Biso   1.000  C
  C212     1.0000 0.36850  0.86700  0.36890  Biso   1.000  C
  C213     1.0000 0.34980  0.87050  0.30990  Biso   1.000  C
  C214     1.0000 0.33410  0.76720  0.37730  Biso   1.000  C
  C215     1.0000 0.36210  0.81540  0.40180  Biso   1.000  C
  C216     1.0000 0.32350  0.82120  0.28470  Biso   1.000  C
  C217     1.0000 0.30440  0.82680  0.22090  Biso   1.000  C
  H229     1.0000 0.30070  0.78820  0.20390  Biso   1.000  H
  H230     1.0000 0.33320  0.84890  0.19940  Biso   1.000  H
  H231     1.0000 0.26710  0.84660  0.21900  Biso   1.000  H
  C218     1.0000 0.32350  0.71310  0.41520  Biso   1.000  C
  H232     1.0000 0.28300  0.70160  0.41230  Biso   1.000  H
  H233     1.0000 0.33280  0.72210  0.45540  Biso   1.000  H
  H234     1.0000 0.34810  0.68150  0.40180  Biso   1.000  H
  C219     1.0000 0.35720  0.92800  0.27600  Biso   1.000  C
  H235     1.0000 0.31930  0.94210  0.26380  Biso   1.000  H
  H236     1.0000 0.38130  0.92120  0.24190  Biso   1.000  H
  H237     1.0000 0.37570  0.95670  0.30080  Biso   1.000  H
  C220     1.0000 0.38510  0.81260  0.46520  Biso   1.000  C
  H238     1.0000 0.40960  0.77850  0.46980  Biso   1.000  H
  H239     1.0000 0.35250  0.81020  0.49190  Biso   1.000  H
  H240     1.0000 0.40770  0.84740  0.47350  Biso   1.000  H
  O40      1.0000 0.36914  0.94758  0.43359  Biso   1.000  O
  O41      1.0000 0.06952  0.37990  0.54934  Biso   1.000  O
  C221     1.0000 0.23028  0.31600  0.68490  Biso   1.000  C
  C222     1.0000 0.08111  0.39770  0.60250  Biso   1.000  C
  C223     1.0000 0.13300  0.36890  0.63150  Biso   1.000  C
  C224     1.0000 0.12950  0.30990  0.65020  Biso   1.000  C
  C225     1.0000 0.23280  0.37730  0.66590  Biso   1.000  C
  C226     1.0000 0.18460  0.40180  0.63790  Biso   1.000  C
  C227     1.0000 0.17880  0.28470  0.67650  Biso   1.000  C
  C228     1.0000 0.17320  0.22090  0.69560  Biso   1.000  C
  H241     1.0000 0.21180  0.20390  0.69930  Biso   1.000  H
  H242     1.0000 0.15110  0.19940  0.66680  Biso   1.000  H
  H243     1.0000 0.15340  0.21900  0.73290  Biso   1.000  H
  C229     1.0000 0.28690  0.41520  0.67650  Biso   1.000  C
  H244     1.0000 0.29840  0.41230  0.71700  Biso   1.000  H
  H245     1.0000 0.27790  0.45540  0.66720  Biso   1.000  H
  H246     1.0000 0.31850  0.40180  0.65190  Biso   1.000  H
  C230     1.0000 0.07200  0.27600  0.64280  Biso   1.000  C
  H247     1.0000 0.05790  0.26380  0.68070  Biso   1.000  H
  H248     1.0000 0.07880  0.24190  0.61870  Biso   1.000  H
  H249     1.0000 0.04330  0.30080  0.62430  Biso   1.000  H
  C231     1.0000 0.18740  0.46520  0.61490  Biso   1.000  C
  H250     1.0000 0.22150  0.46980  0.59040  Biso   1.000  H
  H251     1.0000 0.18980  0.49190  0.64750  Biso   1.000  H
  H252     1.0000 0.15260  0.47350  0.59230  Biso   1.000  H
  O42      1.0000 0.05242  0.43359  0.63086  Biso   1.000  O
  O43      1.0000 0.06952  0.62010  0.45066  Biso   1.000  O
  C232     1.0000 0.23028  0.68400  0.31510  Biso   1.000  C
  C233     1.0000 0.08111  0.60230  0.39750  Biso   1.000  C
  C234     1.0000 0.13300  0.63110  0.36850  Biso   1.000  C
  C235     1.0000 0.12950  0.69010  0.34980  Biso   1.000  C
  C236     1.0000 0.23280  0.62270  0.33410  Biso   1.000  C
  C237     1.0000 0.18460  0.59820  0.36210  Biso   1.000  C
  C238     1.0000 0.17880  0.71530  0.32350  Biso   1.000  C
  C239     1.0000 0.17320  0.77910  0.30440  Biso   1.000  C
  H253     1.0000 0.21180  0.79610  0.30070  Biso   1.000  H
  H254     1.0000 0.15110  0.80060  0.33320  Biso   1.000  H
  H255     1.0000 0.15340  0.78100  0.26710  Biso   1.000  H
  C240     1.0000 0.28690  0.58480  0.32350  Biso   1.000  C
  H256     1.0000 0.29840  0.58770  0.28300  Biso   1.000  H
  H257     1.0000 0.27790  0.54460  0.33280  Biso   1.000  H
  H258     1.0000 0.31850  0.59820  0.34810  Biso   1.000  H
  C241     1.0000 0.07200  0.72400  0.35720  Biso   1.000  C
  H259     1.0000 0.05790  0.73620  0.31930  Biso   1.000  H
  H260     1.0000 0.07880  0.75810  0.38130  Biso   1.000  H
  H261     1.0000 0.04330  0.69920  0.37570  Biso   1.000  H
  C242     1.0000 0.18740  0.53480  0.38510  Biso   1.000  C
  H262     1.0000 0.22150  0.53020  0.40960  Biso   1.000  H
  H263     1.0000 0.18980  0.50810  0.35250  Biso   1.000  H
  H264     1.0000 0.15260  0.52650  0.40770  Biso   1.000  H
  O44      1.0000 0.05242  0.56641  0.36914  Biso   1.000  O
  O45      1.0000 0.93048  0.37990  0.45066  Biso   1.000  O
  C243     1.0000 0.76972  0.31600  0.31510  Biso   1.000  C
  C244     1.0000 0.91889  0.39770  0.39750  Biso   1.000  C
  C245     1.0000 0.86700  0.36890  0.36850  Biso   1.000  C
  C246     1.0000 0.87050  0.30990  0.34980  Biso   1.000  C
  C247     1.0000 0.76720  0.37730  0.33410  Biso   1.000  C
  C248     1.0000 0.81540  0.40180  0.36210  Biso   1.000  C
  C249     1.0000 0.82120  0.28470  0.32350  Biso   1.000  C
  C250     1.0000 0.82680  0.22090  0.30440  Biso   1.000  C
  H265     1.0000 0.78820  0.20390  0.30070  Biso   1.000  H
  H266     1.0000 0.84890  0.19940  0.33320  Biso   1.000  H
  H267     1.0000 0.84660  0.21900  0.26710  Biso   1.000  H
  C251     1.0000 0.71310  0.41520  0.32350  Biso   1.000  C
  H268     1.0000 0.70160  0.41230  0.28300  Biso   1.000  H
  H269     1.0000 0.72210  0.45540  0.33280  Biso   1.000  H
  H270     1.0000 0.68150  0.40180  0.34810  Biso   1.000  H
  C252     1.0000 0.92800  0.27600  0.35720  Biso   1.000  C
  H271     1.0000 0.94210  0.26380  0.31930  Biso   1.000  H
  H272     1.0000 0.92120  0.24190  0.38130  Biso   1.000  H
  H273     1.0000 0.95670  0.30080  0.37570  Biso   1.000  H
  C253     1.0000 0.81260  0.46520  0.38510  Biso   1.000  C
  H274     1.0000 0.77850  0.46980  0.40960  Biso   1.000  H
  H275     1.0000 0.81020  0.49190  0.35250  Biso   1.000  H
  H276     1.0000 0.84740  0.47350  0.40770  Biso   1.000  H
  O46      1.0000 0.94758  0.43359  0.36914  Biso   1.000  O
  O47      1.0000 0.93048  0.62010  0.54934  Biso   1.000  O
  C254     1.0000 0.76972  0.68400  0.68490  Biso   1.000  C
  C255     1.0000 0.91889  0.60230  0.60250  Biso   1.000  C
  C256     1.0000 0.86700  0.63110  0.63150  Biso   1.000  C
  C257     1.0000 0.87050  0.69010  0.65020  Biso   1.000  C
  C258     1.0000 0.76720  0.62270  0.66590  Biso   1.000  C
  C259     1.0000 0.81540  0.59820  0.63790  Biso   1.000  C
  C260     1.0000 0.82120  0.71530  0.67650  Biso   1.000  C
  C261     1.0000 0.82680  0.77910  0.69560  Biso   1.000  C
  H277     1.0000 0.78820  0.79610  0.69930  Biso   1.000  H
  H278     1.0000 0.84890  0.80060  0.66680  Biso   1.000  H
  H279     1.0000 0.84660  0.78100  0.73290  Biso   1.000  H
  C262     1.0000 0.71310  0.58480  0.67650  Biso   1.000  C
  H280     1.0000 0.70160  0.58770  0.71700  Biso   1.000  H
  H281     1.0000 0.72210  0.54460  0.66720  Biso   1.000  H
  H282     1.0000 0.68150  0.59820  0.65190  Biso   1.000  H
  C263     1.0000 0.92800  0.72400  0.64280  Biso   1.000  C
  H283     1.0000 0.94210  0.73620  0.68070  Biso   1.000  H
  H284     1.0000 0.92120  0.75810  0.61870  Biso   1.000  H
  H285     1.0000 0.95670  0.69920  0.62430  Biso   1.000  H
  C264     1.0000 0.81260  0.53480  0.61490  Biso   1.000  C
  H286     1.0000 0.77850  0.53020  0.59040  Biso   1.000  H
  H287     1.0000 0.81020  0.50810  0.64750  Biso   1.000  H
  H288     1.0000 0.84740  0.52650  0.59230  Biso   1.000  H
  O48      1.0000 0.94758  0.56641  0.63086  Biso   1.000  O
  Mn1      1.0000 0.50000  0.38860  0.00000  Biso   1.000  Mn
  Cu1      1.0000 0.50000  0.61140  0.00000  Biso   1.000  Cu
  Mn2      1.0000 0.00000  0.50000  0.38860  Biso   1.000  Mn
  Cu2      1.0000 0.00000  0.50000  0.61140  Biso   1.000  Cu
  Mn3      1.0000 0.38860  0.00000  0.50000  Biso   1.000  Mn
  Cu3      1.0000 0.61140  0.00000  0.50000  Biso   1.000  Cu
  Mn4      1.0000 0.38860  0.50000  0.00000  Biso   1.000  Mn
  Cu4      1.0000 0.61140  0.50000  0.00000  Biso   1.000  Cu
  Mn5      1.0000 0.50000  0.00000  0.61140  Biso   1.000  Mn
  Cu5      1.0000 0.50000  0.00000  0.38860  Biso   1.000  Cu
  Mn6      1.0000 0.00000  0.38860  0.50000  Biso   1.000  Mn
  Cu6      1.0000 0.00000  0.61140  0.50000  Biso   1.000  Cu
  Cl1      1.0000 0.50000  0.50000  0.00000  Biso   1.000  Cl
  Cl2      1.0000 0.00000  0.50000  0.50000  Biso   1.000  Cl
  Cl3      1.0000 0.50000  0.00000  0.50000  Biso   1.000  Cl
  B1       1.0000 0.28660  0.28660  0.28660  Biso   1.000  B
  B2       1.0000 0.71340  0.71340  0.28660  Biso   1.000  B
  B3       1.0000 0.71340  0.28660  0.71340  Biso   1.000  B
  B4       1.0000 0.28660  0.71340  0.71340  Biso   1.000  B
  B5       1.0000 0.28660  0.28660  0.71340  Biso   1.000  B
  B6       1.0000 0.71340  0.71340  0.71340  Biso   1.000  B
  B7       1.0000 0.28660  0.71340  0.28660  Biso   1.000  B
  B8       1.0000 0.71340  0.28660  0.28660  Biso   1.000  B
