data_image0
_cell_length_a       15.1988
_cell_length_b       19.2039
_cell_length_c       25.754
_cell_angle_alpha    90
_cell_angle_beta     90
_cell_angle_gamma    90

_symmetry_space_group_name_H-M    "P 1"
_symmetry_int_tables_number       1

loop_
  _symmetry_equiv_pos_as_xyz
  'x, y, z'

loop_
  _atom_site_label
  _atom_site_occupancy
  _atom_site_fract_x
  _atom_site_fract_y
  _atom_site_fract_z
  _atom_site_thermal_displace_type
  _atom_site_B_iso_or_equiv
  _atom_site_type_symbol
  Zn1      1.0000 0.42725  0.83813  0.23418  Biso   1.000  Zn
  Zn2      1.0000 0.46962  0.96392  0.45162  Biso   1.000  Zn
  N1       1.0000 0.41790  0.86900  0.30883  Biso   1.000  N
  N2       1.0000 0.35820  0.83457  0.34010  Biso   1.000  N
  N3       1.0000 0.42440  0.91510  0.38732  Biso   1.000  N
  N4       1.0000 0.54000  0.78600  0.21873  Biso   1.000  N
  O1       1.0000 0.48700  0.87905  0.49885  Biso   1.000  O
  O2       1.0000 0.52760  0.93450  0.57079  Biso   1.000  O
  O3       1.0000 0.60120  0.96110  0.43753  Biso   1.000  O
  O4       1.0000 0.64380  0.01820  0.50825  Biso   1.000  O
  O5       1.0000 0.83690  0.87900  0.31710  Biso   1.000  O
  O6       1.0000 0.95430  0.93440  0.31040  Biso   1.000  O
  O7       1.0000 0.96300  0.07940  0.47270  Biso   1.000  O
  C1       1.0000 0.52470  0.96580  0.32000  Biso   1.000  C
  H1       1.0000 0.58110  0.94340  0.32200  Biso   1.000  H
  H2       1.0000 0.52480  0.00660  0.34150  Biso   1.000  H
  H3       1.0000 0.51290  0.97880  0.28470  Biso   1.000  H
  C2       1.0000 0.45560  0.91700  0.33828  Biso   1.000  C
  C3       1.0000 0.36360  0.86400  0.38623  Biso   1.000  C
  C4       1.0000 0.30830  0.84310  0.43110  Biso   1.000  C
  H4       1.0000 0.26430  0.81060  0.41980  Biso   1.000  H
  H5       1.0000 0.28020  0.88350  0.44550  Biso   1.000  H
  H6       1.0000 0.34460  0.82170  0.45710  Biso   1.000  H
  C5       1.0000 0.51030  0.88110  0.54580  Biso   1.000  C
  C6       1.0000 0.51480  0.81260  0.57400  Biso   1.000  C
  C7       1.0000 0.52680  0.81180  0.62660  Biso   1.000  C
  H7       1.0000 0.53090  0.85360  0.64470  Biso   1.000  H
  C8       1.0000 0.88370  0.92540  0.33160  Biso   1.000  C
  C9       1.0000 0.85560  0.96670  0.37770  Biso   1.000  C
  C10      1.0000 0.91720  0.01120  0.40090  Biso   1.000  C
  H8       1.0000 0.97100  0.01980  0.38490  Biso   1.000  H
  C11      1.0000 0.89720  0.04230  0.44770  Biso   1.000  C
  C12      1.0000 0.80900  0.03930  0.46560  Biso   1.000  C
  H9       1.0000 0.79200  0.06700  0.49350  Biso   1.000  H
  C13      1.0000 0.74930  0.99710  0.44290  Biso   1.000  C
  C14      1.0000 0.77350  0.96040  0.39850  Biso   1.000  C
  H10      1.0000 0.73290  0.93100  0.38280  Biso   1.000  H
  C15      1.0000 0.65790  0.99130  0.46500  Biso   1.000  C
  C16      1.0000 0.65030  0.87860  0.20310  Biso   1.000  C
  H11      1.0000 0.60110  0.90940  0.20780  Biso   1.000  H
  H12      1.0000 0.67670  0.88710  0.16990  Biso   1.000  H
  H13      1.0000 0.69280  0.88680  0.23000  Biso   1.000  H
  C17      1.0000 0.61970  0.80550  0.20580  Biso   1.000  C
  C18      1.0000 0.94360  0.11600  0.52320  Biso   1.000  C
  H14      1.0000 0.92890  0.08160  0.54920  Biso   1.000  H
  H15      1.0000 0.89540  0.14930  0.52110  Biso   1.000  H
  C19      1.0000 0.03200  0.15200  0.53840  Biso   1.000  C
  H16      1.0000 0.06820  0.15800  0.50830  Biso   1.000  H
  H17      1.0000 0.06270  0.12480  0.56380  Biso   1.000  H
  H18      1.0000 0.01740  0.19660  0.55280  Biso   1.000  H
  C20      1.0000 0.54400  0.81630  0.73770  Biso   1.000  C
  H19      1.0000 0.49980  0.84970  0.72710  Biso   1.000  H
  H20      1.0000 0.60190  0.83690  0.73270  Biso   1.000  H
  C21      1.0000 0.53100  0.79470  0.79530  Biso   1.000  C
  H21      1.0000 0.55810  0.82860  0.81750  Biso   1.000  H
  H22      1.0000 0.46900  0.79240  0.80280  Biso   1.000  H
  H23      1.0000 0.94050  0.06460  0.46710  Biso   1.000  H
  Zn3      1.0000 0.07275  0.16187  0.73418  Biso   1.000  Zn
  Zn4      1.0000 0.03038  0.03608  0.95162  Biso   1.000  Zn
  N5       1.0000 0.08210  0.13100  0.80883  Biso   1.000  N
  N6       1.0000 0.14180  0.16543  0.84010  Biso   1.000  N
  N7       1.0000 0.07560  0.08490  0.88732  Biso   1.000  N
  N8       1.0000 0.96000  0.21400  0.71873  Biso   1.000  N
  O8       1.0000 0.01300  0.12095  0.99885  Biso   1.000  O
  O9       1.0000 0.97240  0.06550  0.07079  Biso   1.000  O
  O10      1.0000 0.89880  0.03890  0.93753  Biso   1.000  O
  O11      1.0000 0.85620  0.98180  0.00825  Biso   1.000  O
  O12      1.0000 0.66310  0.12100  0.81710  Biso   1.000  O
  O13      1.0000 0.54570  0.06560  0.81040  Biso   1.000  O
  O14      1.0000 0.53700  0.92060  0.97270  Biso   1.000  O
  C22      1.0000 0.97530  0.03420  0.82000  Biso   1.000  C
  H24      1.0000 0.91890  0.05660  0.82200  Biso   1.000  H
  H25      1.0000 0.97520  0.99340  0.84150  Biso   1.000  H
  H26      1.0000 0.98710  0.02120  0.78470  Biso   1.000  H
  C23      1.0000 0.04440  0.08300  0.83828  Biso   1.000  C
  C24      1.0000 0.13640  0.13600  0.88623  Biso   1.000  C
  C25      1.0000 0.19170  0.15690  0.93110  Biso   1.000  C
  H27      1.0000 0.23570  0.18940  0.91980  Biso   1.000  H
  H28      1.0000 0.21980  0.11650  0.94550  Biso   1.000  H
  H29      1.0000 0.15540  0.17830  0.95710  Biso   1.000  H
  C26      1.0000 0.98970  0.11890  0.04580  Biso   1.000  C
  C27      1.0000 0.98520  0.18740  0.07400  Biso   1.000  C
  C28      1.0000 0.97320  0.18820  0.12660  Biso   1.000  C
  H30      1.0000 0.96910  0.14640  0.14470  Biso   1.000  H
  C29      1.0000 0.61630  0.07460  0.83160  Biso   1.000  C
  C30      1.0000 0.64440  0.03330  0.87770  Biso   1.000  C
  C31      1.0000 0.58280  0.98880  0.90090  Biso   1.000  C
  H31      1.0000 0.52900  0.98020  0.88490  Biso   1.000  H
  C32      1.0000 0.60280  0.95770  0.94770  Biso   1.000  C
  C33      1.0000 0.69100  0.96070  0.96560  Biso   1.000  C
  H32      1.0000 0.70800  0.93300  0.99350  Biso   1.000  H
  C34      1.0000 0.75070  0.00290  0.94290  Biso   1.000  C
  C35      1.0000 0.72650  0.03960  0.89850  Biso   1.000  C
  H33      1.0000 0.76710  0.06900  0.88280  Biso   1.000  H
  C36      1.0000 0.84210  0.00870  0.96500  Biso   1.000  C
  C37      1.0000 0.84970  0.12140  0.70310  Biso   1.000  C
  H34      1.0000 0.89890  0.09060  0.70780  Biso   1.000  H
  H35      1.0000 0.82330  0.11290  0.66990  Biso   1.000  H
  H36      1.0000 0.80720  0.11320  0.73000  Biso   1.000  H
  C38      1.0000 0.88030  0.19450  0.70580  Biso   1.000  C
  C39      1.0000 0.55640  0.88400  0.02320  Biso   1.000  C
  H37      1.0000 0.57110  0.91840  0.04920  Biso   1.000  H
  H38      1.0000 0.60460  0.85070  0.02110  Biso   1.000  H
  C40      1.0000 0.46800  0.84800  0.03840  Biso   1.000  C
  H39      1.0000 0.43180  0.84200  0.00830  Biso   1.000  H
  H40      1.0000 0.43730  0.87520  0.06380  Biso   1.000  H
  H41      1.0000 0.48260  0.80340  0.05280  Biso   1.000  H
  C41      1.0000 0.95600  0.18370  0.23770  Biso   1.000  C
  H42      1.0000 0.00020  0.15030  0.22710  Biso   1.000  H
  H43      1.0000 0.89810  0.16310  0.23270  Biso   1.000  H
  C42      1.0000 0.96900  0.20530  0.29530  Biso   1.000  C
  H44      1.0000 0.94190  0.17140  0.31750  Biso   1.000  H
  H45      1.0000 0.03100  0.20760  0.30280  Biso   1.000  H
  H46      1.0000 0.55950  0.93540  0.96710  Biso   1.000  H
  Zn5      1.0000 0.57275  0.33813  0.76582  Biso   1.000  Zn
  Zn6      1.0000 0.53038  0.46392  0.54838  Biso   1.000  Zn
  N9       1.0000 0.58210  0.36900  0.69117  Biso   1.000  N
  N10      1.0000 0.64180  0.33457  0.65990  Biso   1.000  N
  N11      1.0000 0.57560  0.41510  0.61268  Biso   1.000  N
  N12      1.0000 0.46000  0.28600  0.78127  Biso   1.000  N
  O15      1.0000 0.51300  0.37905  0.50115  Biso   1.000  O
  O16      1.0000 0.47240  0.43450  0.42921  Biso   1.000  O
  O17      1.0000 0.39880  0.46110  0.56247  Biso   1.000  O
  O18      1.0000 0.35620  0.51820  0.49175  Biso   1.000  O
  O19      1.0000 0.16310  0.37900  0.68290  Biso   1.000  O
  O20      1.0000 0.04570  0.43440  0.68960  Biso   1.000  O
  O21      1.0000 0.03700  0.57940  0.52730  Biso   1.000  O
  C43      1.0000 0.47530  0.46580  0.68000  Biso   1.000  C
  H47      1.0000 0.41890  0.44340  0.67800  Biso   1.000  H
  H48      1.0000 0.47520  0.50660  0.65850  Biso   1.000  H
  H49      1.0000 0.48710  0.47880  0.71530  Biso   1.000  H
  C44      1.0000 0.54440  0.41700  0.66172  Biso   1.000  C
  C45      1.0000 0.63640  0.36400  0.61377  Biso   1.000  C
  C46      1.0000 0.69170  0.34310  0.56890  Biso   1.000  C
  H50      1.0000 0.73570  0.31060  0.58020  Biso   1.000  H
  H51      1.0000 0.71980  0.38350  0.55450  Biso   1.000  H
  H52      1.0000 0.65540  0.32170  0.54290  Biso   1.000  H
  C47      1.0000 0.48970  0.38110  0.45420  Biso   1.000  C
  C48      1.0000 0.48520  0.31260  0.42600  Biso   1.000  C
  C49      1.0000 0.47320  0.31180  0.37340  Biso   1.000  C
  H53      1.0000 0.46910  0.35360  0.35530  Biso   1.000  H
  C50      1.0000 0.11630  0.42540  0.66840  Biso   1.000  C
  C51      1.0000 0.14440  0.46670  0.62230  Biso   1.000  C
  C52      1.0000 0.08280  0.51120  0.59910  Biso   1.000  C
  H54      1.0000 0.02900  0.51980  0.61510  Biso   1.000  H
  C53      1.0000 0.10280  0.54230  0.55230  Biso   1.000  C
  C54      1.0000 0.19100  0.53930  0.53440  Biso   1.000  C
  H55      1.0000 0.20800  0.56700  0.50650  Biso   1.000  H
  C55      1.0000 0.25070  0.49710  0.55710  Biso   1.000  C
  C56      1.0000 0.22650  0.46040  0.60150  Biso   1.000  C
  H56      1.0000 0.26710  0.43100  0.61720  Biso   1.000  H
  C57      1.0000 0.34210  0.49130  0.53500  Biso   1.000  C
  C58      1.0000 0.34970  0.37860  0.79690  Biso   1.000  C
  H57      1.0000 0.39890  0.40940  0.79220  Biso   1.000  H
  H58      1.0000 0.32330  0.38710  0.83010  Biso   1.000  H
  H59      1.0000 0.30720  0.38680  0.77000  Biso   1.000  H
  C59      1.0000 0.38030  0.30550  0.79420  Biso   1.000  C
  C60      1.0000 0.05640  0.61600  0.47680  Biso   1.000  C
  H60      1.0000 0.07110  0.58160  0.45080  Biso   1.000  H
  H61      1.0000 0.10460  0.64930  0.47890  Biso   1.000  H
  C61      1.0000 0.96800  0.65200  0.46160  Biso   1.000  C
  H62      1.0000 0.93180  0.65800  0.49170  Biso   1.000  H
  H63      1.0000 0.93730  0.62480  0.43620  Biso   1.000  H
  H64      1.0000 0.98260  0.69660  0.44720  Biso   1.000  H
  C62      1.0000 0.45600  0.31630  0.26230  Biso   1.000  C
  H65      1.0000 0.50020  0.34970  0.27290  Biso   1.000  H
  H66      1.0000 0.39810  0.33690  0.26730  Biso   1.000  H
  C63      1.0000 0.46900  0.29470  0.20470  Biso   1.000  C
  H67      1.0000 0.44190  0.32860  0.18250  Biso   1.000  H
  H68      1.0000 0.53100  0.29240  0.19720  Biso   1.000  H
  H69      1.0000 0.05950  0.56460  0.53290  Biso   1.000  H
  Zn7      1.0000 0.92725  0.66187  0.26582  Biso   1.000  Zn
  Zn8      1.0000 0.96962  0.53608  0.04838  Biso   1.000  Zn
  N13      1.0000 0.91790  0.63100  0.19117  Biso   1.000  N
  N14      1.0000 0.85820  0.66543  0.15990  Biso   1.000  N
  N15      1.0000 0.92440  0.58490  0.11268  Biso   1.000  N
  N16      1.0000 0.04000  0.71400  0.28127  Biso   1.000  N
  O22      1.0000 0.98700  0.62095  0.00115  Biso   1.000  O
  O23      1.0000 0.02760  0.56550  0.92921  Biso   1.000  O
  O24      1.0000 0.10120  0.53890  0.06247  Biso   1.000  O
  O25      1.0000 0.14380  0.48180  0.99175  Biso   1.000  O
  O26      1.0000 0.33690  0.62100  0.18290  Biso   1.000  O
  O27      1.0000 0.45430  0.56560  0.18960  Biso   1.000  O
  O28      1.0000 0.46300  0.42060  0.02730  Biso   1.000  O
  C64      1.0000 0.02470  0.53420  0.18000  Biso   1.000  C
  H70      1.0000 0.08110  0.55660  0.17800  Biso   1.000  H
  H71      1.0000 0.02480  0.49340  0.15850  Biso   1.000  H
  H72      1.0000 0.01290  0.52120  0.21530  Biso   1.000  H
  C65      1.0000 0.95560  0.58300  0.16172  Biso   1.000  C
  C66      1.0000 0.86360  0.63600  0.11377  Biso   1.000  C
  C67      1.0000 0.80830  0.65690  0.06890  Biso   1.000  C
  H73      1.0000 0.76430  0.68940  0.08020  Biso   1.000  H
  H74      1.0000 0.78020  0.61650  0.05450  Biso   1.000  H
  H75      1.0000 0.84460  0.67830  0.04290  Biso   1.000  H
  C68      1.0000 0.01030  0.61890  0.95420  Biso   1.000  C
  C69      1.0000 0.01480  0.68740  0.92600  Biso   1.000  C
  C70      1.0000 0.02680  0.68820  0.87340  Biso   1.000  C
  H76      1.0000 0.03090  0.64640  0.85530  Biso   1.000  H
  C71      1.0000 0.38370  0.57460  0.16840  Biso   1.000  C
  C72      1.0000 0.35560  0.53330  0.12230  Biso   1.000  C
  C73      1.0000 0.41720  0.48880  0.09910  Biso   1.000  C
  H77      1.0000 0.47100  0.48020  0.11510  Biso   1.000  H
  C74      1.0000 0.39720  0.45770  0.05230  Biso   1.000  C
  C75      1.0000 0.30900  0.46070  0.03440  Biso   1.000  C
  H78      1.0000 0.29200  0.43300  0.00650  Biso   1.000  H
  C76      1.0000 0.24930  0.50290  0.05710  Biso   1.000  C
  C77      1.0000 0.27350  0.53960  0.10150  Biso   1.000  C
  H79      1.0000 0.23290  0.56900  0.11720  Biso   1.000  H
  C78      1.0000 0.15790  0.50870  0.03500  Biso   1.000  C
  C79      1.0000 0.15030  0.62140  0.29690  Biso   1.000  C
  H80      1.0000 0.10110  0.59060  0.29220  Biso   1.000  H
  H81      1.0000 0.17670  0.61290  0.33010  Biso   1.000  H
  H82      1.0000 0.19280  0.61320  0.27000  Biso   1.000  H
  C80      1.0000 0.11970  0.69450  0.29420  Biso   1.000  C
  C81      1.0000 0.44360  0.38400  0.97680  Biso   1.000  C
  H83      1.0000 0.42890  0.41840  0.95080  Biso   1.000  H
  H84      1.0000 0.39540  0.35070  0.97890  Biso   1.000  H
  C82      1.0000 0.53200  0.34800  0.96160  Biso   1.000  C
  H85      1.0000 0.56820  0.34200  0.99170  Biso   1.000  H
  H86      1.0000 0.56270  0.37520  0.93620  Biso   1.000  H
  H87      1.0000 0.51740  0.30340  0.94720  Biso   1.000  H
  C83      1.0000 0.04400  0.68370  0.76230  Biso   1.000  C
  H88      1.0000 0.99980  0.65030  0.77290  Biso   1.000  H
  H89      1.0000 0.10190  0.66310  0.76730  Biso   1.000  H
  C84      1.0000 0.03100  0.70530  0.70470  Biso   1.000  C
  H90      1.0000 0.05810  0.67140  0.68250  Biso   1.000  H
  H91      1.0000 0.96900  0.70760  0.69720  Biso   1.000  H
  H92      1.0000 0.44050  0.43540  0.03290  Biso   1.000  H
  Zn9      1.0000 0.57275  0.16187  0.76582  Biso   1.000  Zn
  Zn10     1.0000 0.53038  0.03608  0.54838  Biso   1.000  Zn
  N17      1.0000 0.58210  0.13100  0.69117  Biso   1.000  N
  N18      1.0000 0.64180  0.16543  0.65990  Biso   1.000  N
  N19      1.0000 0.57560  0.08490  0.61268  Biso   1.000  N
  N20      1.0000 0.46000  0.21400  0.78127  Biso   1.000  N
  O29      1.0000 0.51300  0.12095  0.50115  Biso   1.000  O
  O30      1.0000 0.47240  0.06550  0.42921  Biso   1.000  O
  O31      1.0000 0.39880  0.03890  0.56247  Biso   1.000  O
  O32      1.0000 0.35620  0.98180  0.49175  Biso   1.000  O
  O33      1.0000 0.16310  0.12100  0.68290  Biso   1.000  O
  O34      1.0000 0.04570  0.06560  0.68960  Biso   1.000  O
  O35      1.0000 0.03700  0.92060  0.52730  Biso   1.000  O
  C85      1.0000 0.47530  0.03420  0.68000  Biso   1.000  C
  H93      1.0000 0.41890  0.05660  0.67800  Biso   1.000  H
  H94      1.0000 0.47520  0.99340  0.65850  Biso   1.000  H
  H95      1.0000 0.48710  0.02120  0.71530  Biso   1.000  H
  C86      1.0000 0.54440  0.08300  0.66172  Biso   1.000  C
  C87      1.0000 0.63640  0.13600  0.61377  Biso   1.000  C
  C88      1.0000 0.69170  0.15690  0.56890  Biso   1.000  C
  H96      1.0000 0.73570  0.18940  0.58020  Biso   1.000  H
  H97      1.0000 0.71980  0.11650  0.55450  Biso   1.000  H
  H98      1.0000 0.65540  0.17830  0.54290  Biso   1.000  H
  C89      1.0000 0.48970  0.11890  0.45420  Biso   1.000  C
  C90      1.0000 0.48520  0.18740  0.42600  Biso   1.000  C
  C91      1.0000 0.47320  0.18820  0.37340  Biso   1.000  C
  H99      1.0000 0.46910  0.14640  0.35530  Biso   1.000  H
  C92      1.0000 0.11630  0.07460  0.66840  Biso   1.000  C
  C93      1.0000 0.14440  0.03330  0.62230  Biso   1.000  C
  C94      1.0000 0.08280  0.98880  0.59910  Biso   1.000  C
  H100     1.0000 0.02900  0.98020  0.61510  Biso   1.000  H
  C95      1.0000 0.10280  0.95770  0.55230  Biso   1.000  C
  C96      1.0000 0.19100  0.96070  0.53440  Biso   1.000  C
  H101     1.0000 0.20800  0.93300  0.50650  Biso   1.000  H
  C97      1.0000 0.25070  0.00290  0.55710  Biso   1.000  C
  C98      1.0000 0.22650  0.03960  0.60150  Biso   1.000  C
  H102     1.0000 0.26710  0.06900  0.61720  Biso   1.000  H
  C99      1.0000 0.34210  0.00870  0.53500  Biso   1.000  C
  C100     1.0000 0.34970  0.12140  0.79690  Biso   1.000  C
  H103     1.0000 0.39890  0.09060  0.79220  Biso   1.000  H
  H104     1.0000 0.32330  0.11290  0.83010  Biso   1.000  H
  H105     1.0000 0.30720  0.11320  0.77000  Biso   1.000  H
  C101     1.0000 0.38030  0.19450  0.79420  Biso   1.000  C
  C102     1.0000 0.05640  0.88400  0.47680  Biso   1.000  C
  H106     1.0000 0.07110  0.91840  0.45080  Biso   1.000  H
  H107     1.0000 0.10460  0.85070  0.47890  Biso   1.000  H
  C103     1.0000 0.96800  0.84800  0.46160  Biso   1.000  C
  H108     1.0000 0.93180  0.84200  0.49170  Biso   1.000  H
  H109     1.0000 0.93730  0.87520  0.43620  Biso   1.000  H
  H110     1.0000 0.98260  0.80340  0.44720  Biso   1.000  H
  C104     1.0000 0.45600  0.18370  0.26230  Biso   1.000  C
  H111     1.0000 0.50020  0.15030  0.27290  Biso   1.000  H
  H112     1.0000 0.39810  0.16310  0.26730  Biso   1.000  H
  C105     1.0000 0.46900  0.20530  0.20470  Biso   1.000  C
  H113     1.0000 0.44190  0.17140  0.18250  Biso   1.000  H
  H114     1.0000 0.53100  0.20760  0.19720  Biso   1.000  H
  H115     1.0000 0.05950  0.93540  0.53290  Biso   1.000  H
  Zn11     1.0000 0.92725  0.83813  0.26582  Biso   1.000  Zn
  Zn12     1.0000 0.96962  0.96392  0.04838  Biso   1.000  Zn
  N21      1.0000 0.91790  0.86900  0.19117  Biso   1.000  N
  N22      1.0000 0.85820  0.83457  0.15990  Biso   1.000  N
  N23      1.0000 0.92440  0.91510  0.11268  Biso   1.000  N
  N24      1.0000 0.04000  0.78600  0.28127  Biso   1.000  N
  O36      1.0000 0.98700  0.87905  0.00115  Biso   1.000  O
  O37      1.0000 0.02760  0.93450  0.92921  Biso   1.000  O
  O38      1.0000 0.10120  0.96110  0.06247  Biso   1.000  O
  O39      1.0000 0.14380  0.01820  0.99175  Biso   1.000  O
  O40      1.0000 0.33690  0.87900  0.18290  Biso   1.000  O
  O41      1.0000 0.45430  0.93440  0.18960  Biso   1.000  O
  O42      1.0000 0.46300  0.07940  0.02730  Biso   1.000  O
  C106     1.0000 0.02470  0.96580  0.18000  Biso   1.000  C
  H116     1.0000 0.08110  0.94340  0.17800  Biso   1.000  H
  H117     1.0000 0.02480  0.00660  0.15850  Biso   1.000  H
  H118     1.0000 0.01290  0.97880  0.21530  Biso   1.000  H
  C107     1.0000 0.95560  0.91700  0.16172  Biso   1.000  C
  C108     1.0000 0.86360  0.86400  0.11377  Biso   1.000  C
  C109     1.0000 0.80830  0.84310  0.06890  Biso   1.000  C
  H119     1.0000 0.76430  0.81060  0.08020  Biso   1.000  H
  H120     1.0000 0.78020  0.88350  0.05450  Biso   1.000  H
  H121     1.0000 0.84460  0.82170  0.04290  Biso   1.000  H
  C110     1.0000 0.01030  0.88110  0.95420  Biso   1.000  C
  C111     1.0000 0.01480  0.81260  0.92600  Biso   1.000  C
  C112     1.0000 0.02680  0.81180  0.87340  Biso   1.000  C
  H122     1.0000 0.03090  0.85360  0.85530  Biso   1.000  H
  C113     1.0000 0.38370  0.92540  0.16840  Biso   1.000  C
  C114     1.0000 0.35560  0.96670  0.12230  Biso   1.000  C
  C115     1.0000 0.41720  0.01120  0.09910  Biso   1.000  C
  H123     1.0000 0.47100  0.01980  0.11510  Biso   1.000  H
  C116     1.0000 0.39720  0.04230  0.05230  Biso   1.000  C
  C117     1.0000 0.30900  0.03930  0.03440  Biso   1.000  C
  H124     1.0000 0.29200  0.06700  0.00650  Biso   1.000  H
  C118     1.0000 0.24930  0.99710  0.05710  Biso   1.000  C
  C119     1.0000 0.27350  0.96040  0.10150  Biso   1.000  C
  H125     1.0000 0.23290  0.93100  0.11720  Biso   1.000  H
  C120     1.0000 0.15790  0.99130  0.03500  Biso   1.000  C
  C121     1.0000 0.15030  0.87860  0.29690  Biso   1.000  C
  H126     1.0000 0.10110  0.90940  0.29220  Biso   1.000  H
  H127     1.0000 0.17670  0.88710  0.33010  Biso   1.000  H
  H128     1.0000 0.19280  0.88680  0.27000  Biso   1.000  H
  C122     1.0000 0.11970  0.80550  0.29420  Biso   1.000  C
  C123     1.0000 0.44360  0.11600  0.97680  Biso   1.000  C
  H129     1.0000 0.42890  0.08160  0.95080  Biso   1.000  H
  H130     1.0000 0.39540  0.14930  0.97890  Biso   1.000  H
  C124     1.0000 0.53200  0.15200  0.96160  Biso   1.000  C
  H131     1.0000 0.56820  0.15800  0.99170  Biso   1.000  H
  H132     1.0000 0.56270  0.12480  0.93620  Biso   1.000  H
  H133     1.0000 0.51740  0.19660  0.94720  Biso   1.000  H
  C125     1.0000 0.04400  0.81630  0.76230  Biso   1.000  C
  H134     1.0000 0.99980  0.84970  0.77290  Biso   1.000  H
  H135     1.0000 0.10190  0.83690  0.76730  Biso   1.000  H
  C126     1.0000 0.03100  0.79470  0.70470  Biso   1.000  C
  H136     1.0000 0.05810  0.82860  0.68250  Biso   1.000  H
  H137     1.0000 0.96900  0.79240  0.69720  Biso   1.000  H
  H138     1.0000 0.44050  0.06460  0.03290  Biso   1.000  H
  Zn13     1.0000 0.42725  0.66187  0.23418  Biso   1.000  Zn
  Zn14     1.0000 0.46962  0.53608  0.45162  Biso   1.000  Zn
  N25      1.0000 0.41790  0.63100  0.30883  Biso   1.000  N
  N26      1.0000 0.35820  0.66543  0.34010  Biso   1.000  N
  N27      1.0000 0.42440  0.58490  0.38732  Biso   1.000  N
  N28      1.0000 0.54000  0.71400  0.21873  Biso   1.000  N
  O43      1.0000 0.48700  0.62095  0.49885  Biso   1.000  O
  O44      1.0000 0.52760  0.56550  0.57079  Biso   1.000  O
  O45      1.0000 0.60120  0.53890  0.43753  Biso   1.000  O
  O46      1.0000 0.64380  0.48180  0.50825  Biso   1.000  O
  O47      1.0000 0.83690  0.62100  0.31710  Biso   1.000  O
  O48      1.0000 0.95430  0.56560  0.31040  Biso   1.000  O
  O49      1.0000 0.96300  0.42060  0.47270  Biso   1.000  O
  C127     1.0000 0.52470  0.53420  0.32000  Biso   1.000  C
  H139     1.0000 0.58110  0.55660  0.32200  Biso   1.000  H
  H140     1.0000 0.52480  0.49340  0.34150  Biso   1.000  H
  H141     1.0000 0.51290  0.52120  0.28470  Biso   1.000  H
  C128     1.0000 0.45560  0.58300  0.33828  Biso   1.000  C
  C129     1.0000 0.36360  0.63600  0.38623  Biso   1.000  C
  C130     1.0000 0.30830  0.65690  0.43110  Biso   1.000  C
  H142     1.0000 0.26430  0.68940  0.41980  Biso   1.000  H
  H143     1.0000 0.28020  0.61650  0.44550  Biso   1.000  H
  H144     1.0000 0.34460  0.67830  0.45710  Biso   1.000  H
  C131     1.0000 0.51030  0.61890  0.54580  Biso   1.000  C
  C132     1.0000 0.51480  0.68740  0.57400  Biso   1.000  C
  C133     1.0000 0.52680  0.68820  0.62660  Biso   1.000  C
  H145     1.0000 0.53090  0.64640  0.64470  Biso   1.000  H
  C134     1.0000 0.88370  0.57460  0.33160  Biso   1.000  C
  C135     1.0000 0.85560  0.53330  0.37770  Biso   1.000  C
  C136     1.0000 0.91720  0.48880  0.40090  Biso   1.000  C
  H146     1.0000 0.97100  0.48020  0.38490  Biso   1.000  H
  C137     1.0000 0.89720  0.45770  0.44770  Biso   1.000  C
  C138     1.0000 0.80900  0.46070  0.46560  Biso   1.000  C
  H147     1.0000 0.79200  0.43300  0.49350  Biso   1.000  H
  C139     1.0000 0.74930  0.50290  0.44290  Biso   1.000  C
  C140     1.0000 0.77350  0.53960  0.39850  Biso   1.000  C
  H148     1.0000 0.73290  0.56900  0.38280  Biso   1.000  H
  C141     1.0000 0.65790  0.50870  0.46500  Biso   1.000  C
  C142     1.0000 0.65030  0.62140  0.20310  Biso   1.000  C
  H149     1.0000 0.60110  0.59060  0.20780  Biso   1.000  H
  H150     1.0000 0.67670  0.61290  0.16990  Biso   1.000  H
  H151     1.0000 0.69280  0.61320  0.23000  Biso   1.000  H
  C143     1.0000 0.61970  0.69450  0.20580  Biso   1.000  C
  C144     1.0000 0.94360  0.38400  0.52320  Biso   1.000  C
  H152     1.0000 0.92890  0.41840  0.54920  Biso   1.000  H
  H153     1.0000 0.89540  0.35070  0.52110  Biso   1.000  H
  C145     1.0000 0.03200  0.34800  0.53840  Biso   1.000  C
  H154     1.0000 0.06820  0.34200  0.50830  Biso   1.000  H
  H155     1.0000 0.06270  0.37520  0.56380  Biso   1.000  H
  H156     1.0000 0.01740  0.30340  0.55280  Biso   1.000  H
  C146     1.0000 0.54400  0.68370  0.73770  Biso   1.000  C
  H157     1.0000 0.49980  0.65030  0.72710  Biso   1.000  H
  H158     1.0000 0.60190  0.66310  0.73270  Biso   1.000  H
  C147     1.0000 0.53100  0.70530  0.79530  Biso   1.000  C
  H159     1.0000 0.55810  0.67140  0.81750  Biso   1.000  H
  H160     1.0000 0.46900  0.70760  0.80280  Biso   1.000  H
  H161     1.0000 0.94050  0.43540  0.46710  Biso   1.000  H
  Zn15     1.0000 0.07275  0.33813  0.73418  Biso   1.000  Zn
  Zn16     1.0000 0.03038  0.46392  0.95162  Biso   1.000  Zn
  N29      1.0000 0.08210  0.36900  0.80883  Biso   1.000  N
  N30      1.0000 0.14180  0.33457  0.84010  Biso   1.000  N
  N31      1.0000 0.07560  0.41510  0.88732  Biso   1.000  N
  N32      1.0000 0.96000  0.28600  0.71873  Biso   1.000  N
  O50      1.0000 0.01300  0.37905  0.99885  Biso   1.000  O
  O51      1.0000 0.97240  0.43450  0.07079  Biso   1.000  O
  O52      1.0000 0.89880  0.46110  0.93753  Biso   1.000  O
  O53      1.0000 0.85620  0.51820  0.00825  Biso   1.000  O
  O54      1.0000 0.66310  0.37900  0.81710  Biso   1.000  O
  O55      1.0000 0.54570  0.43440  0.81040  Biso   1.000  O
  O56      1.0000 0.53700  0.57940  0.97270  Biso   1.000  O
  C148     1.0000 0.97530  0.46580  0.82000  Biso   1.000  C
  H162     1.0000 0.91890  0.44340  0.82200  Biso   1.000  H
  H163     1.0000 0.97520  0.50660  0.84150  Biso   1.000  H
  H164     1.0000 0.98710  0.47880  0.78470  Biso   1.000  H
  C149     1.0000 0.04440  0.41700  0.83828  Biso   1.000  C
  C150     1.0000 0.13640  0.36400  0.88623  Biso   1.000  C
  C151     1.0000 0.19170  0.34310  0.93110  Biso   1.000  C
  H165     1.0000 0.23570  0.31060  0.91980  Biso   1.000  H
  H166     1.0000 0.21980  0.38350  0.94550  Biso   1.000  H
  H167     1.0000 0.15540  0.32170  0.95710  Biso   1.000  H
  C152     1.0000 0.98970  0.38110  0.04580  Biso   1.000  C
  C153     1.0000 0.98520  0.31260  0.07400  Biso   1.000  C
  C154     1.0000 0.97320  0.31180  0.12660  Biso   1.000  C
  H168     1.0000 0.96910  0.35360  0.14470  Biso   1.000  H
  C155     1.0000 0.61630  0.42540  0.83160  Biso   1.000  C
  C156     1.0000 0.64440  0.46670  0.87770  Biso   1.000  C
  C157     1.0000 0.58280  0.51120  0.90090  Biso   1.000  C
  H169     1.0000 0.52900  0.51980  0.88490  Biso   1.000  H
  C158     1.0000 0.60280  0.54230  0.94770  Biso   1.000  C
  C159     1.0000 0.69100  0.53930  0.96560  Biso   1.000  C
  H170     1.0000 0.70800  0.56700  0.99350  Biso   1.000  H
  C160     1.0000 0.75070  0.49710  0.94290  Biso   1.000  C
  C161     1.0000 0.72650  0.46040  0.89850  Biso   1.000  C
  H171     1.0000 0.76710  0.43100  0.88280  Biso   1.000  H
  C162     1.0000 0.84210  0.49130  0.96500  Biso   1.000  C
  C163     1.0000 0.84970  0.37860  0.70310  Biso   1.000  C
  H172     1.0000 0.89890  0.40940  0.70780  Biso   1.000  H
  H173     1.0000 0.82330  0.38710  0.66990  Biso   1.000  H
  H174     1.0000 0.80720  0.38680  0.73000  Biso   1.000  H
  C164     1.0000 0.88030  0.30550  0.70580  Biso   1.000  C
  C165     1.0000 0.55640  0.61600  0.02320  Biso   1.000  C
  H175     1.0000 0.57110  0.58160  0.04920  Biso   1.000  H
  H176     1.0000 0.60460  0.64930  0.02110  Biso   1.000  H
  C166     1.0000 0.46800  0.65200  0.03840  Biso   1.000  C
  H177     1.0000 0.43180  0.65800  0.00830  Biso   1.000  H
  H178     1.0000 0.43730  0.62480  0.06380  Biso   1.000  H
  H179     1.0000 0.48260  0.69660  0.05280  Biso   1.000  H
  C167     1.0000 0.95600  0.31630  0.23770  Biso   1.000  C
  H180     1.0000 0.00020  0.34970  0.22710  Biso   1.000  H
  H181     1.0000 0.89810  0.33690  0.23270  Biso   1.000  H
  C168     1.0000 0.96900  0.29470  0.29530  Biso   1.000  C
  H182     1.0000 0.94190  0.32860  0.31750  Biso   1.000  H
  H183     1.0000 0.03100  0.29240  0.30280  Biso   1.000  H
  H184     1.0000 0.55950  0.56460  0.96710  Biso   1.000  H
  Zn17     1.0000 0.29969  0.75000  0.31236  Biso   1.000  Zn
  N33      1.0000 0.67170  0.75000  0.19650  Biso   1.000  N
  O57      1.0000 0.35470  0.75000  0.24280  Biso   1.000  O
  H185     1.0000 0.30580  0.75000  0.22440  Biso   1.000  H
  O58      1.0000 0.53580  0.75000  0.70670  Biso   1.000  O
  C169     1.0000 0.53300  0.75000  0.65280  Biso   1.000  C
  C170     1.0000 0.50690  0.75000  0.54740  Biso   1.000  C
  H186     1.0000 0.49630  0.75000  0.51190  Biso   1.000  H
  H187     1.0000 0.54130  0.75000  0.68850  Biso   1.000  H
  H188     1.0000 0.55710  0.75000  0.80110  Biso   1.000  H
  Zn18     1.0000 0.20031  0.25000  0.81236  Biso   1.000  Zn
  N34      1.0000 0.82830  0.25000  0.69650  Biso   1.000  N
  O59      1.0000 0.14530  0.25000  0.74280  Biso   1.000  O
  H189     1.0000 0.19420  0.25000  0.72440  Biso   1.000  H
  O60      1.0000 0.96420  0.25000  0.20670  Biso   1.000  O
  C171     1.0000 0.96700  0.25000  0.15280  Biso   1.000  C
  C172     1.0000 0.99310  0.25000  0.04740  Biso   1.000  C
  H190     1.0000 0.00370  0.25000  0.01190  Biso   1.000  H
  H191     1.0000 0.95870  0.25000  0.18850  Biso   1.000  H
  H192     1.0000 0.94290  0.25000  0.30110  Biso   1.000  H
  Zn19     1.0000 0.70031  0.25000  0.68764  Biso   1.000  Zn
  N35      1.0000 0.32830  0.25000  0.80350  Biso   1.000  N
  O61      1.0000 0.64530  0.25000  0.75720  Biso   1.000  O
  H193     1.0000 0.69420  0.25000  0.77560  Biso   1.000  H
  O62      1.0000 0.46420  0.25000  0.29330  Biso   1.000  O
  C173     1.0000 0.46700  0.25000  0.34720  Biso   1.000  C
  C174     1.0000 0.49310  0.25000  0.45260  Biso   1.000  C
  H194     1.0000 0.50370  0.25000  0.48810  Biso   1.000  H
  H195     1.0000 0.45870  0.25000  0.31150  Biso   1.000  H
  H196     1.0000 0.44290  0.25000  0.19890  Biso   1.000  H
  Zn20     1.0000 0.79969  0.75000  0.18764  Biso   1.000  Zn
  N36      1.0000 0.17170  0.75000  0.30350  Biso   1.000  N
  O63      1.0000 0.85470  0.75000  0.25720  Biso   1.000  O
  H197     1.0000 0.80580  0.75000  0.27560  Biso   1.000  H
  O64      1.0000 0.03580  0.75000  0.79330  Biso   1.000  O
  C175     1.0000 0.03300  0.75000  0.84720  Biso   1.000  C
  C176     1.0000 0.00690  0.75000  0.95260  Biso   1.000  C
  H198     1.0000 0.99630  0.75000  0.98810  Biso   1.000  H
  H199     1.0000 0.04130  0.75000  0.81150  Biso   1.000  H
  H200     1.0000 0.05710  0.75000  0.69890  Biso   1.000  H
