data_image0
_cell_length_a       14.278
_cell_length_b       18.0309
_cell_length_c       20.2047
_cell_angle_alpha    91.406
_cell_angle_beta     90
_cell_angle_gamma    90

_symmetry_space_group_name_H-M    P 1
_symmetry_int_tables_number       1

loop_
  _symmetry_equiv_pos_as_xyz
  'x, y, z'

loop_
  _atom_site_label
  _atom_site_occupancy
  _atom_site_fract_x
  _atom_site_fract_y
  _atom_site_fract_z
  _atom_site_thermal_displace_type
  _atom_site_B_iso_or_equiv
  _atom_site_type_symbol
  Co1      1.0000 0.94673  0.75347  0.07512  Biso   1.000  Co
  Co2      1.0000 0.79759  0.79850  0.94236  Biso   1.000  Co
  Co3      1.0000 0.81951  0.29336  0.90811  Biso   1.000  Co
  Co4      1.0000 0.44673  0.74653  0.42488  Biso   1.000  Co
  Co5      1.0000 0.29759  0.70150  0.55764  Biso   1.000  Co
  Co6      1.0000 0.31951  0.20664  0.59189  Biso   1.000  Co
  Co7      1.0000 0.05327  0.24653  0.92488  Biso   1.000  Co
  Co8      1.0000 0.20241  0.20150  0.05764  Biso   1.000  Co
  Co9      1.0000 0.18049  0.70664  0.09189  Biso   1.000  Co
  Co10     1.0000 0.55327  0.25347  0.57512  Biso   1.000  Co
  Co11     1.0000 0.70241  0.29850  0.44236  Biso   1.000  Co
  Co12     1.0000 0.68049  0.79336  0.40811  Biso   1.000  Co
  H1       1.0000 0.86770  0.52940  0.90690  Biso   1.000  H
  H2       1.0000 0.01930  0.81070  0.92950  Biso   1.000  H
  H3       1.0000 0.00730  0.02540  0.87370  Biso   1.000  H
  H4       1.0000 0.18000  0.96880  0.02120  Biso   1.000  H
  H5       1.0000 0.42450  0.70860  0.21280  Biso   1.000  H
  H6       1.0000 0.55840  0.71310  0.03710  Biso   1.000  H
  H7       1.0000 0.70470  0.74160  0.20680  Biso   1.000  H
  H8       1.0000 0.13320  0.46290  0.92730  Biso   1.000  H
  H9       1.0000 0.07170  0.67970  0.95080  Biso   1.000  H
  H10      1.0000 0.36770  0.97060  0.59310  Biso   1.000  H
  H11      1.0000 0.51930  0.68930  0.57050  Biso   1.000  H
  H12      1.0000 0.50730  0.47460  0.62630  Biso   1.000  H
  H13      1.0000 0.68000  0.53120  0.47880  Biso   1.000  H
  H14      1.0000 0.92450  0.79140  0.28720  Biso   1.000  H
  H15      1.0000 0.05840  0.78690  0.46290  Biso   1.000  H
  H16      1.0000 0.20470  0.75840  0.29320  Biso   1.000  H
  H17      1.0000 0.63320  0.03710  0.57270  Biso   1.000  H
  H18      1.0000 0.57170  0.82030  0.54920  Biso   1.000  H
  H19      1.0000 0.13230  0.47060  0.09310  Biso   1.000  H
  H20      1.0000 0.98070  0.18930  0.07050  Biso   1.000  H
  H21      1.0000 0.99270  0.97460  0.12630  Biso   1.000  H
  H22      1.0000 0.82000  0.03120  0.97880  Biso   1.000  H
  H23      1.0000 0.57550  0.29140  0.78720  Biso   1.000  H
  H24      1.0000 0.44160  0.28690  0.96290  Biso   1.000  H
  H25      1.0000 0.29530  0.25840  0.79320  Biso   1.000  H
  H26      1.0000 0.86680  0.53710  0.07270  Biso   1.000  H
  H27      1.0000 0.92830  0.32030  0.04920  Biso   1.000  H
  H28      1.0000 0.63230  0.02940  0.40690  Biso   1.000  H
  H29      1.0000 0.48070  0.31070  0.42950  Biso   1.000  H
  H30      1.0000 0.49270  0.52540  0.37370  Biso   1.000  H
  H31      1.0000 0.32000  0.46880  0.52120  Biso   1.000  H
  H32      1.0000 0.07550  0.20860  0.71280  Biso   1.000  H
  H33      1.0000 0.94160  0.21310  0.53710  Biso   1.000  H
  H34      1.0000 0.79530  0.24160  0.70680  Biso   1.000  H
  H35      1.0000 0.36680  0.96290  0.42730  Biso   1.000  H
  H36      1.0000 0.42830  0.17970  0.45080  Biso   1.000  H
  C1       1.0000 0.73270  0.74350  0.07690  Biso   1.000  C
  C2       1.0000 0.88800  0.67680  0.93340  Biso   1.000  C
  C3       1.0000 0.95910  0.61500  0.92900  Biso   1.000  C
  C4       1.0000 0.93090  0.54110  0.91490  Biso   1.000  C
  C5       1.0000 0.99660  0.48480  0.91440  Biso   1.000  C
  C6       1.0000 0.96700  0.40450  0.90890  Biso   1.000  C
  C7       1.0000 0.14260  0.82360  0.02700  Biso   1.000  C
  C8       1.0000 0.10720  0.88150  0.98100  Biso   1.000  C
  C9       1.0000 0.03870  0.86080  0.93370  Biso   1.000  C
  C10      1.0000 0.00240  0.91420  0.89370  Biso   1.000  C
  C11      1.0000 0.03100  0.98860  0.90160  Biso   1.000  C
  C12      1.0000 0.09690  0.00860  0.95040  Biso   1.000  C
  C13      1.0000 0.13590  0.95540  0.98920  Biso   1.000  C
  C14      1.0000 0.11910  0.08950  0.96370  Biso   1.000  C
  C15      1.0000 0.92540  0.89170  0.84470  Biso   1.000  C
  C16      1.0000 0.56460  0.73700  0.29440  Biso   1.000  C
  C17      1.0000 0.56370  0.72830  0.22150  Biso   1.000  C
  C18      1.0000 0.47920  0.71420  0.18830  Biso   1.000  C
  C19      1.0000 0.47830  0.70920  0.12050  Biso   1.000  C
  C20      1.0000 0.56090  0.71710  0.08350  Biso   1.000  C
  C21      1.0000 0.64400  0.73150  0.11600  Biso   1.000  C
  C22      1.0000 0.64680  0.73520  0.18520  Biso   1.000  C
  C23      1.0000 0.38870  0.69180  0.08300  Biso   1.000  C
  C24      1.0000 0.09000  0.50170  0.92640  Biso   1.000  C
  C25      1.0000 0.11930  0.57410  0.93900  Biso   1.000  C
  C26      1.0000 0.05240  0.63060  0.94110  Biso   1.000  C
  C27      1.0000 0.21910  0.58920  0.95540  Biso   1.000  C
  C28      1.0000 0.23270  0.75650  0.42310  Biso   1.000  C
  C29      1.0000 0.38800  0.82320  0.56660  Biso   1.000  C
  C30      1.0000 0.45910  0.88500  0.57100  Biso   1.000  C
  C31      1.0000 0.43090  0.95890  0.58510  Biso   1.000  C
  C32      1.0000 0.49660  0.01520  0.58560  Biso   1.000  C
  C33      1.0000 0.46700  0.09550  0.59110  Biso   1.000  C
  C34      1.0000 0.64260  0.67640  0.47300  Biso   1.000  C
  C35      1.0000 0.60720  0.61850  0.51900  Biso   1.000  C
  C36      1.0000 0.53870  0.63920  0.56630  Biso   1.000  C
  C37      1.0000 0.50240  0.58580  0.60630  Biso   1.000  C
  C38      1.0000 0.53100  0.51140  0.59840  Biso   1.000  C
  C39      1.0000 0.59690  0.49140  0.54960  Biso   1.000  C
  C40      1.0000 0.63590  0.54460  0.51080  Biso   1.000  C
  C41      1.0000 0.61910  0.41050  0.53630  Biso   1.000  C
  C42      1.0000 0.42540  0.60830  0.65530  Biso   1.000  C
  C43      1.0000 0.06460  0.76300  0.20560  Biso   1.000  C
  C44      1.0000 0.06370  0.77170  0.27850  Biso   1.000  C
  C45      1.0000 0.97920  0.78580  0.31170  Biso   1.000  C
  C46      1.0000 0.97830  0.79080  0.37950  Biso   1.000  C
  C47      1.0000 0.06090  0.78290  0.41650  Biso   1.000  C
  C48      1.0000 0.14400  0.76850  0.38400  Biso   1.000  C
  C49      1.0000 0.14680  0.76480  0.31480  Biso   1.000  C
  C50      1.0000 0.88870  0.80820  0.41700  Biso   1.000  C
  C51      1.0000 0.59000  0.99830  0.57360  Biso   1.000  C
  C52      1.0000 0.61930  0.92590  0.56100  Biso   1.000  C
  C53      1.0000 0.55240  0.86940  0.55890  Biso   1.000  C
  C54      1.0000 0.71910  0.91080  0.54460  Biso   1.000  C
  C55      1.0000 0.26730  0.25650  0.92310  Biso   1.000  C
  C56      1.0000 0.11200  0.32320  0.06660  Biso   1.000  C
  C57      1.0000 0.04090  0.38500  0.07100  Biso   1.000  C
  C58      1.0000 0.06910  0.45890  0.08510  Biso   1.000  C
  C59      1.0000 0.00340  0.51520  0.08560  Biso   1.000  C
  C60      1.0000 0.03300  0.59550  0.09110  Biso   1.000  C
  C61      1.0000 0.85740  0.17640  0.97300  Biso   1.000  C
  C62      1.0000 0.89280  0.11850  0.01900  Biso   1.000  C
  C63      1.0000 0.96130  0.13920  0.06630  Biso   1.000  C
  C64      1.0000 0.99760  0.08580  0.10630  Biso   1.000  C
  C65      1.0000 0.96900  0.01140  0.09840  Biso   1.000  C
  C66      1.0000 0.90310  0.99140  0.04960  Biso   1.000  C
  C67      1.0000 0.86410  0.04460  0.01080  Biso   1.000  C
  C68      1.0000 0.88090  0.91050  0.03630  Biso   1.000  C
  C69      1.0000 0.07460  0.10830  0.15530  Biso   1.000  C
  C70      1.0000 0.43540  0.26300  0.70560  Biso   1.000  C
  C71      1.0000 0.43630  0.27170  0.77850  Biso   1.000  C
  C72      1.0000 0.52080  0.28580  0.81170  Biso   1.000  C
  C73      1.0000 0.52170  0.29080  0.87950  Biso   1.000  C
  C74      1.0000 0.43910  0.28290  0.91650  Biso   1.000  C
  C75      1.0000 0.35600  0.26850  0.88400  Biso   1.000  C
  C76      1.0000 0.35320  0.26480  0.81480  Biso   1.000  C
  C77      1.0000 0.61130  0.30820  0.91700  Biso   1.000  C
  C78      1.0000 0.91000  0.49830  0.07360  Biso   1.000  C
  C79      1.0000 0.88070  0.42590  0.06100  Biso   1.000  C
  C80      1.0000 0.94760  0.36940  0.05890  Biso   1.000  C
  C81      1.0000 0.78090  0.41080  0.04460  Biso   1.000  C
  C82      1.0000 0.76730  0.24350  0.57690  Biso   1.000  C
  C83      1.0000 0.61200  0.17680  0.43340  Biso   1.000  C
  C84      1.0000 0.54090  0.11500  0.42900  Biso   1.000  C
  C85      1.0000 0.56910  0.04110  0.41490  Biso   1.000  C
  C86      1.0000 0.50340  0.98480  0.41440  Biso   1.000  C
  C87      1.0000 0.53300  0.90450  0.40890  Biso   1.000  C
  C88      1.0000 0.35740  0.32360  0.52700  Biso   1.000  C
  C89      1.0000 0.39280  0.38150  0.48100  Biso   1.000  C
  C90      1.0000 0.46130  0.36080  0.43370  Biso   1.000  C
  C91      1.0000 0.49760  0.41420  0.39370  Biso   1.000  C
  C92      1.0000 0.46900  0.48860  0.40160  Biso   1.000  C
  C93      1.0000 0.40310  0.50860  0.45040  Biso   1.000  C
  C94      1.0000 0.36410  0.45540  0.48920  Biso   1.000  C
  C95      1.0000 0.38090  0.58950  0.46370  Biso   1.000  C
  C96      1.0000 0.57460  0.39170  0.34470  Biso   1.000  C
  C97      1.0000 0.93540  0.23700  0.79440  Biso   1.000  C
  C98      1.0000 0.93630  0.22830  0.72150  Biso   1.000  C
  C99      1.0000 0.02080  0.21420  0.68830  Biso   1.000  C
  C100     1.0000 0.02170  0.20920  0.62050  Biso   1.000  C
  C101     1.0000 0.93910  0.21710  0.58350  Biso   1.000  C
  C102     1.0000 0.85600  0.23150  0.61600  Biso   1.000  C
  C103     1.0000 0.85320  0.23520  0.68520  Biso   1.000  C
  C104     1.0000 0.11130  0.19180  0.58300  Biso   1.000  C
  C105     1.0000 0.41000  0.00170  0.42640  Biso   1.000  C
  C106     1.0000 0.38070  0.07410  0.43900  Biso   1.000  C
  C107     1.0000 0.44760  0.13060  0.44110  Biso   1.000  C
  C108     1.0000 0.28090  0.08920  0.45540  Biso   1.000  C
  O1       1.0000 0.80940  0.73840  0.10630  Biso   1.000  O
  O2       1.0000 0.71900  0.75620  0.01650  Biso   1.000  O
  O3       1.0000 0.90920  0.73230  0.97210  Biso   1.000  O
  O4       1.0000 0.81740  0.67810  0.89800  Biso   1.000  O
  O5       1.0000 0.02890  0.35790  0.91210  Biso   1.000  O
  O6       1.0000 0.87890  0.39280  0.90170  Biso   1.000  O
  O7       1.0000 0.08940  0.76610  0.03650  Biso   1.000  O
  O8       1.0000 0.22130  0.82650  0.05250  Biso   1.000  O
  O9       1.0000 0.17690  0.10340  0.00850  Biso   1.000  O
  O10      1.0000 0.07330  0.13670  0.93040  Biso   1.000  O
  O11      1.0000 0.87690  0.83280  0.85890  Biso   1.000  O
  O12      1.0000 0.91570  0.92740  0.79520  Biso   1.000  O
  O13      1.0000 0.64410  0.75120  0.31950  Biso   1.000  O
  O14      1.0000 0.49040  0.72890  0.32630  Biso   1.000  O
  O15      1.0000 0.31480  0.69110  0.11660  Biso   1.000  O
  O16      1.0000 0.39310  0.68230  0.02130  Biso   1.000  O
  O17      1.0000 0.23380  0.65760  0.97980  Biso   1.000  O
  O18      1.0000 0.28050  0.54400  0.94440  Biso   1.000  O
  O19      1.0000 0.30940  0.76160  0.39370  Biso   1.000  O
  O20      1.0000 0.21900  0.74380  0.48350  Biso   1.000  O
  O21      1.0000 0.40920  0.76770  0.52790  Biso   1.000  O
  O22      1.0000 0.31740  0.82190  0.60200  Biso   1.000  O
  O23      1.0000 0.52890  0.14210  0.58790  Biso   1.000  O
  O24      1.0000 0.37890  0.10720  0.59830  Biso   1.000  O
  O25      1.0000 0.58940  0.73390  0.46350  Biso   1.000  O
  O26      1.0000 0.72130  0.67350  0.44750  Biso   1.000  O
  O27      1.0000 0.67690  0.39660  0.49150  Biso   1.000  O
  O28      1.0000 0.57330  0.36330  0.56960  Biso   1.000  O
  O29      1.0000 0.37690  0.66720  0.64110  Biso   1.000  O
  O30      1.0000 0.41570  0.57260  0.70480  Biso   1.000  O
  O31      1.0000 0.14410  0.74880  0.18050  Biso   1.000  O
  O32      1.0000 0.99040  0.77110  0.17370  Biso   1.000  O
  O33      1.0000 0.81480  0.80890  0.38340  Biso   1.000  O
  O34      1.0000 0.89310  0.81770  0.47870  Biso   1.000  O
  O35      1.0000 0.73380  0.84240  0.52020  Biso   1.000  O
  O36      1.0000 0.78050  0.95600  0.55560  Biso   1.000  O
  O37      1.0000 0.19060  0.26160  0.89370  Biso   1.000  O
  O38      1.0000 0.28100  0.24380  0.98350  Biso   1.000  O
  O39      1.0000 0.09080  0.26770  0.02790  Biso   1.000  O
  O40      1.0000 0.18260  0.32190  0.10200  Biso   1.000  O
  O41      1.0000 0.97110  0.64210  0.08790  Biso   1.000  O
  O42      1.0000 0.12110  0.60720  0.09830  Biso   1.000  O
  O43      1.0000 0.91060  0.23390  0.96350  Biso   1.000  O
  O44      1.0000 0.77870  0.17350  0.94750  Biso   1.000  O
  O45      1.0000 0.82310  0.89660  0.99150  Biso   1.000  O
  O46      1.0000 0.92670  0.86330  0.06960  Biso   1.000  O
  O47      1.0000 0.12310  0.16720  0.14110  Biso   1.000  O
  O48      1.0000 0.08430  0.07260  0.20480  Biso   1.000  O
  O49      1.0000 0.35590  0.24880  0.68050  Biso   1.000  O
  O50      1.0000 0.50960  0.27110  0.67370  Biso   1.000  O
  O51      1.0000 0.68520  0.30890  0.88340  Biso   1.000  O
  O52      1.0000 0.60690  0.31770  0.97870  Biso   1.000  O
  O53      1.0000 0.76620  0.34240  0.02020  Biso   1.000  O
  O54      1.0000 0.71950  0.45600  0.05560  Biso   1.000  O
  O55      1.0000 0.69060  0.23840  0.60630  Biso   1.000  O
  O56      1.0000 0.78100  0.25620  0.51650  Biso   1.000  O
  O57      1.0000 0.59080  0.23230  0.47210  Biso   1.000  O
  O58      1.0000 0.68260  0.17810  0.39800  Biso   1.000  O
  O59      1.0000 0.47110  0.85790  0.41210  Biso   1.000  O
  O60      1.0000 0.62110  0.89280  0.40170  Biso   1.000  O
  O61      1.0000 0.41060  0.26610  0.53650  Biso   1.000  O
  O62      1.0000 0.27870  0.32650  0.55250  Biso   1.000  O
  O63      1.0000 0.32310  0.60340  0.50850  Biso   1.000  O
  O64      1.0000 0.42670  0.63670  0.43040  Biso   1.000  O
  O65      1.0000 0.62310  0.33280  0.35890  Biso   1.000  O
  O66      1.0000 0.58430  0.42740  0.29520  Biso   1.000  O
  O67      1.0000 0.85590  0.25120  0.81950  Biso   1.000  O
  O68      1.0000 0.00960  0.22890  0.82630  Biso   1.000  O
  O69      1.0000 0.18520  0.19110  0.61660  Biso   1.000  O
  O70      1.0000 0.10690  0.18230  0.52130  Biso   1.000  O
  O71      1.0000 0.26620  0.15760  0.47980  Biso   1.000  O
  O72      1.0000 0.21950  0.04400  0.44440  Biso   1.000  O
