data_image0
_cell_length_a       15.833
_cell_length_b       16.086
_cell_length_c       22.67
_cell_angle_alpha    90
_cell_angle_beta     90
_cell_angle_gamma    90

_symmetry_space_group_name_H-M    P 1
_symmetry_int_tables_number       1

loop_
  _symmetry_equiv_pos_as_xyz
  'x, y, z'

loop_
  _atom_site_label
  _atom_site_occupancy
  _atom_site_fract_x
  _atom_site_fract_y
  _atom_site_fract_z
  _atom_site_thermal_displace_type
  _atom_site_B_iso_or_equiv
  _atom_site_type_symbol
  Zn1      1.0000 0.68767  0.56107  0.25923  Biso   1.000  Zn
  Zn2      1.0000 0.83456  0.44472  0.25228  Biso   1.000  Zn
  Zn3      1.0000 0.18767  0.43893  0.74077  Biso   1.000  Zn
  Zn4      1.0000 0.33456  0.55528  0.74772  Biso   1.000  Zn
  Zn5      1.0000 0.68767  0.43893  0.75923  Biso   1.000  Zn
  Zn6      1.0000 0.83456  0.55528  0.75228  Biso   1.000  Zn
  Zn7      1.0000 0.18767  0.56107  0.24077  Biso   1.000  Zn
  Zn8      1.0000 0.33456  0.44472  0.24772  Biso   1.000  Zn
  H1       1.0000 0.77820  0.71860  0.11770  Biso   1.000  H
  H2       1.0000 0.84080  0.80170  0.04570  Biso   1.000  H
  H3       1.0000 0.03900  0.64230  0.03900  Biso   1.000  H
  H4       1.0000 0.97790  0.56300  0.11210  Biso   1.000  H
  H5       1.0000 0.93930  0.65760  0.92820  Biso   1.000  H
  H6       1.0000 0.00430  0.57060  0.85900  Biso   1.000  H
  H7       1.0000 0.22020  0.70420  0.87440  Biso   1.000  H
  H8       1.0000 0.15530  0.78880  0.94460  Biso   1.000  H
  H9       1.0000 0.75530  0.28420  0.38940  Biso   1.000  H
  H10      1.0000 0.69970  0.19420  0.46110  Biso   1.000  H
  H11      1.0000 0.48190  0.32940  0.45960  Biso   1.000  H
  H12      1.0000 0.54010  0.41930  0.39040  Biso   1.000  H
  H13      1.0000 0.58980  0.32510  0.57540  Biso   1.000  H
  H14      1.0000 0.51920  0.41250  0.64010  Biso   1.000  H
  H15      1.0000 0.30800  0.27620  0.62040  Biso   1.000  H
  H16      1.0000 0.37770  0.18700  0.55640  Biso   1.000  H
  H17      1.0000 0.72300  0.73350  0.27340  Biso   1.000  H
  H18      1.0000 0.65950  0.86250  0.28640  Biso   1.000  H
  H19      1.0000 0.43280  0.74940  0.27190  Biso   1.000  H
  H20      1.0000 0.50340  0.62150  0.26490  Biso   1.000  H
  H21      1.0000 0.43670  0.90500  0.28090  Biso   1.000  H
  H22      1.0000 0.58950  0.10610  0.27460  Biso   1.000  H
  H23      1.0000 0.58890  0.26140  0.27660  Biso   1.000  H
  H24      1.0000 0.51850  0.38600  0.26900  Biso   1.000  H
  H25      1.0000 0.30160  0.26700  0.24940  Biso   1.000  H
  H26      1.0000 0.36710  0.14080  0.25880  Biso   1.000  H
  H27      1.0000 0.27820  0.28140  0.88230  Biso   1.000  H
  H28      1.0000 0.34080  0.19830  0.95430  Biso   1.000  H
  H29      1.0000 0.53900  0.35770  0.96100  Biso   1.000  H
  H30      1.0000 0.47790  0.43700  0.88790  Biso   1.000  H
  H31      1.0000 0.43930  0.34240  0.07180  Biso   1.000  H
  H32      1.0000 0.50430  0.42940  0.14100  Biso   1.000  H
  H33      1.0000 0.72020  0.29580  0.12560  Biso   1.000  H
  H34      1.0000 0.65530  0.21120  0.05540  Biso   1.000  H
  H35      1.0000 0.25530  0.71580  0.61060  Biso   1.000  H
  H36      1.0000 0.19970  0.80580  0.53890  Biso   1.000  H
  H37      1.0000 0.98190  0.67060  0.54040  Biso   1.000  H
  H38      1.0000 0.04010  0.58070  0.60960  Biso   1.000  H
  H39      1.0000 0.08980  0.67490  0.42460  Biso   1.000  H
  H40      1.0000 0.01920  0.58750  0.35990  Biso   1.000  H
  H41      1.0000 0.80800  0.72380  0.37960  Biso   1.000  H
  H42      1.0000 0.87770  0.81300  0.44360  Biso   1.000  H
  H43      1.0000 0.22300  0.26650  0.72660  Biso   1.000  H
  H44      1.0000 0.15950  0.13750  0.71360  Biso   1.000  H
  H45      1.0000 0.93280  0.25060  0.72810  Biso   1.000  H
  H46      1.0000 0.00340  0.37850  0.73510  Biso   1.000  H
  H47      1.0000 0.93670  0.09500  0.71910  Biso   1.000  H
  H48      1.0000 0.08950  0.89390  0.72540  Biso   1.000  H
  H49      1.0000 0.08890  0.73860  0.72340  Biso   1.000  H
  H50      1.0000 0.01850  0.61400  0.73100  Biso   1.000  H
  H51      1.0000 0.80160  0.73300  0.75060  Biso   1.000  H
  H52      1.0000 0.86710  0.85920  0.74120  Biso   1.000  H
  H53      1.0000 0.77820  0.28140  0.61770  Biso   1.000  H
  H54      1.0000 0.84080  0.19830  0.54570  Biso   1.000  H
  H55      1.0000 0.03900  0.35770  0.53900  Biso   1.000  H
  H56      1.0000 0.97790  0.43700  0.61210  Biso   1.000  H
  H57      1.0000 0.93930  0.34240  0.42820  Biso   1.000  H
  H58      1.0000 0.00430  0.42940  0.35900  Biso   1.000  H
  H59      1.0000 0.22020  0.29580  0.37440  Biso   1.000  H
  H60      1.0000 0.15530  0.21120  0.44460  Biso   1.000  H
  H61      1.0000 0.75530  0.71580  0.88940  Biso   1.000  H
  H62      1.0000 0.69970  0.80580  0.96110  Biso   1.000  H
  H63      1.0000 0.48190  0.67060  0.95960  Biso   1.000  H
  H64      1.0000 0.54010  0.58070  0.89040  Biso   1.000  H
  H65      1.0000 0.58980  0.67490  0.07540  Biso   1.000  H
  H66      1.0000 0.51920  0.58750  0.14010  Biso   1.000  H
  H67      1.0000 0.30800  0.72380  0.12040  Biso   1.000  H
  H68      1.0000 0.37770  0.81300  0.05640  Biso   1.000  H
  H69      1.0000 0.72300  0.26650  0.77340  Biso   1.000  H
  H70      1.0000 0.65950  0.13750  0.78640  Biso   1.000  H
  H71      1.0000 0.43280  0.25060  0.77190  Biso   1.000  H
  H72      1.0000 0.50340  0.37850  0.76490  Biso   1.000  H
  H73      1.0000 0.43670  0.09500  0.78090  Biso   1.000  H
  H74      1.0000 0.58950  0.89390  0.77460  Biso   1.000  H
  H75      1.0000 0.58890  0.73860  0.77660  Biso   1.000  H
  H76      1.0000 0.51850  0.61400  0.76900  Biso   1.000  H
  H77      1.0000 0.30160  0.73300  0.74940  Biso   1.000  H
  H78      1.0000 0.36710  0.85920  0.75880  Biso   1.000  H
  H79      1.0000 0.27820  0.71860  0.38230  Biso   1.000  H
  H80      1.0000 0.34080  0.80170  0.45430  Biso   1.000  H
  H81      1.0000 0.53900  0.64230  0.46100  Biso   1.000  H
  H82      1.0000 0.47790  0.56300  0.38790  Biso   1.000  H
  H83      1.0000 0.43930  0.65760  0.57180  Biso   1.000  H
  H84      1.0000 0.50430  0.57060  0.64100  Biso   1.000  H
  H85      1.0000 0.72020  0.70420  0.62560  Biso   1.000  H
  H86      1.0000 0.65530  0.78880  0.55540  Biso   1.000  H
  H87      1.0000 0.25530  0.28420  0.11060  Biso   1.000  H
  H88      1.0000 0.19970  0.19420  0.03890  Biso   1.000  H
  H89      1.0000 0.98190  0.32940  0.04040  Biso   1.000  H
  H90      1.0000 0.04010  0.41930  0.10960  Biso   1.000  H
  H91      1.0000 0.08980  0.32510  0.92460  Biso   1.000  H
  H92      1.0000 0.01920  0.41250  0.85990  Biso   1.000  H
  H93      1.0000 0.80800  0.27620  0.87960  Biso   1.000  H
  H94      1.0000 0.87770  0.18700  0.94360  Biso   1.000  H
  H95      1.0000 0.22300  0.73350  0.22660  Biso   1.000  H
  H96      1.0000 0.15950  0.86250  0.21360  Biso   1.000  H
  H97      1.0000 0.93280  0.74940  0.22810  Biso   1.000  H
  H98      1.0000 0.00340  0.62150  0.23510  Biso   1.000  H
  H99      1.0000 0.93670  0.90500  0.21910  Biso   1.000  H
  H100     1.0000 0.08950  0.10610  0.22540  Biso   1.000  H
  H101     1.0000 0.08890  0.26140  0.22340  Biso   1.000  H
  H102     1.0000 0.01850  0.38600  0.23100  Biso   1.000  H
  H103     1.0000 0.80160  0.26700  0.25060  Biso   1.000  H
  H104     1.0000 0.86710  0.14080  0.24120  Biso   1.000  H
  C1       1.0000 0.83380  0.57970  0.16970  Biso   1.000  C
  C2       1.0000 0.87070  0.63230  0.12300  Biso   1.000  C
  C3       1.0000 0.83170  0.70320  0.10210  Biso   1.000  C
  C4       1.0000 0.86870  0.75280  0.05890  Biso   1.000  C
  C5       1.0000 0.94630  0.73080  0.03520  Biso   1.000  C
  C6       1.0000 0.98630  0.65860  0.05530  Biso   1.000  C
  C7       1.0000 0.94950  0.61130  0.09840  Biso   1.000  C
  C8       1.0000 0.99430  0.78640  0.99010  Biso   1.000  C
  C9       1.0000 0.05520  0.84110  0.02610  Biso   1.000  C
  C10      1.0000 0.93590  0.84480  0.95480  Biso   1.000  C
  C11      1.0000 0.04040  0.73210  0.94440  Biso   1.000  C
  C12      1.0000 0.99670  0.66700  0.91780  Biso   1.000  C
  C13      1.0000 0.03490  0.61530  0.87620  Biso   1.000  C
  C14      1.0000 0.11790  0.62970  0.86030  Biso   1.000  C
  C15      1.0000 0.16320  0.69440  0.88550  Biso   1.000  C
  C16      1.0000 0.12420  0.74470  0.92720  Biso   1.000  C
  C17      1.0000 0.16200  0.57380  0.81630  Biso   1.000  C
  C18      1.0000 0.69290  0.41850  0.33840  Biso   1.000  C
  C19      1.0000 0.65380  0.36070  0.38450  Biso   1.000  C
  C20      1.0000 0.70020  0.29360  0.40460  Biso   1.000  C
  C21      1.0000 0.66710  0.23960  0.44700  Biso   1.000  C
  C22      1.0000 0.58480  0.25330  0.46840  Biso   1.000  C
  C23      1.0000 0.53790  0.32050  0.44610  Biso   1.000  C
  C24      1.0000 0.57220  0.37380  0.40480  Biso   1.000  C
  C25      1.0000 0.54160  0.19560  0.51360  Biso   1.000  C
  C26      1.0000 0.48330  0.13650  0.47670  Biso   1.000  C
  C27      1.0000 0.60440  0.14240  0.54890  Biso   1.000  C
  C28      1.0000 0.49000  0.24840  0.55750  Biso   1.000  C
  C29      1.0000 0.53190  0.31550  0.58400  Biso   1.000  C
  C30      1.0000 0.49000  0.36740  0.62230  Biso   1.000  C
  C31      1.0000 0.40490  0.35430  0.63520  Biso   1.000  C
  C32      1.0000 0.36540  0.28680  0.61080  Biso   1.000  C
  C33      1.0000 0.40660  0.23360  0.57250  Biso   1.000  C
  C34      1.0000 0.35800  0.41360  0.67410  Biso   1.000  C
  C35      1.0000 0.66310  0.73700  0.27410  Biso   1.000  C
  C36      1.0000 0.62580  0.81440  0.28050  Biso   1.000  C
  C37      1.0000 0.53840  0.82030  0.27820  Biso   1.000  C
  C38      1.0000 0.49280  0.74780  0.27270  Biso   1.000  C
  C39      1.0000 0.53530  0.67120  0.26830  Biso   1.000  C
  C40      1.0000 0.49650  0.90170  0.27940  Biso   1.000  C
  C41      1.0000 0.52950  0.10740  0.27360  Biso   1.000  C
  C42      1.0000 0.48530  0.18750  0.26860  Biso   1.000  C
  C43      1.0000 0.52940  0.26180  0.27130  Biso   1.000  C
  C44      1.0000 0.48750  0.33560  0.26630  Biso   1.000  C
  C45      1.0000 0.36100  0.26560  0.25520  Biso   1.000  C
  C46      1.0000 0.39930  0.19060  0.26060  Biso   1.000  C
  C47      1.0000 0.33380  0.42030  0.83030  Biso   1.000  C
  C48      1.0000 0.37070  0.36770  0.87700  Biso   1.000  C
  C49      1.0000 0.33170  0.29680  0.89790  Biso   1.000  C
  C50      1.0000 0.36870  0.24720  0.94110  Biso   1.000  C
  C51      1.0000 0.44630  0.26920  0.96480  Biso   1.000  C
  C52      1.0000 0.48630  0.34140  0.94470  Biso   1.000  C
  C53      1.0000 0.44950  0.38870  0.90160  Biso   1.000  C
  C54      1.0000 0.49430  0.21360  0.00990  Biso   1.000  C
  C55      1.0000 0.55520  0.15890  0.97390  Biso   1.000  C
  C56      1.0000 0.43590  0.15520  0.04520  Biso   1.000  C
  C57      1.0000 0.54040  0.26790  0.05560  Biso   1.000  C
  C58      1.0000 0.49670  0.33300  0.08220  Biso   1.000  C
  C59      1.0000 0.53490  0.38470  0.12380  Biso   1.000  C
  C60      1.0000 0.61790  0.37030  0.13970  Biso   1.000  C
  C61      1.0000 0.66320  0.30560  0.11450  Biso   1.000  C
  C62      1.0000 0.62420  0.25530  0.07280  Biso   1.000  C
  C63      1.0000 0.66200  0.42620  0.18370  Biso   1.000  C
  C64      1.0000 0.19290  0.58150  0.66160  Biso   1.000  C
  C65      1.0000 0.15380  0.63930  0.61550  Biso   1.000  C
  C66      1.0000 0.20020  0.70640  0.59540  Biso   1.000  C
  C67      1.0000 0.16710  0.76040  0.55300  Biso   1.000  C
  C68      1.0000 0.08480  0.74670  0.53160  Biso   1.000  C
  C69      1.0000 0.03790  0.67950  0.55390  Biso   1.000  C
  C70      1.0000 0.07220  0.62620  0.59520  Biso   1.000  C
  C71      1.0000 0.04160  0.80440  0.48640  Biso   1.000  C
  C72      1.0000 0.98330  0.86350  0.52330  Biso   1.000  C
  C73      1.0000 0.10440  0.85760  0.45110  Biso   1.000  C
  C74      1.0000 0.99000  0.75160  0.44250  Biso   1.000  C
  C75      1.0000 0.03190  0.68450  0.41600  Biso   1.000  C
  C76      1.0000 0.99000  0.63260  0.37770  Biso   1.000  C
  C77      1.0000 0.90490  0.64570  0.36480  Biso   1.000  C
  C78      1.0000 0.86540  0.71320  0.38920  Biso   1.000  C
  C79      1.0000 0.90660  0.76640  0.42750  Biso   1.000  C
  C80      1.0000 0.85800  0.58640  0.32590  Biso   1.000  C
  C81      1.0000 0.16310  0.26300  0.72590  Biso   1.000  C
  C82      1.0000 0.12580  0.18560  0.71950  Biso   1.000  C
  C83      1.0000 0.03840  0.17970  0.72180  Biso   1.000  C
  C84      1.0000 0.99280  0.25220  0.72730  Biso   1.000  C
  C85      1.0000 0.03530  0.32880  0.73170  Biso   1.000  C
  C86      1.0000 0.99650  0.09830  0.72060  Biso   1.000  C
  C87      1.0000 0.02950  0.89260  0.72640  Biso   1.000  C
  C88      1.0000 0.98530  0.81250  0.73140  Biso   1.000  C
  C89      1.0000 0.02940  0.73820  0.72870  Biso   1.000  C
  C90      1.0000 0.98750  0.66440  0.73370  Biso   1.000  C
  C91      1.0000 0.86100  0.73440  0.74480  Biso   1.000  C
  C92      1.0000 0.89930  0.80940  0.73940  Biso   1.000  C
  C93      1.0000 0.83380  0.42030  0.66970  Biso   1.000  C
  C94      1.0000 0.87070  0.36770  0.62300  Biso   1.000  C
  C95      1.0000 0.83170  0.29680  0.60210  Biso   1.000  C
  C96      1.0000 0.86870  0.24720  0.55890  Biso   1.000  C
  C97      1.0000 0.94630  0.26920  0.53520  Biso   1.000  C
  C98      1.0000 0.98630  0.34140  0.55530  Biso   1.000  C
  C99      1.0000 0.94950  0.38870  0.59840  Biso   1.000  C
  C100     1.0000 0.99430  0.21360  0.49010  Biso   1.000  C
  C101     1.0000 0.05520  0.15890  0.52610  Biso   1.000  C
  C102     1.0000 0.93590  0.15520  0.45480  Biso   1.000  C
  C103     1.0000 0.04040  0.26790  0.44440  Biso   1.000  C
  C104     1.0000 0.99670  0.33300  0.41780  Biso   1.000  C
  C105     1.0000 0.03490  0.38470  0.37620  Biso   1.000  C
  C106     1.0000 0.11790  0.37030  0.36030  Biso   1.000  C
  C107     1.0000 0.16320  0.30560  0.38550  Biso   1.000  C
  C108     1.0000 0.12420  0.25530  0.42720  Biso   1.000  C
  C109     1.0000 0.16200  0.42620  0.31630  Biso   1.000  C
  C110     1.0000 0.69290  0.58150  0.83840  Biso   1.000  C
  C111     1.0000 0.65380  0.63930  0.88450  Biso   1.000  C
  C112     1.0000 0.70020  0.70640  0.90460  Biso   1.000  C
  C113     1.0000 0.66710  0.76040  0.94700  Biso   1.000  C
  C114     1.0000 0.58480  0.74670  0.96840  Biso   1.000  C
  C115     1.0000 0.53790  0.67950  0.94610  Biso   1.000  C
  C116     1.0000 0.57220  0.62620  0.90480  Biso   1.000  C
  C117     1.0000 0.54160  0.80440  0.01360  Biso   1.000  C
  C118     1.0000 0.48330  0.86350  0.97670  Biso   1.000  C
  C119     1.0000 0.60440  0.85760  0.04890  Biso   1.000  C
  C120     1.0000 0.49000  0.75160  0.05750  Biso   1.000  C
  C121     1.0000 0.53190  0.68450  0.08400  Biso   1.000  C
  C122     1.0000 0.49000  0.63260  0.12230  Biso   1.000  C
  C123     1.0000 0.40490  0.64570  0.13520  Biso   1.000  C
  C124     1.0000 0.36540  0.71320  0.11080  Biso   1.000  C
  C125     1.0000 0.40660  0.76640  0.07250  Biso   1.000  C
  C126     1.0000 0.35800  0.58640  0.17410  Biso   1.000  C
  C127     1.0000 0.66310  0.26300  0.77410  Biso   1.000  C
  C128     1.0000 0.62580  0.18560  0.78050  Biso   1.000  C
  C129     1.0000 0.53840  0.17970  0.77820  Biso   1.000  C
  C130     1.0000 0.49280  0.25220  0.77270  Biso   1.000  C
  C131     1.0000 0.53530  0.32880  0.76830  Biso   1.000  C
  C132     1.0000 0.49650  0.09830  0.77940  Biso   1.000  C
  C133     1.0000 0.52950  0.89260  0.77360  Biso   1.000  C
  C134     1.0000 0.48530  0.81250  0.76860  Biso   1.000  C
  C135     1.0000 0.52940  0.73820  0.77130  Biso   1.000  C
  C136     1.0000 0.48750  0.66440  0.76630  Biso   1.000  C
  C137     1.0000 0.36100  0.73440  0.75520  Biso   1.000  C
  C138     1.0000 0.39930  0.80940  0.76060  Biso   1.000  C
  C139     1.0000 0.33380  0.57970  0.33030  Biso   1.000  C
  C140     1.0000 0.37070  0.63230  0.37700  Biso   1.000  C
  C141     1.0000 0.33170  0.70320  0.39790  Biso   1.000  C
  C142     1.0000 0.36870  0.75280  0.44110  Biso   1.000  C
  C143     1.0000 0.44630  0.73080  0.46480  Biso   1.000  C
  C144     1.0000 0.48630  0.65860  0.44470  Biso   1.000  C
  C145     1.0000 0.44950  0.61130  0.40160  Biso   1.000  C
  C146     1.0000 0.49430  0.78640  0.50990  Biso   1.000  C
  C147     1.0000 0.55520  0.84110  0.47390  Biso   1.000  C
  C148     1.0000 0.43590  0.84480  0.54520  Biso   1.000  C
  C149     1.0000 0.54040  0.73210  0.55560  Biso   1.000  C
  C150     1.0000 0.49670  0.66700  0.58220  Biso   1.000  C
  C151     1.0000 0.53490  0.61530  0.62380  Biso   1.000  C
  C152     1.0000 0.61790  0.62970  0.63970  Biso   1.000  C
  C153     1.0000 0.66320  0.69440  0.61450  Biso   1.000  C
  C154     1.0000 0.62420  0.74470  0.57280  Biso   1.000  C
  C155     1.0000 0.66200  0.57380  0.68370  Biso   1.000  C
  C156     1.0000 0.19290  0.41850  0.16160  Biso   1.000  C
  C157     1.0000 0.15380  0.36070  0.11550  Biso   1.000  C
  C158     1.0000 0.20020  0.29360  0.09540  Biso   1.000  C
  C159     1.0000 0.16710  0.23960  0.05300  Biso   1.000  C
  C160     1.0000 0.08480  0.25330  0.03160  Biso   1.000  C
  C161     1.0000 0.03790  0.32050  0.05390  Biso   1.000  C
  C162     1.0000 0.07220  0.37380  0.09520  Biso   1.000  C
  C163     1.0000 0.04160  0.19560  0.98640  Biso   1.000  C
  C164     1.0000 0.98330  0.13650  0.02330  Biso   1.000  C
  C165     1.0000 0.10440  0.14240  0.95110  Biso   1.000  C
  C166     1.0000 0.99000  0.24840  0.94250  Biso   1.000  C
  C167     1.0000 0.03190  0.31550  0.91600  Biso   1.000  C
  C168     1.0000 0.99000  0.36740  0.87770  Biso   1.000  C
  C169     1.0000 0.90490  0.35430  0.86480  Biso   1.000  C
  C170     1.0000 0.86540  0.28680  0.88920  Biso   1.000  C
  C171     1.0000 0.90660  0.23360  0.92750  Biso   1.000  C
  C172     1.0000 0.85800  0.41360  0.82590  Biso   1.000  C
  C173     1.0000 0.16310  0.73700  0.22590  Biso   1.000  C
  C174     1.0000 0.12580  0.81440  0.21950  Biso   1.000  C
  C175     1.0000 0.03840  0.82030  0.22180  Biso   1.000  C
  C176     1.0000 0.99280  0.74780  0.22730  Biso   1.000  C
  C177     1.0000 0.03530  0.67120  0.23170  Biso   1.000  C
  C178     1.0000 0.99650  0.90170  0.22060  Biso   1.000  C
  C179     1.0000 0.02950  0.10740  0.22640  Biso   1.000  C
  C180     1.0000 0.98530  0.18750  0.23140  Biso   1.000  C
  C181     1.0000 0.02940  0.26180  0.22870  Biso   1.000  C
  C182     1.0000 0.98750  0.33560  0.23370  Biso   1.000  C
  C183     1.0000 0.86100  0.26560  0.24480  Biso   1.000  C
  C184     1.0000 0.89930  0.19060  0.23940  Biso   1.000  C
  N1       1.0000 0.61850  0.66710  0.26880  Biso   1.000  N
  N2       1.0000 0.54090  0.96820  0.27820  Biso   1.000  N
  N3       1.0000 0.48740  0.03880  0.27660  Biso   1.000  N
  N4       1.0000 0.40360  0.33870  0.25770  Biso   1.000  N
  N5       1.0000 0.11850  0.33290  0.73120  Biso   1.000  N
  N6       1.0000 0.04090  0.03180  0.72180  Biso   1.000  N
  N7       1.0000 0.98740  0.96120  0.72340  Biso   1.000  N
  N8       1.0000 0.90360  0.66130  0.74230  Biso   1.000  N
  N9       1.0000 0.61850  0.33290  0.76880  Biso   1.000  N
  N10      1.0000 0.54090  0.03180  0.77820  Biso   1.000  N
  N11      1.0000 0.48740  0.96120  0.77660  Biso   1.000  N
  N12      1.0000 0.40360  0.66130  0.75770  Biso   1.000  N
  N13      1.0000 0.11850  0.66710  0.23120  Biso   1.000  N
  N14      1.0000 0.04090  0.96820  0.22180  Biso   1.000  N
  N15      1.0000 0.98740  0.03880  0.22340  Biso   1.000  N
  N16      1.0000 0.90360  0.33870  0.24230  Biso   1.000  N
  O1       1.0000 0.76290  0.60410  0.19100  Biso   1.000  O
  O2       1.0000 0.87290  0.51670  0.18500  Biso   1.000  O
  O3       1.0000 0.23340  0.59570  0.79920  Biso   1.000  O
  O4       1.0000 0.12370  0.50850  0.80120  Biso   1.000  O
  O5       1.0000 0.76650  0.40170  0.32260  Biso   1.000  O
  O6       1.0000 0.64770  0.47880  0.32140  Biso   1.000  O
  O7       1.0000 0.39690  0.47660  0.69350  Biso   1.000  O
  O8       1.0000 0.28230  0.39730  0.68520  Biso   1.000  O
  O9       1.0000 0.26290  0.39590  0.80900  Biso   1.000  O
  O10      1.0000 0.37290  0.48330  0.81500  Biso   1.000  O
  O11      1.0000 0.73340  0.40430  0.20080  Biso   1.000  O
  O12      1.0000 0.62370  0.49150  0.19880  Biso   1.000  O
  O13      1.0000 0.26650  0.59830  0.67740  Biso   1.000  O
  O14      1.0000 0.14770  0.52120  0.67860  Biso   1.000  O
  O15      1.0000 0.89690  0.52340  0.30650  Biso   1.000  O
  O16      1.0000 0.78230  0.60270  0.31480  Biso   1.000  O
  O17      1.0000 0.76290  0.39590  0.69100  Biso   1.000  O
  O18      1.0000 0.87290  0.48330  0.68500  Biso   1.000  O
  O19      1.0000 0.23340  0.40430  0.29920  Biso   1.000  O
  O20      1.0000 0.12370  0.49150  0.30120  Biso   1.000  O
  O21      1.0000 0.76650  0.59830  0.82260  Biso   1.000  O
  O22      1.0000 0.64770  0.52120  0.82140  Biso   1.000  O
  O23      1.0000 0.39690  0.52340  0.19350  Biso   1.000  O
  O24      1.0000 0.28230  0.60270  0.18520  Biso   1.000  O
  O25      1.0000 0.26290  0.60410  0.30900  Biso   1.000  O
  O26      1.0000 0.37290  0.51670  0.31500  Biso   1.000  O
  O27      1.0000 0.73340  0.59570  0.70080  Biso   1.000  O
  O28      1.0000 0.62370  0.50850  0.69880  Biso   1.000  O
  O29      1.0000 0.26650  0.40170  0.17740  Biso   1.000  O
  O30      1.0000 0.14770  0.47880  0.17860  Biso   1.000  O
  O31      1.0000 0.89690  0.47660  0.80650  Biso   1.000  O
  O32      1.0000 0.78230  0.39730  0.81480  Biso   1.000  O
  F1       1.0000 0.01450  0.87810  0.07110  Biso   1.000  F
  F2       1.0000 0.11650  0.79550  0.05107  Biso   1.000  F
  F3       1.0000 0.09080  0.90160  0.99540  Biso   1.000  F
  F4       1.0000 0.97680  0.88070  0.90977  Biso   1.000  F
  F5       1.0000 0.90180  0.90570  0.98660  Biso   1.000  F
  F6       1.0000 0.87060  0.80240  0.93050  Biso   1.000  F
  F7       1.0000 0.42100  0.17670  0.45080  Biso   1.000  F
  F8       1.0000 0.52810  0.09970  0.43320  Biso   1.000  F
  F9       1.0000 0.45050  0.07450  0.50930  Biso   1.000  F
  F10      1.0000 0.64050  0.08200  0.51690  Biso   1.000  F
  F11      1.0000 0.56520  0.10280  0.59407  Biso   1.000  F
  F12      1.0000 0.66540  0.18750  0.57267  Biso   1.000  F
  F13      1.0000 0.51450  0.12190  0.92890  Biso   1.000  F
  F14      1.0000 0.61650  0.20450  0.94893  Biso   1.000  F
  F15      1.0000 0.59080  0.09840  0.00460  Biso   1.000  F
  F16      1.0000 0.47680  0.11930  0.09023  Biso   1.000  F
  F17      1.0000 0.40180  0.09430  0.01340  Biso   1.000  F
  F18      1.0000 0.37060  0.19760  0.06950  Biso   1.000  F
  F19      1.0000 0.92100  0.82330  0.54920  Biso   1.000  F
  F20      1.0000 0.02810  0.90030  0.56680  Biso   1.000  F
  F21      1.0000 0.95050  0.92550  0.49070  Biso   1.000  F
  F22      1.0000 0.14050  0.91800  0.48310  Biso   1.000  F
  F23      1.0000 0.06520  0.89720  0.40593  Biso   1.000  F
  F24      1.0000 0.16540  0.81250  0.42733  Biso   1.000  F
  F25      1.0000 0.01450  0.12190  0.57110  Biso   1.000  F
  F26      1.0000 0.11650  0.20450  0.55107  Biso   1.000  F
  F27      1.0000 0.09080  0.09840  0.49540  Biso   1.000  F
  F28      1.0000 0.97680  0.11930  0.40977  Biso   1.000  F
  F29      1.0000 0.90180  0.09430  0.48660  Biso   1.000  F
  F30      1.0000 0.87060  0.19760  0.43050  Biso   1.000  F
  F31      1.0000 0.42100  0.82330  0.95080  Biso   1.000  F
  F32      1.0000 0.52810  0.90030  0.93320  Biso   1.000  F
  F33      1.0000 0.45050  0.92550  0.00930  Biso   1.000  F
  F34      1.0000 0.64050  0.91800  0.01690  Biso   1.000  F
  F35      1.0000 0.56520  0.89720  0.09407  Biso   1.000  F
  F36      1.0000 0.66540  0.81250  0.07267  Biso   1.000  F
  F37      1.0000 0.51450  0.87810  0.42890  Biso   1.000  F
  F38      1.0000 0.61650  0.79550  0.44893  Biso   1.000  F
  F39      1.0000 0.59080  0.90160  0.50460  Biso   1.000  F
  F40      1.0000 0.47680  0.88070  0.59023  Biso   1.000  F
  F41      1.0000 0.40180  0.90570  0.51340  Biso   1.000  F
  F42      1.0000 0.37060  0.80240  0.56950  Biso   1.000  F
  F43      1.0000 0.92100  0.17670  0.04920  Biso   1.000  F
  F44      1.0000 0.02810  0.09970  0.06680  Biso   1.000  F
  F45      1.0000 0.95050  0.07450  0.99070  Biso   1.000  F
  F46      1.0000 0.14050  0.08200  0.98310  Biso   1.000  F
  F47      1.0000 0.06520  0.10280  0.90593  Biso   1.000  F
  F48      1.0000 0.16540  0.18750  0.92733  Biso   1.000  F
