data_image0
_cell_length_a       14.693
_cell_length_b       14.693
_cell_length_c       15.125
_cell_angle_alpha    90
_cell_angle_beta     90
_cell_angle_gamma    120

_symmetry_space_group_name_H-M    P 1
_symmetry_int_tables_number       1

loop_
  _symmetry_equiv_pos_as_xyz
  'x, y, z'

loop_
  _atom_site_label
  _atom_site_occupancy
  _atom_site_fract_x
  _atom_site_fract_y
  _atom_site_fract_z
  _atom_site_thermal_displace_type
  _atom_site_B_iso_or_equiv
  _atom_site_type_symbol
  Tb1      1.0000 0.33333  0.66666  0.75000  Biso   1.000  Tb
  Tb2      1.0000 0.66667  0.33334  0.75000  Biso   1.000  Tb
  Tb3      1.0000 0.66667  0.33334  0.25000  Biso   1.000  Tb
  Tb4      1.0000 0.33333  0.66666  0.25000  Biso   1.000  Tb
  Cu1      1.0000 0.00000  0.50000  0.50000  Biso   1.000  Cu
  Cu2      1.0000 0.50000  0.00000  0.50000  Biso   1.000  Cu
  Cu3      1.0000 0.50000  0.50000  0.50000  Biso   1.000  Cu
  Cu4      1.0000 0.50000  0.50000  0.00000  Biso   1.000  Cu
  Cu5      1.0000 0.50000  0.00000  0.00000  Biso   1.000  Cu
  Cu6      1.0000 0.00000  0.50000  0.00000  Biso   1.000  Cu
  H1       1.0000 0.16040  0.79470  0.65980  Biso   1.000  H
  H2       1.0000 0.08720  0.71600  0.73300  Biso   1.000  H
  H3       1.0000 0.63430  0.83960  0.65980  Biso   1.000  H
  H4       1.0000 0.62880  0.91280  0.73300  Biso   1.000  H
  H5       1.0000 0.20530  0.36570  0.65980  Biso   1.000  H
  H6       1.0000 0.28400  0.37120  0.73300  Biso   1.000  H
  H7       1.0000 0.83960  0.20530  0.65980  Biso   1.000  H
  H8       1.0000 0.91280  0.28400  0.73300  Biso   1.000  H
  H9       1.0000 0.36570  0.16040  0.65980  Biso   1.000  H
  H10      1.0000 0.37120  0.08720  0.73300  Biso   1.000  H
  H11      1.0000 0.79470  0.63430  0.65980  Biso   1.000  H
  H12      1.0000 0.71600  0.62880  0.73300  Biso   1.000  H
  H13      1.0000 0.36570  0.20530  0.84020  Biso   1.000  H
  H14      1.0000 0.37120  0.28400  0.76700  Biso   1.000  H
  H15      1.0000 0.79470  0.16040  0.84020  Biso   1.000  H
  H16      1.0000 0.71600  0.08720  0.76700  Biso   1.000  H
  H17      1.0000 0.83960  0.63430  0.84020  Biso   1.000  H
  H18      1.0000 0.91280  0.62880  0.76700  Biso   1.000  H
  H19      1.0000 0.63430  0.79470  0.84020  Biso   1.000  H
  H20      1.0000 0.62880  0.71600  0.76700  Biso   1.000  H
  H21      1.0000 0.20530  0.83960  0.84020  Biso   1.000  H
  H22      1.0000 0.28400  0.91280  0.76700  Biso   1.000  H
  H23      1.0000 0.16040  0.36570  0.84020  Biso   1.000  H
  H24      1.0000 0.08720  0.37120  0.76700  Biso   1.000  H
  H25      1.0000 0.83960  0.20530  0.34020  Biso   1.000  H
  H26      1.0000 0.91280  0.28400  0.26700  Biso   1.000  H
  H27      1.0000 0.36570  0.16040  0.34020  Biso   1.000  H
  H28      1.0000 0.37120  0.08720  0.26700  Biso   1.000  H
  H29      1.0000 0.79470  0.63430  0.34020  Biso   1.000  H
  H30      1.0000 0.71600  0.62880  0.26700  Biso   1.000  H
  H31      1.0000 0.16040  0.79470  0.34020  Biso   1.000  H
  H32      1.0000 0.08720  0.71600  0.26700  Biso   1.000  H
  H33      1.0000 0.63430  0.83960  0.34020  Biso   1.000  H
  H34      1.0000 0.62880  0.91280  0.26700  Biso   1.000  H
  H35      1.0000 0.20530  0.36570  0.34020  Biso   1.000  H
  H36      1.0000 0.28400  0.37120  0.26700  Biso   1.000  H
  H37      1.0000 0.63430  0.79470  0.15980  Biso   1.000  H
  H38      1.0000 0.62880  0.71600  0.23300  Biso   1.000  H
  H39      1.0000 0.20530  0.83960  0.15980  Biso   1.000  H
  H40      1.0000 0.28400  0.91280  0.23300  Biso   1.000  H
  H41      1.0000 0.16040  0.36570  0.15980  Biso   1.000  H
  H42      1.0000 0.08720  0.37120  0.23300  Biso   1.000  H
  H43      1.0000 0.36570  0.20530  0.15980  Biso   1.000  H
  H44      1.0000 0.37120  0.28400  0.23300  Biso   1.000  H
  H45      1.0000 0.79470  0.16040  0.15980  Biso   1.000  H
  H46      1.0000 0.71600  0.08720  0.23300  Biso   1.000  H
  H47      1.0000 0.83960  0.63430  0.15980  Biso   1.000  H
  H48      1.0000 0.91280  0.62880  0.23300  Biso   1.000  H
  C1       1.0000 0.13060  0.64460  0.63926  Biso   1.000  C
  C2       1.0000 0.14860  0.73560  0.69650  Biso   1.000  C
  C3       1.0000 0.51400  0.86940  0.63926  Biso   1.000  C
  C4       1.0000 0.58700  0.85140  0.69650  Biso   1.000  C
  C5       1.0000 0.35540  0.48600  0.63926  Biso   1.000  C
  C6       1.0000 0.26440  0.41300  0.69650  Biso   1.000  C
  C7       1.0000 0.86940  0.35540  0.63926  Biso   1.000  C
  C8       1.0000 0.85140  0.26440  0.69650  Biso   1.000  C
  C9       1.0000 0.48600  0.13060  0.63926  Biso   1.000  C
  C10      1.0000 0.41300  0.14860  0.69650  Biso   1.000  C
  C11      1.0000 0.64460  0.51400  0.63926  Biso   1.000  C
  C12      1.0000 0.73560  0.58700  0.69650  Biso   1.000  C
  C13      1.0000 0.48600  0.35540  0.86074  Biso   1.000  C
  C14      1.0000 0.41300  0.26440  0.80350  Biso   1.000  C
  C15      1.0000 0.64460  0.13060  0.86074  Biso   1.000  C
  C16      1.0000 0.73560  0.14860  0.80350  Biso   1.000  C
  C17      1.0000 0.86940  0.51400  0.86074  Biso   1.000  C
  C18      1.0000 0.85140  0.58700  0.80350  Biso   1.000  C
  C19      1.0000 0.51400  0.64460  0.86074  Biso   1.000  C
  C20      1.0000 0.58700  0.73560  0.80350  Biso   1.000  C
  C21      1.0000 0.35540  0.86940  0.86074  Biso   1.000  C
  C22      1.0000 0.26440  0.85140  0.80350  Biso   1.000  C
  C23      1.0000 0.13060  0.48600  0.86074  Biso   1.000  C
  C24      1.0000 0.14860  0.41300  0.80350  Biso   1.000  C
  C25      1.0000 0.86940  0.35540  0.36074  Biso   1.000  C
  C26      1.0000 0.85140  0.26440  0.30350  Biso   1.000  C
  C27      1.0000 0.48600  0.13060  0.36074  Biso   1.000  C
  C28      1.0000 0.41300  0.14860  0.30350  Biso   1.000  C
  C29      1.0000 0.64460  0.51400  0.36074  Biso   1.000  C
  C30      1.0000 0.73560  0.58700  0.30350  Biso   1.000  C
  C31      1.0000 0.13060  0.64460  0.36074  Biso   1.000  C
  C32      1.0000 0.14860  0.73560  0.30350  Biso   1.000  C
  C33      1.0000 0.51400  0.86940  0.36074  Biso   1.000  C
  C34      1.0000 0.58700  0.85140  0.30350  Biso   1.000  C
  C35      1.0000 0.35540  0.48600  0.36074  Biso   1.000  C
  C36      1.0000 0.26440  0.41300  0.30350  Biso   1.000  C
  C37      1.0000 0.51400  0.64460  0.13926  Biso   1.000  C
  C38      1.0000 0.58700  0.73560  0.19650  Biso   1.000  C
  C39      1.0000 0.35540  0.86940  0.13926  Biso   1.000  C
  C40      1.0000 0.26440  0.85140  0.19650  Biso   1.000  C
  C41      1.0000 0.13060  0.48600  0.13926  Biso   1.000  C
  C42      1.0000 0.14860  0.41300  0.19650  Biso   1.000  C
  C43      1.0000 0.48600  0.35540  0.13926  Biso   1.000  C
  C44      1.0000 0.41300  0.26440  0.19650  Biso   1.000  C
  C45      1.0000 0.64460  0.13060  0.13926  Biso   1.000  C
  C46      1.0000 0.73560  0.14860  0.19650  Biso   1.000  C
  C47      1.0000 0.86940  0.51400  0.13926  Biso   1.000  C
  C48      1.0000 0.85140  0.58700  0.19650  Biso   1.000  C
  O1       1.0000 0.19495  0.61268  0.64393  Biso   1.000  O
  O2       1.0000 0.05216  0.60970  0.59006  Biso   1.000  O
  O3       1.0000 0.41773  0.80505  0.64393  Biso   1.000  O
  O4       1.0000 0.55754  0.94784  0.59006  Biso   1.000  O
  O5       1.0000 0.38732  0.58227  0.64393  Biso   1.000  O
  O6       1.0000 0.39030  0.44246  0.59006  Biso   1.000  O
  O7       1.0000 0.80505  0.38732  0.64393  Biso   1.000  O
  O8       1.0000 0.94784  0.39030  0.59006  Biso   1.000  O
  O9       1.0000 0.58227  0.19495  0.64393  Biso   1.000  O
  O10      1.0000 0.44246  0.05216  0.59006  Biso   1.000  O
  O11      1.0000 0.61268  0.41773  0.64393  Biso   1.000  O
  O12      1.0000 0.60970  0.55754  0.59006  Biso   1.000  O
  O13      1.0000 0.58227  0.38732  0.85607  Biso   1.000  O
  O14      1.0000 0.44246  0.39030  0.90994  Biso   1.000  O
  O15      1.0000 0.61268  0.19495  0.85607  Biso   1.000  O
  O16      1.0000 0.60970  0.05216  0.90994  Biso   1.000  O
  O17      1.0000 0.80505  0.41773  0.85607  Biso   1.000  O
  O18      1.0000 0.94784  0.55754  0.90994  Biso   1.000  O
  O19      1.0000 0.41773  0.61268  0.85607  Biso   1.000  O
  O20      1.0000 0.55754  0.60970  0.90994  Biso   1.000  O
  O21      1.0000 0.38732  0.80505  0.85607  Biso   1.000  O
  O22      1.0000 0.39030  0.94784  0.90994  Biso   1.000  O
  O23      1.0000 0.19495  0.58227  0.85607  Biso   1.000  O
  O24      1.0000 0.05216  0.44246  0.90994  Biso   1.000  O
  O25      1.0000 0.80505  0.38732  0.35607  Biso   1.000  O
  O26      1.0000 0.94784  0.39030  0.40994  Biso   1.000  O
  O27      1.0000 0.58227  0.19495  0.35607  Biso   1.000  O
  O28      1.0000 0.44246  0.05216  0.40994  Biso   1.000  O
  O29      1.0000 0.61268  0.41773  0.35607  Biso   1.000  O
  O30      1.0000 0.60970  0.55754  0.40994  Biso   1.000  O
  O31      1.0000 0.19495  0.61268  0.35607  Biso   1.000  O
  O32      1.0000 0.05216  0.60970  0.40994  Biso   1.000  O
  O33      1.0000 0.41773  0.80505  0.35607  Biso   1.000  O
  O34      1.0000 0.55754  0.94784  0.40994  Biso   1.000  O
  O35      1.0000 0.38732  0.58227  0.35607  Biso   1.000  O
  O36      1.0000 0.39030  0.44246  0.40994  Biso   1.000  O
  O37      1.0000 0.41773  0.61268  0.14393  Biso   1.000  O
  O38      1.0000 0.55754  0.60970  0.09006  Biso   1.000  O
  O39      1.0000 0.38732  0.80505  0.14393  Biso   1.000  O
  O40      1.0000 0.39030  0.94784  0.09006  Biso   1.000  O
  O41      1.0000 0.19495  0.58227  0.14393  Biso   1.000  O
  O42      1.0000 0.05216  0.44246  0.09006  Biso   1.000  O
  O43      1.0000 0.58227  0.38732  0.14393  Biso   1.000  O
  O44      1.0000 0.44246  0.39030  0.09006  Biso   1.000  O
  O45      1.0000 0.61268  0.19495  0.14393  Biso   1.000  O
  O46      1.0000 0.60970  0.05216  0.09006  Biso   1.000  O
  O47      1.0000 0.80505  0.41773  0.14393  Biso   1.000  O
  O48      1.0000 0.94784  0.55754  0.09006  Biso   1.000  O
  O49      1.0000 0.23625  0.76375  0.75000  Biso   1.000  O
  O50      1.0000 0.52750  0.76375  0.75000  Biso   1.000  O
  O51      1.0000 0.23625  0.47250  0.75000  Biso   1.000  O
  O52      1.0000 0.76375  0.23625  0.75000  Biso   1.000  O
  O53      1.0000 0.47250  0.23625  0.75000  Biso   1.000  O
  O54      1.0000 0.76375  0.52750  0.75000  Biso   1.000  O
  O55      1.0000 0.76375  0.23625  0.25000  Biso   1.000  O
  O56      1.0000 0.47250  0.23625  0.25000  Biso   1.000  O
  O57      1.0000 0.76375  0.52750  0.25000  Biso   1.000  O
  O58      1.0000 0.23625  0.76375  0.25000  Biso   1.000  O
  O59      1.0000 0.52750  0.76375  0.25000  Biso   1.000  O
  O60      1.0000 0.23625  0.47250  0.25000  Biso   1.000  O
