data_image0
_cell_length_a       24.7701
_cell_length_b       24.7701
_cell_length_c       24.7701
_cell_angle_alpha    109.471
_cell_angle_beta     109.471
_cell_angle_gamma    109.471

_symmetry_space_group_name_H-M    P 1
_symmetry_int_tables_number       1

loop_
  _symmetry_equiv_pos_as_xyz
  'x, y, z'

loop_
  _atom_site_label
  _atom_site_occupancy
  _atom_site_fract_x
  _atom_site_fract_y
  _atom_site_fract_z
  _atom_site_thermal_displace_type
  _atom_site_B_iso_or_equiv
  _atom_site_type_symbol
  Ni1      1.0000 0.02803  0.27803  0.55606  Biso   1.000  Ni
  Ni2      1.0000 0.22197  0.47197  0.94394  Biso   1.000  Ni
  Ni3      1.0000 0.27803  0.22197  0.25000  Biso   1.000  Ni
  Ni4      1.0000 0.47197  0.02803  0.25000  Biso   1.000  Ni
  Ni5      1.0000 0.75000  0.27803  0.72197  Biso   1.000  Ni
  Ni6      1.0000 0.75000  0.47197  0.52803  Biso   1.000  Ni
  Ni7      1.0000 0.05606  0.02803  0.77803  Biso   1.000  Ni
  Ni8      1.0000 0.44394  0.22197  0.97197  Biso   1.000  Ni
  Ni9      1.0000 0.47197  0.44394  0.72197  Biso   1.000  Ni
  Ni10     1.0000 0.27803  0.05606  0.52803  Biso   1.000  Ni
  Ni11     1.0000 0.02803  0.75000  0.97197  Biso   1.000  Ni
  Ni12     1.0000 0.22197  0.75000  0.77803  Biso   1.000  Ni
  H1       1.0000 0.08770  0.47870  0.61040  Biso   1.000  H
  H2       1.0000 0.13810  0.29880  0.67870  Biso   1.000  H
  H3       1.0000 0.25040  0.37670  0.75530  Biso   1.000  H
  H4       1.0000 0.30920  0.45730  0.74170  Biso   1.000  H
  H5       1.0000 0.25240  0.47430  0.65690  Biso   1.000  H
  H6       1.0000 0.13760  0.39770  0.58450  Biso   1.000  H
  H7       1.0000 0.91210  0.23700  0.47110  Biso   1.000  H
  H8       1.0000 0.36830  0.47730  0.88960  Biso   1.000  H
  H9       1.0000 0.12010  0.45940  0.82130  Biso   1.000  H
  H10      1.0000 0.12140  0.49510  0.74470  Biso   1.000  H
  H11      1.0000 0.21560  0.56750  0.75830  Biso   1.000  H
  H12      1.0000 0.31740  0.59550  0.84310  Biso   1.000  H
  H13      1.0000 0.31320  0.55310  0.91550  Biso   1.000  H
  H14      1.0000 0.26590  0.44100  0.02890  Biso   1.000  H
  H15      1.0000 0.13170  0.02130  0.10900  Biso   1.000  H
  H16      1.0000 0.37990  0.20120  0.33930  Biso   1.000  H
  H17      1.0000 0.37860  0.12330  0.37370  Biso   1.000  H
  H18      1.0000 0.28440  0.04270  0.35190  Biso   1.000  H
  H19      1.0000 0.18260  0.02570  0.27810  Biso   1.000  H
  H20      1.0000 0.18680  0.10230  0.23990  Biso   1.000  H
  H21      1.0000 0.23410  0.26300  0.17510  Biso   1.000  H
  H22      1.0000 0.41230  0.02270  0.39100  Biso   1.000  H
  H23      1.0000 0.36190  0.04060  0.16070  Biso   1.000  H
  H24      1.0000 0.24960  0.00490  0.12630  Biso   1.000  H
  H25      1.0000 0.19080  0.93250  0.14810  Biso   1.000  H
  H26      1.0000 0.24760  0.90450  0.22190  Biso   1.000  H
  H27      1.0000 0.36240  0.94690  0.26010  Biso   1.000  H
  H28      1.0000 0.58790  0.05900  0.32490  Biso   1.000  H
  H29      1.0000 0.60900  0.13170  0.52130  Biso   1.000  H
  H30      1.0000 0.83930  0.37990  0.70120  Biso   1.000  H
  H31      1.0000 0.87370  0.37860  0.62330  Biso   1.000  H
  H32      1.0000 0.85190  0.28440  0.54270  Biso   1.000  H
  H33      1.0000 0.77810  0.18260  0.52570  Biso   1.000  H
  H34      1.0000 0.73990  0.18680  0.60230  Biso   1.000  H
  H35      1.0000 0.67510  0.23410  0.76300  Biso   1.000  H
  H36      1.0000 0.89100  0.41230  0.52270  Biso   1.000  H
  H37      1.0000 0.66070  0.36190  0.54060  Biso   1.000  H
  H38      1.0000 0.62630  0.24960  0.50490  Biso   1.000  H
  H39      1.0000 0.64810  0.19080  0.43250  Biso   1.000  H
  H40      1.0000 0.72190  0.24760  0.40450  Biso   1.000  H
  H41      1.0000 0.76010  0.36240  0.44690  Biso   1.000  H
  H42      1.0000 0.82490  0.58790  0.55900  Biso   1.000  H
  H43      1.0000 0.11040  0.08770  0.97870  Biso   1.000  H
  H44      1.0000 0.17870  0.13810  0.79880  Biso   1.000  H
  H45      1.0000 0.25530  0.25040  0.87670  Biso   1.000  H
  H46      1.0000 0.24170  0.30920  0.95730  Biso   1.000  H
  H47      1.0000 0.15690  0.25240  0.97430  Biso   1.000  H
  H48      1.0000 0.08450  0.13760  0.89770  Biso   1.000  H
  H49      1.0000 0.97110  0.91210  0.73700  Biso   1.000  H
  H50      1.0000 0.38960  0.36830  0.97730  Biso   1.000  H
  H51      1.0000 0.32130  0.12010  0.95940  Biso   1.000  H
  H52      1.0000 0.24470  0.12140  0.99510  Biso   1.000  H
  H53      1.0000 0.25830  0.21560  0.06750  Biso   1.000  H
  H54      1.0000 0.34310  0.31740  0.09550  Biso   1.000  H
  H55      1.0000 0.41550  0.31320  0.05310  Biso   1.000  H
  H56      1.0000 0.52890  0.26590  0.94100  Biso   1.000  H
  H57      1.0000 0.47730  0.38960  0.86830  Biso   1.000  H
  H58      1.0000 0.45940  0.32130  0.62010  Biso   1.000  H
  H59      1.0000 0.49510  0.24470  0.62140  Biso   1.000  H
  H60      1.0000 0.56750  0.25830  0.71560  Biso   1.000  H
  H61      1.0000 0.59550  0.34310  0.81740  Biso   1.000  H
  H62      1.0000 0.55310  0.41550  0.81320  Biso   1.000  H
  H63      1.0000 0.44100  0.52890  0.76590  Biso   1.000  H
  H64      1.0000 0.47870  0.11040  0.58770  Biso   1.000  H
  H65      1.0000 0.29880  0.17870  0.63810  Biso   1.000  H
  H66      1.0000 0.37670  0.25530  0.75040  Biso   1.000  H
  H67      1.0000 0.45730  0.24170  0.80920  Biso   1.000  H
  H68      1.0000 0.47430  0.15690  0.75240  Biso   1.000  H
  H69      1.0000 0.39770  0.08450  0.63760  Biso   1.000  H
  H70      1.0000 0.23700  0.97110  0.41210  Biso   1.000  H
  H71      1.0000 0.02270  0.89100  0.91230  Biso   1.000  H
  H72      1.0000 0.04060  0.66070  0.86190  Biso   1.000  H
  H73      1.0000 0.00490  0.62630  0.74960  Biso   1.000  H
  H74      1.0000 0.93250  0.64810  0.69080  Biso   1.000  H
  H75      1.0000 0.90450  0.72190  0.74760  Biso   1.000  H
  H76      1.0000 0.94690  0.76010  0.86240  Biso   1.000  H
  H77      1.0000 0.05900  0.82490  0.08790  Biso   1.000  H
  H78      1.0000 0.02130  0.60900  0.63170  Biso   1.000  H
  H79      1.0000 0.20120  0.83930  0.87990  Biso   1.000  H
  H80      1.0000 0.12330  0.87370  0.87860  Biso   1.000  H
  H81      1.0000 0.04270  0.85190  0.78440  Biso   1.000  H
  H82      1.0000 0.02570  0.77810  0.68260  Biso   1.000  H
  H83      1.0000 0.10230  0.73990  0.68680  Biso   1.000  H
  H84      1.0000 0.26300  0.67510  0.73410  Biso   1.000  H
  H85      1.0000 0.02130  0.41230  0.88960  Biso   1.000  H
  H86      1.0000 0.20120  0.36190  0.82130  Biso   1.000  H
  H87      1.0000 0.12330  0.24960  0.74470  Biso   1.000  H
  H88      1.0000 0.04270  0.19080  0.75830  Biso   1.000  H
  H89      1.0000 0.02570  0.24760  0.84310  Biso   1.000  H
  H90      1.0000 0.10230  0.36240  0.91550  Biso   1.000  H
  H91      1.0000 0.26300  0.58790  0.02890  Biso   1.000  H
  H92      1.0000 0.02270  0.13170  0.61040  Biso   1.000  H
  H93      1.0000 0.04060  0.37990  0.67870  Biso   1.000  H
  H94      1.0000 0.00490  0.37860  0.75530  Biso   1.000  H
  H95      1.0000 0.93250  0.28440  0.74170  Biso   1.000  H
  H96      1.0000 0.90450  0.18260  0.65690  Biso   1.000  H
  H97      1.0000 0.94690  0.18680  0.58450  Biso   1.000  H
  H98      1.0000 0.05900  0.23410  0.47110  Biso   1.000  H
  H99      1.0000 0.47870  0.36830  0.39100  Biso   1.000  H
  H100     1.0000 0.29880  0.12010  0.16070  Biso   1.000  H
  H101     1.0000 0.37670  0.12140  0.12630  Biso   1.000  H
  H102     1.0000 0.45730  0.21560  0.14810  Biso   1.000  H
  H103     1.0000 0.47430  0.31740  0.22190  Biso   1.000  H
  H104     1.0000 0.39770  0.31320  0.26010  Biso   1.000  H
  H105     1.0000 0.23700  0.26590  0.32490  Biso   1.000  H
  H106     1.0000 0.47730  0.08770  0.10900  Biso   1.000  H
  H107     1.0000 0.45940  0.13810  0.33930  Biso   1.000  H
  H108     1.0000 0.49510  0.25040  0.37370  Biso   1.000  H
  H109     1.0000 0.56750  0.30920  0.35190  Biso   1.000  H
  H110     1.0000 0.59550  0.25240  0.27810  Biso   1.000  H
  H111     1.0000 0.55310  0.13760  0.23990  Biso   1.000  H
  H112     1.0000 0.44100  0.91210  0.17510  Biso   1.000  H
  H113     1.0000 0.36830  0.89100  0.97870  Biso   1.000  H
  H114     1.0000 0.12010  0.66070  0.79880  Biso   1.000  H
  H115     1.0000 0.12140  0.62630  0.87670  Biso   1.000  H
  H116     1.0000 0.21560  0.64810  0.95730  Biso   1.000  H
  H117     1.0000 0.31740  0.72190  0.97430  Biso   1.000  H
  H118     1.0000 0.31320  0.76010  0.89770  Biso   1.000  H
  H119     1.0000 0.26590  0.82490  0.73700  Biso   1.000  H
  H120     1.0000 0.08770  0.60900  0.97730  Biso   1.000  H
  H121     1.0000 0.13810  0.83930  0.95940  Biso   1.000  H
  H122     1.0000 0.25040  0.87370  0.99510  Biso   1.000  H
  H123     1.0000 0.30920  0.85190  0.06750  Biso   1.000  H
  H124     1.0000 0.25240  0.77810  0.09550  Biso   1.000  H
  H125     1.0000 0.13760  0.73990  0.05310  Biso   1.000  H
  H126     1.0000 0.91210  0.67510  0.94100  Biso   1.000  H
  H127     1.0000 0.41230  0.38960  0.52130  Biso   1.000  H
  H128     1.0000 0.36190  0.32130  0.70120  Biso   1.000  H
  H129     1.0000 0.24960  0.24470  0.62330  Biso   1.000  H
  H130     1.0000 0.19080  0.25830  0.54270  Biso   1.000  H
  H131     1.0000 0.24760  0.34310  0.52570  Biso   1.000  H
  H132     1.0000 0.36240  0.41550  0.60230  Biso   1.000  H
  H133     1.0000 0.58790  0.52890  0.76300  Biso   1.000  H
  H134     1.0000 0.13170  0.11040  0.52270  Biso   1.000  H
  H135     1.0000 0.37990  0.17870  0.54060  Biso   1.000  H
  H136     1.0000 0.37860  0.25530  0.50490  Biso   1.000  H
  H137     1.0000 0.28440  0.24170  0.43250  Biso   1.000  H
  H138     1.0000 0.18260  0.15690  0.40450  Biso   1.000  H
  H139     1.0000 0.18680  0.08450  0.44690  Biso   1.000  H
  H140     1.0000 0.23410  0.97110  0.55900  Biso   1.000  H
  H141     1.0000 0.11040  0.02270  0.63170  Biso   1.000  H
  H142     1.0000 0.17870  0.04060  0.87990  Biso   1.000  H
  H143     1.0000 0.25530  0.00490  0.87860  Biso   1.000  H
  H144     1.0000 0.24170  0.93250  0.78440  Biso   1.000  H
  H145     1.0000 0.15690  0.90450  0.68260  Biso   1.000  H
  H146     1.0000 0.08450  0.94690  0.68680  Biso   1.000  H
  H147     1.0000 0.97110  0.05900  0.73410  Biso   1.000  H
  H148     1.0000 0.38960  0.02130  0.91230  Biso   1.000  H
  H149     1.0000 0.32130  0.20120  0.86190  Biso   1.000  H
  H150     1.0000 0.24470  0.12330  0.74960  Biso   1.000  H
  H151     1.0000 0.25830  0.04270  0.69080  Biso   1.000  H
  H152     1.0000 0.34310  0.02570  0.74760  Biso   1.000  H
  H153     1.0000 0.41550  0.10230  0.86240  Biso   1.000  H
  H154     1.0000 0.52890  0.26300  0.08790  Biso   1.000  H
  H155     1.0000 0.60900  0.47730  0.58770  Biso   1.000  H
  H156     1.0000 0.83930  0.45940  0.63810  Biso   1.000  H
  H157     1.0000 0.87370  0.49510  0.75040  Biso   1.000  H
  H158     1.0000 0.85190  0.56750  0.80920  Biso   1.000  H
  H159     1.0000 0.77810  0.59550  0.75240  Biso   1.000  H
  H160     1.0000 0.73990  0.55310  0.63760  Biso   1.000  H
  H161     1.0000 0.67510  0.44100  0.41210  Biso   1.000  H
  H162     1.0000 0.89100  0.47870  0.86830  Biso   1.000  H
  H163     1.0000 0.66070  0.29880  0.62010  Biso   1.000  H
  H164     1.0000 0.62630  0.37670  0.62140  Biso   1.000  H
  H165     1.0000 0.64810  0.45730  0.71560  Biso   1.000  H
  H166     1.0000 0.72190  0.47430  0.81740  Biso   1.000  H
  H167     1.0000 0.76010  0.39770  0.81320  Biso   1.000  H
  H168     1.0000 0.82490  0.23700  0.76590  Biso   1.000  H
  C1       1.0000 0.97370  0.36478  0.53526  Biso   1.000  C
  C2       1.0000 0.98747  0.43523  0.56184  Biso   1.000  C
  C3       1.0000 0.05204  0.48728  0.60098  Biso   1.000  C
  C4       1.0000 0.93200  0.18430  0.41990  Biso   1.000  C
  C5       1.0000 0.86060  0.13920  0.36380  Biso   1.000  C
  C6       1.0000 0.16010  0.33470  0.67360  Biso   1.000  C
  C7       1.0000 0.22850  0.38110  0.71880  Biso   1.000  C
  C8       1.0000 0.26280  0.42940  0.71240  Biso   1.000  C
  C9       1.0000 0.23030  0.43880  0.66250  Biso   1.000  C
  C10      1.0000 0.16110  0.39220  0.61950  Biso   1.000  C
  C11      1.0000 0.32952  0.43844  0.96474  Biso   1.000  C
  C12      1.0000 0.37339  0.42563  0.93816  Biso   1.000  C
  C13      1.0000 0.38630  0.45106  0.89902  Biso   1.000  C
  C14      1.0000 0.26440  0.51210  0.08010  Biso   1.000  C
  C15      1.0000 0.27540  0.49680  0.13620  Biso   1.000  C
  C16      1.0000 0.16110  0.48650  0.82640  Biso   1.000  C
  C17      1.0000 0.16230  0.50970  0.78120  Biso   1.000  C
  C18      1.0000 0.21700  0.55040  0.78760  Biso   1.000  C
  C19      1.0000 0.27630  0.56780  0.83750  Biso   1.000  C
  C20      1.0000 0.27270  0.54160  0.88050  Biso   1.000  C
  C21      1.0000 0.17048  0.13522  0.10892  Biso   1.000  C
  C22      1.0000 0.12661  0.06477  0.05224  Biso   1.000  C
  C23      1.0000 0.11370  0.01272  0.06476  Biso   1.000  C
  C24      1.0000 0.23560  0.31570  0.24770  Biso   1.000  C
  C25      1.0000 0.22460  0.36080  0.22140  Biso   1.000  C
  C26      1.0000 0.33890  0.16530  0.32540  Biso   1.000  C
  C27      1.0000 0.33770  0.11890  0.34740  Biso   1.000  C
  C28      1.0000 0.28300  0.07060  0.33340  Biso   1.000  C
  C29      1.0000 0.22370  0.06120  0.29150  Biso   1.000  C
  C30      1.0000 0.22730  0.10780  0.26890  Biso   1.000  C
  C31      1.0000 0.52630  0.06156  0.39108  Biso   1.000  C
  C32      1.0000 0.51253  0.07437  0.44776  Biso   1.000  C
  C33      1.0000 0.44796  0.04894  0.43524  Biso   1.000  C
  C34      1.0000 0.56800  0.98790  0.25230  Biso   1.000  C
  C35      1.0000 0.63940  0.00320  0.27860  Biso   1.000  C
  C36      1.0000 0.33990  0.01350  0.17460  Biso   1.000  C
  C37      1.0000 0.27150  0.99030  0.15260  Biso   1.000  C
  C38      1.0000 0.23720  0.94960  0.16660  Biso   1.000  C
  C39      1.0000 0.26970  0.93220  0.20850  Biso   1.000  C
  C40      1.0000 0.33890  0.95840  0.23110  Biso   1.000  C
  C41      1.0000 0.60892  0.17048  0.63522  Biso   1.000  C
  C42      1.0000 0.55224  0.12661  0.56477  Biso   1.000  C
  C43      1.0000 0.56476  0.11370  0.51272  Biso   1.000  C
  C44      1.0000 0.74770  0.23560  0.81570  Biso   1.000  C
  C45      1.0000 0.72140  0.22460  0.86080  Biso   1.000  C
  C46      1.0000 0.82540  0.33890  0.66530  Biso   1.000  C
  C47      1.0000 0.84740  0.33770  0.61890  Biso   1.000  C
  C48      1.0000 0.83340  0.28300  0.57060  Biso   1.000  C
  C49      1.0000 0.79150  0.22370  0.56120  Biso   1.000  C
  C50      1.0000 0.76890  0.22730  0.60780  Biso   1.000  C
  C51      1.0000 0.89108  0.52630  0.56156  Biso   1.000  C
  C52      1.0000 0.94776  0.51253  0.57437  Biso   1.000  C
  C53      1.0000 0.93524  0.44796  0.54894  Biso   1.000  C
  C54      1.0000 0.75230  0.56800  0.48790  Biso   1.000  C
  C55      1.0000 0.77860  0.63940  0.50320  Biso   1.000  C
  C56      1.0000 0.67460  0.33990  0.51350  Biso   1.000  C
  C57      1.0000 0.65260  0.27150  0.49030  Biso   1.000  C
  C58      1.0000 0.66660  0.23720  0.44960  Biso   1.000  C
  C59      1.0000 0.70850  0.26970  0.43220  Biso   1.000  C
  C60      1.0000 0.73110  0.33890  0.45840  Biso   1.000  C
  C61      1.0000 0.03526  0.97370  0.86478  Biso   1.000  C
  C62      1.0000 0.06184  0.98747  0.93523  Biso   1.000  C
  C63      1.0000 0.10098  0.05204  0.98728  Biso   1.000  C
  C64      1.0000 0.91990  0.93200  0.68430  Biso   1.000  C
  C65      1.0000 0.86380  0.86060  0.63920  Biso   1.000  C
  C66      1.0000 0.17360  0.16010  0.83470  Biso   1.000  C
  C67      1.0000 0.21880  0.22850  0.88110  Biso   1.000  C
  C68      1.0000 0.21240  0.26280  0.92940  Biso   1.000  C
  C69      1.0000 0.16250  0.23030  0.93880  Biso   1.000  C
  C70      1.0000 0.11950  0.16110  0.89220  Biso   1.000  C
  C71      1.0000 0.46474  0.32952  0.93844  Biso   1.000  C
  C72      1.0000 0.43816  0.37339  0.92563  Biso   1.000  C
  C73      1.0000 0.39902  0.38630  0.95106  Biso   1.000  C
  C74      1.0000 0.58010  0.26440  0.01210  Biso   1.000  C
  C75      1.0000 0.63620  0.27540  0.99680  Biso   1.000  C
  C76      1.0000 0.32640  0.16110  0.98650  Biso   1.000  C
  C77      1.0000 0.28120  0.16230  0.00970  Biso   1.000  C
  C78      1.0000 0.28760  0.21700  0.05040  Biso   1.000  C
  C79      1.0000 0.33750  0.27630  0.06780  Biso   1.000  C
  C80      1.0000 0.38050  0.27270  0.04160  Biso   1.000  C
  C81      1.0000 0.43844  0.46474  0.82952  Biso   1.000  C
  C82      1.0000 0.42563  0.43816  0.87339  Biso   1.000  C
  C83      1.0000 0.45106  0.39902  0.88630  Biso   1.000  C
  C84      1.0000 0.51210  0.58010  0.76440  Biso   1.000  C
  C85      1.0000 0.49680  0.63620  0.77540  Biso   1.000  C
  C86      1.0000 0.48650  0.32640  0.66110  Biso   1.000  C
  C87      1.0000 0.50970  0.28120  0.66230  Biso   1.000  C
  C88      1.0000 0.55040  0.28760  0.71700  Biso   1.000  C
  C89      1.0000 0.56780  0.33750  0.77630  Biso   1.000  C
  C90      1.0000 0.54160  0.38050  0.77270  Biso   1.000  C
  C91      1.0000 0.36478  0.03526  0.47370  Biso   1.000  C
  C92      1.0000 0.43523  0.06184  0.48747  Biso   1.000  C
  C93      1.0000 0.48728  0.10098  0.55204  Biso   1.000  C
  C94      1.0000 0.18430  0.91990  0.43200  Biso   1.000  C
  C95      1.0000 0.13920  0.86380  0.36060  Biso   1.000  C
  C96      1.0000 0.33470  0.17360  0.66010  Biso   1.000  C
  C97      1.0000 0.38110  0.21880  0.72850  Biso   1.000  C
  C98      1.0000 0.42940  0.21240  0.76280  Biso   1.000  C
  C99      1.0000 0.43880  0.16250  0.73030  Biso   1.000  C
  C100     1.0000 0.39220  0.11950  0.66110  Biso   1.000  C
  C101     1.0000 0.06156  0.89108  0.02630  Biso   1.000  C
  C102     1.0000 0.07437  0.94776  0.01253  Biso   1.000  C
  C103     1.0000 0.04894  0.93524  0.94796  Biso   1.000  C
  C104     1.0000 0.98790  0.75230  0.06800  Biso   1.000  C
  C105     1.0000 0.00320  0.77860  0.13940  Biso   1.000  C
  C106     1.0000 0.01350  0.67460  0.83990  Biso   1.000  C
  C107     1.0000 0.99030  0.65260  0.77150  Biso   1.000  C
  C108     1.0000 0.94960  0.66660  0.73720  Biso   1.000  C
  C109     1.0000 0.93220  0.70850  0.76970  Biso   1.000  C
  C110     1.0000 0.95840  0.73110  0.83890  Biso   1.000  C
  C111     1.0000 0.13522  0.60892  0.67048  Biso   1.000  C
  C112     1.0000 0.06477  0.55224  0.62661  Biso   1.000  C
  C113     1.0000 0.01272  0.56476  0.61370  Biso   1.000  C
  C114     1.0000 0.31570  0.74770  0.73560  Biso   1.000  C
  C115     1.0000 0.36080  0.72140  0.72460  Biso   1.000  C
  C116     1.0000 0.16530  0.82540  0.83890  Biso   1.000  C
  C117     1.0000 0.11890  0.84740  0.83770  Biso   1.000  C
  C118     1.0000 0.07060  0.83340  0.78300  Biso   1.000  C
  C119     1.0000 0.06120  0.79150  0.72370  Biso   1.000  C
  C120     1.0000 0.10780  0.76890  0.72730  Biso   1.000  C
  C121     1.0000 0.13522  0.52630  0.96474  Biso   1.000  C
  C122     1.0000 0.06477  0.51253  0.93816  Biso   1.000  C
  C123     1.0000 0.01272  0.44796  0.89902  Biso   1.000  C
  C124     1.0000 0.31570  0.56800  0.08010  Biso   1.000  C
  C125     1.0000 0.36080  0.63940  0.13620  Biso   1.000  C
  C126     1.0000 0.16530  0.33990  0.82640  Biso   1.000  C
  C127     1.0000 0.11890  0.27150  0.78120  Biso   1.000  C
  C128     1.0000 0.07060  0.23720  0.78760  Biso   1.000  C
  C129     1.0000 0.06120  0.26970  0.83750  Biso   1.000  C
  C130     1.0000 0.10780  0.33890  0.88050  Biso   1.000  C
  C131     1.0000 0.06156  0.17048  0.53526  Biso   1.000  C
  C132     1.0000 0.07437  0.12661  0.56184  Biso   1.000  C
  C133     1.0000 0.04894  0.11370  0.60098  Biso   1.000  C
  C134     1.0000 0.98790  0.23560  0.41990  Biso   1.000  C
  C135     1.0000 0.00320  0.22460  0.36380  Biso   1.000  C
  C136     1.0000 0.01350  0.33890  0.67360  Biso   1.000  C
  C137     1.0000 0.99030  0.33770  0.71880  Biso   1.000  C
  C138     1.0000 0.94960  0.28300  0.71240  Biso   1.000  C
  C139     1.0000 0.93220  0.22370  0.66250  Biso   1.000  C
  C140     1.0000 0.95840  0.22730  0.61950  Biso   1.000  C
  C141     1.0000 0.36478  0.32952  0.39108  Biso   1.000  C
  C142     1.0000 0.43523  0.37339  0.44776  Biso   1.000  C
  C143     1.0000 0.48728  0.38630  0.43524  Biso   1.000  C
  C144     1.0000 0.18430  0.26440  0.25230  Biso   1.000  C
  C145     1.0000 0.13920  0.27540  0.27860  Biso   1.000  C
  C146     1.0000 0.33470  0.16110  0.17460  Biso   1.000  C
  C147     1.0000 0.38110  0.16230  0.15260  Biso   1.000  C
  C148     1.0000 0.42940  0.21700  0.16660  Biso   1.000  C
  C149     1.0000 0.43880  0.27630  0.20850  Biso   1.000  C
  C150     1.0000 0.39220  0.27270  0.23110  Biso   1.000  C
  C151     1.0000 0.43844  0.97370  0.10892  Biso   1.000  C
  C152     1.0000 0.42563  0.98747  0.05224  Biso   1.000  C
  C153     1.0000 0.45106  0.05204  0.06476  Biso   1.000  C
  C154     1.0000 0.51210  0.93200  0.24770  Biso   1.000  C
  C155     1.0000 0.49680  0.86060  0.22140  Biso   1.000  C
  C156     1.0000 0.48650  0.16010  0.32540  Biso   1.000  C
  C157     1.0000 0.50970  0.22850  0.34740  Biso   1.000  C
  C158     1.0000 0.55040  0.26280  0.33340  Biso   1.000  C
  C159     1.0000 0.56780  0.23030  0.29150  Biso   1.000  C
  C160     1.0000 0.54160  0.16110  0.26890  Biso   1.000  C
  C161     1.0000 0.32952  0.89108  0.86478  Biso   1.000  C
  C162     1.0000 0.37339  0.94776  0.93523  Biso   1.000  C
  C163     1.0000 0.38630  0.93524  0.98728  Biso   1.000  C
  C164     1.0000 0.26440  0.75230  0.68430  Biso   1.000  C
  C165     1.0000 0.27540  0.77860  0.63920  Biso   1.000  C
  C166     1.0000 0.16110  0.67460  0.83470  Biso   1.000  C
  C167     1.0000 0.16230  0.65260  0.88110  Biso   1.000  C
  C168     1.0000 0.21700  0.66660  0.92940  Biso   1.000  C
  C169     1.0000 0.27630  0.70850  0.93880  Biso   1.000  C
  C170     1.0000 0.27270  0.73110  0.89220  Biso   1.000  C
  C171     1.0000 0.97370  0.60892  0.93844  Biso   1.000  C
  C172     1.0000 0.98747  0.55224  0.92563  Biso   1.000  C
  C173     1.0000 0.05204  0.56476  0.95106  Biso   1.000  C
  C174     1.0000 0.93200  0.74770  0.01210  Biso   1.000  C
  C175     1.0000 0.86060  0.72140  0.99680  Biso   1.000  C
  C176     1.0000 0.16010  0.82540  0.98650  Biso   1.000  C
  C177     1.0000 0.22850  0.84740  0.00970  Biso   1.000  C
  C178     1.0000 0.26280  0.83340  0.05040  Biso   1.000  C
  C179     1.0000 0.23030  0.79150  0.06780  Biso   1.000  C
  C180     1.0000 0.16110  0.76890  0.04160  Biso   1.000  C
  C181     1.0000 0.52630  0.46474  0.63522  Biso   1.000  C
  C182     1.0000 0.51253  0.43816  0.56477  Biso   1.000  C
  C183     1.0000 0.44796  0.39902  0.51272  Biso   1.000  C
  C184     1.0000 0.56800  0.58010  0.81570  Biso   1.000  C
  C185     1.0000 0.63940  0.63620  0.86080  Biso   1.000  C
  C186     1.0000 0.33990  0.32640  0.66530  Biso   1.000  C
  C187     1.0000 0.27150  0.28120  0.61890  Biso   1.000  C
  C188     1.0000 0.23720  0.28760  0.57060  Biso   1.000  C
  C189     1.0000 0.26970  0.33750  0.56120  Biso   1.000  C
  C190     1.0000 0.33890  0.38050  0.60780  Biso   1.000  C
  C191     1.0000 0.17048  0.03526  0.56156  Biso   1.000  C
  C192     1.0000 0.12661  0.06184  0.57437  Biso   1.000  C
  C193     1.0000 0.11370  0.10098  0.54894  Biso   1.000  C
  C194     1.0000 0.23560  0.91990  0.48790  Biso   1.000  C
  C195     1.0000 0.22460  0.86380  0.50320  Biso   1.000  C
  C196     1.0000 0.33890  0.17360  0.51350  Biso   1.000  C
  C197     1.0000 0.33770  0.21880  0.49030  Biso   1.000  C
  C198     1.0000 0.28300  0.21240  0.44960  Biso   1.000  C
  C199     1.0000 0.22370  0.16250  0.43220  Biso   1.000  C
  C200     1.0000 0.22730  0.11950  0.45840  Biso   1.000  C
  C201     1.0000 0.03526  0.06156  0.67048  Biso   1.000  C
  C202     1.0000 0.06184  0.07437  0.62661  Biso   1.000  C
  C203     1.0000 0.10098  0.04894  0.61370  Biso   1.000  C
  C204     1.0000 0.91990  0.98790  0.73560  Biso   1.000  C
  C205     1.0000 0.86380  0.00320  0.72460  Biso   1.000  C
  C206     1.0000 0.17360  0.01350  0.83890  Biso   1.000  C
  C207     1.0000 0.21880  0.99030  0.83770  Biso   1.000  C
  C208     1.0000 0.21240  0.94960  0.78300  Biso   1.000  C
  C209     1.0000 0.16250  0.93220  0.72370  Biso   1.000  C
  C210     1.0000 0.11950  0.95840  0.72730  Biso   1.000  C
  C211     1.0000 0.46474  0.13522  0.02630  Biso   1.000  C
  C212     1.0000 0.43816  0.06477  0.01253  Biso   1.000  C
  C213     1.0000 0.39902  0.01272  0.94796  Biso   1.000  C
  C214     1.0000 0.58010  0.31570  0.06800  Biso   1.000  C
  C215     1.0000 0.63620  0.36080  0.13940  Biso   1.000  C
  C216     1.0000 0.32640  0.16530  0.83990  Biso   1.000  C
  C217     1.0000 0.28120  0.11890  0.77150  Biso   1.000  C
  C218     1.0000 0.28760  0.07060  0.73720  Biso   1.000  C
  C219     1.0000 0.33750  0.06120  0.76970  Biso   1.000  C
  C220     1.0000 0.38050  0.10780  0.83890  Biso   1.000  C
  C221     1.0000 0.60892  0.43844  0.47370  Biso   1.000  C
  C222     1.0000 0.55224  0.42563  0.48747  Biso   1.000  C
  C223     1.0000 0.56476  0.45106  0.55204  Biso   1.000  C
  C224     1.0000 0.74770  0.51210  0.43200  Biso   1.000  C
  C225     1.0000 0.72140  0.49680  0.36060  Biso   1.000  C
  C226     1.0000 0.82540  0.48650  0.66010  Biso   1.000  C
  C227     1.0000 0.84740  0.50970  0.72850  Biso   1.000  C
  C228     1.0000 0.83340  0.55040  0.76280  Biso   1.000  C
  C229     1.0000 0.79150  0.56780  0.73030  Biso   1.000  C
  C230     1.0000 0.76890  0.54160  0.66110  Biso   1.000  C
  C231     1.0000 0.89108  0.36478  0.82952  Biso   1.000  C
  C232     1.0000 0.94776  0.43523  0.87339  Biso   1.000  C
  C233     1.0000 0.93524  0.48728  0.88630  Biso   1.000  C
  C234     1.0000 0.75230  0.18430  0.76440  Biso   1.000  C
  C235     1.0000 0.77860  0.13920  0.77540  Biso   1.000  C
  C236     1.0000 0.67460  0.33470  0.66110  Biso   1.000  C
  C237     1.0000 0.65260  0.38110  0.66230  Biso   1.000  C
  C238     1.0000 0.66660  0.42940  0.71700  Biso   1.000  C
  C239     1.0000 0.70850  0.43880  0.77630  Biso   1.000  C
  C240     1.0000 0.73110  0.39220  0.77270  Biso   1.000  C
  N1       1.0000 0.12744  0.34185  0.62469  Biso   1.000  N
  N2       1.0000 0.21716  0.50275  0.87531  Biso   1.000  N
  N3       1.0000 0.28284  0.15815  0.28559  Biso   1.000  N
  N4       1.0000 0.37256  0.99725  0.21441  Biso   1.000  N
  N5       1.0000 0.78559  0.28284  0.65815  Biso   1.000  N
  N6       1.0000 0.71441  0.37256  0.49725  Biso   1.000  N
  N7       1.0000 0.12469  0.12744  0.84185  Biso   1.000  N
  N8       1.0000 0.37531  0.21716  0.00275  Biso   1.000  N
  N9       1.0000 0.50275  0.37531  0.71716  Biso   1.000  N
  N10      1.0000 0.34185  0.12469  0.62744  Biso   1.000  N
  N11      1.0000 0.99725  0.71441  0.87256  Biso   1.000  N
  N12      1.0000 0.15815  0.78559  0.78284  Biso   1.000  N
  N13      1.0000 0.15815  0.37256  0.87531  Biso   1.000  N
  N14      1.0000 0.99725  0.28284  0.62469  Biso   1.000  N
  N15      1.0000 0.34185  0.21716  0.21441  Biso   1.000  N
  N16      1.0000 0.50275  0.12744  0.28559  Biso   1.000  N
  N17      1.0000 0.21716  0.71441  0.84185  Biso   1.000  N
  N18      1.0000 0.12744  0.78559  0.00275  Biso   1.000  N
  N19      1.0000 0.37256  0.37531  0.65815  Biso   1.000  N
  N20      1.0000 0.28284  0.12469  0.49725  Biso   1.000  N
  N21      1.0000 0.12469  0.99725  0.78284  Biso   1.000  N
  N22      1.0000 0.37531  0.15815  0.87256  Biso   1.000  N
  N23      1.0000 0.78559  0.50275  0.62744  Biso   1.000  N
  N24      1.0000 0.71441  0.34185  0.71716  Biso   1.000  N
  O1       1.0000 0.02262  0.35839  0.55843  Biso   1.000  O
  O2       1.0000 0.91611  0.31909  0.49356  Biso   1.000  O
  O3       1.0000 0.92954  0.21579  0.48043  Biso   1.000  O
  O4       1.0000 0.83350  0.17940  0.35590  Biso   1.000  O
  O5       1.0000 0.29996  0.46419  0.94157  Biso   1.000  O
  O6       1.0000 0.32553  0.42255  0.00644  Biso   1.000  O
  O7       1.0000 0.23536  0.44911  0.01957  Biso   1.000  O
  O8       1.0000 0.32350  0.47760  0.14410  Biso   1.000  O
  O9       1.0000 0.20004  0.14161  0.16423  Biso   1.000  O
  O10      1.0000 0.17447  0.18091  0.09702  Biso   1.000  O
  O11      1.0000 0.26464  0.28421  0.21375  Biso   1.000  O
  O12      1.0000 0.17650  0.32060  0.15410  Biso   1.000  O
  O13      1.0000 0.47738  0.03581  0.33577  Biso   1.000  O
  O14      1.0000 0.58389  0.07745  0.40298  Biso   1.000  O
  O15      1.0000 0.57046  0.05089  0.28625  Biso   1.000  O
  O16      1.0000 0.66650  0.02240  0.34590  Biso   1.000  O
  O17      1.0000 0.66423  0.20004  0.64161  Biso   1.000  O
  O18      1.0000 0.59702  0.17447  0.68091  Biso   1.000  O
  O19      1.0000 0.71375  0.26464  0.78421  Biso   1.000  O
  O20      1.0000 0.65410  0.17650  0.82060  Biso   1.000  O
  O21      1.0000 0.83577  0.47738  0.53581  Biso   1.000  O
  O22      1.0000 0.90298  0.58389  0.57745  Biso   1.000  O
  O23      1.0000 0.78625  0.57046  0.55089  Biso   1.000  O
  O24      1.0000 0.84590  0.66650  0.52240  Biso   1.000  O
  O25      1.0000 0.05843  0.02262  0.85839  Biso   1.000  O
  O26      1.0000 0.99356  0.91611  0.81909  Biso   1.000  O
  O27      1.0000 0.98043  0.92954  0.71579  Biso   1.000  O
  O28      1.0000 0.85590  0.83350  0.67940  Biso   1.000  O
  O29      1.0000 0.44157  0.29996  0.96419  Biso   1.000  O
  O30      1.0000 0.50644  0.32553  0.92255  Biso   1.000  O
  O31      1.0000 0.51957  0.23536  0.94911  Biso   1.000  O
  O32      1.0000 0.64410  0.32350  0.97760  Biso   1.000  O
  O33      1.0000 0.46419  0.44157  0.79996  Biso   1.000  O
  O34      1.0000 0.42255  0.50644  0.82553  Biso   1.000  O
  O35      1.0000 0.44911  0.51957  0.73536  Biso   1.000  O
  O36      1.0000 0.47760  0.64410  0.82350  Biso   1.000  O
  O37      1.0000 0.35839  0.05843  0.52262  Biso   1.000  O
  O38      1.0000 0.31909  0.99356  0.41611  Biso   1.000  O
  O39      1.0000 0.21579  0.98043  0.42954  Biso   1.000  O
  O40      1.0000 0.17940  0.85590  0.33350  Biso   1.000  O
  O41      1.0000 0.03581  0.83577  0.97738  Biso   1.000  O
  O42      1.0000 0.07745  0.90298  0.08389  Biso   1.000  O
  O43      1.0000 0.05089  0.78625  0.07046  Biso   1.000  O
  O44      1.0000 0.02240  0.84590  0.16650  Biso   1.000  O
  O45      1.0000 0.14161  0.66423  0.70004  Biso   1.000  O
  O46      1.0000 0.18091  0.59702  0.67447  Biso   1.000  O
  O47      1.0000 0.28421  0.71375  0.76464  Biso   1.000  O
  O48      1.0000 0.32060  0.65410  0.67650  Biso   1.000  O
  O49      1.0000 0.14161  0.47738  0.94157  Biso   1.000  O
  O50      1.0000 0.18091  0.58389  0.00644  Biso   1.000  O
  O51      1.0000 0.28421  0.57046  0.01957  Biso   1.000  O
  O52      1.0000 0.32060  0.66650  0.14410  Biso   1.000  O
  O53      1.0000 0.03581  0.20004  0.55843  Biso   1.000  O
  O54      1.0000 0.07745  0.17447  0.49356  Biso   1.000  O
  O55      1.0000 0.05089  0.26464  0.48043  Biso   1.000  O
  O56      1.0000 0.02240  0.17650  0.35590  Biso   1.000  O
  O57      1.0000 0.35839  0.29996  0.33577  Biso   1.000  O
  O58      1.0000 0.31909  0.32553  0.40298  Biso   1.000  O
  O59      1.0000 0.21579  0.23536  0.28625  Biso   1.000  O
  O60      1.0000 0.17940  0.32350  0.34590  Biso   1.000  O
  O61      1.0000 0.46419  0.02262  0.16423  Biso   1.000  O
  O62      1.0000 0.42255  0.91611  0.09702  Biso   1.000  O
  O63      1.0000 0.44911  0.92954  0.21375  Biso   1.000  O
  O64      1.0000 0.47760  0.83350  0.15410  Biso   1.000  O
  O65      1.0000 0.29996  0.83577  0.85839  Biso   1.000  O
  O66      1.0000 0.32553  0.90298  0.81909  Biso   1.000  O
  O67      1.0000 0.23536  0.78625  0.71579  Biso   1.000  O
  O68      1.0000 0.32350  0.84590  0.67940  Biso   1.000  O
  O69      1.0000 0.02262  0.66423  0.96419  Biso   1.000  O
  O70      1.0000 0.91611  0.59702  0.92255  Biso   1.000  O
  O71      1.0000 0.92954  0.71375  0.94911  Biso   1.000  O
  O72      1.0000 0.83350  0.65410  0.97760  Biso   1.000  O
  O73      1.0000 0.47738  0.44157  0.64161  Biso   1.000  O
  O74      1.0000 0.58389  0.50644  0.68091  Biso   1.000  O
  O75      1.0000 0.57046  0.51957  0.78421  Biso   1.000  O
  O76      1.0000 0.66650  0.64410  0.82060  Biso   1.000  O
  O77      1.0000 0.20004  0.05843  0.53581  Biso   1.000  O
  O78      1.0000 0.17447  0.99356  0.57745  Biso   1.000  O
  O79      1.0000 0.26464  0.98043  0.55089  Biso   1.000  O
  O80      1.0000 0.17650  0.85590  0.52240  Biso   1.000  O
  O81      1.0000 0.05843  0.03581  0.70004  Biso   1.000  O
  O82      1.0000 0.99356  0.07745  0.67447  Biso   1.000  O
  O83      1.0000 0.98043  0.05089  0.76464  Biso   1.000  O
  O84      1.0000 0.85590  0.02240  0.67650  Biso   1.000  O
  O85      1.0000 0.44157  0.14161  0.97738  Biso   1.000  O
  O86      1.0000 0.50644  0.18091  0.08389  Biso   1.000  O
  O87      1.0000 0.51957  0.28421  0.07046  Biso   1.000  O
  O88      1.0000 0.64410  0.32060  0.16650  Biso   1.000  O
  O89      1.0000 0.66423  0.46419  0.52262  Biso   1.000  O
  O90      1.0000 0.59702  0.42255  0.41611  Biso   1.000  O
  O91      1.0000 0.71375  0.44911  0.42954  Biso   1.000  O
  O92      1.0000 0.65410  0.47760  0.33350  Biso   1.000  O
  O93      1.0000 0.83577  0.35839  0.79996  Biso   1.000  O
  O94      1.0000 0.90298  0.31909  0.82553  Biso   1.000  O
  O95      1.0000 0.78625  0.21579  0.73536  Biso   1.000  O
  O96      1.0000 0.84590  0.17940  0.82350  Biso   1.000  O
