data_image0
_cell_length_a       17.108
_cell_length_b       21.644
_cell_length_c       25.258
_cell_angle_alpha    90
_cell_angle_beta     90
_cell_angle_gamma    90

_symmetry_space_group_name_H-M    P 1
_symmetry_int_tables_number       1

loop_
  _symmetry_equiv_pos_as_xyz
  'x, y, z'

loop_
  _atom_site_label
  _atom_site_occupancy
  _atom_site_fract_x
  _atom_site_fract_y
  _atom_site_fract_z
  _atom_site_thermal_displace_type
  _atom_site_B_iso_or_equiv
  _atom_site_type_symbol
  Na1      1.0000 0.89610  0.25000  0.71060  Biso   1.000  Na
  Na2      1.0000 0.60390  0.75000  0.21060  Biso   1.000  Na
  Na3      1.0000 0.78480  0.75000  0.26510  Biso   1.000  Na
  Na4      1.0000 0.71520  0.25000  0.76510  Biso   1.000  Na
  Zn1      1.0000 0.99284  0.83462  0.38424  Biso   1.000  Zn
  Zn2      1.0000 0.50716  0.16538  0.88424  Biso   1.000  Zn
  Zn3      1.0000 0.99284  0.66538  0.38424  Biso   1.000  Zn
  Zn4      1.0000 0.50716  0.33462  0.88424  Biso   1.000  Zn
  Zn5      1.0000 0.88078  0.75000  0.31365  Biso   1.000  Zn
  Zn6      1.0000 0.61922  0.25000  0.81365  Biso   1.000  Zn
  H1       1.0000 0.85200  0.37890  0.68590  Biso   1.000  H
  H2       1.0000 0.81440  0.53080  0.69390  Biso   1.000  H
  H3       1.0000 0.73660  0.51120  0.66570  Biso   1.000  H
  H4       1.0000 0.81630  0.48170  0.64830  Biso   1.000  H
  H5       1.0000 0.71630  0.43220  0.78270  Biso   1.000  H
  H6       1.0000 0.70200  0.49660  0.75600  Biso   1.000  H
  H7       1.0000 0.77980  0.48410  0.78710  Biso   1.000  H
  H8       1.0000 0.64800  0.62110  0.18590  Biso   1.000  H
  H9       1.0000 0.68560  0.46920  0.19390  Biso   1.000  H
  H10      1.0000 0.76340  0.48880  0.16570  Biso   1.000  H
  H11      1.0000 0.68370  0.51830  0.14830  Biso   1.000  H
  H12      1.0000 0.78370  0.56780  0.28270  Biso   1.000  H
  H13      1.0000 0.79800  0.50340  0.25600  Biso   1.000  H
  H14      1.0000 0.72020  0.51590  0.28710  Biso   1.000  H
  H15      1.0000 0.88320  0.04000  0.07680  Biso   1.000  H
  H16      1.0000 0.02400  0.12220  0.97190  Biso   1.000  H
  H17      1.0000 0.11600  0.03400  0.09590  Biso   1.000  H
  H18      1.0000 0.89810  0.94050  0.11400  Biso   1.000  H
  H19      1.0000 0.88720  0.87470  0.18400  Biso   1.000  H
  H20      1.0000 0.06110  0.96230  0.25820  Biso   1.000  H
  H21      1.0000 0.07160  0.02880  0.18710  Biso   1.000  H
  H22      1.0000 0.79890  0.11420  0.05290  Biso   1.000  H
  H23      1.0000 0.68730  0.13990  0.00770  Biso   1.000  H
  H24      1.0000 0.80960  0.13800  0.87230  Biso   1.000  H
  H25      1.0000 0.91960  0.10670  0.91680  Biso   1.000  H
  H26      1.0000 0.14950  0.17360  0.97950  Biso   1.000  H
  H27      1.0000 0.27350  0.18440  0.94160  Biso   1.000  H
  H28      1.0000 0.32940  0.01420  0.98920  Biso   1.000  H
  H29      1.0000 0.20720  0.00590  0.02940  Biso   1.000  H
  H30      1.0000 0.61680  0.96000  0.57680  Biso   1.000  H
  H31      1.0000 0.47600  0.87780  0.47190  Biso   1.000  H
  H32      1.0000 0.38400  0.96600  0.59590  Biso   1.000  H
  H33      1.0000 0.60190  0.05950  0.61400  Biso   1.000  H
  H34      1.0000 0.61280  0.12530  0.68400  Biso   1.000  H
  H35      1.0000 0.43890  0.03770  0.75820  Biso   1.000  H
  H36      1.0000 0.42840  0.97120  0.68710  Biso   1.000  H
  H37      1.0000 0.70110  0.88580  0.55290  Biso   1.000  H
  H38      1.0000 0.81270  0.86010  0.50770  Biso   1.000  H
  H39      1.0000 0.69040  0.86200  0.37230  Biso   1.000  H
  H40      1.0000 0.58040  0.89330  0.41680  Biso   1.000  H
  H41      1.0000 0.35050  0.82640  0.47950  Biso   1.000  H
  H42      1.0000 0.22650  0.81560  0.44160  Biso   1.000  H
  H43      1.0000 0.17060  0.98580  0.48920  Biso   1.000  H
  H44      1.0000 0.29280  0.99410  0.52940  Biso   1.000  H
  H45      1.0000 0.88320  0.46000  0.07680  Biso   1.000  H
  H46      1.0000 0.02400  0.37780  0.97190  Biso   1.000  H
  H47      1.0000 0.11600  0.46600  0.09590  Biso   1.000  H
  H48      1.0000 0.89810  0.55950  0.11400  Biso   1.000  H
  H49      1.0000 0.88720  0.62530  0.18400  Biso   1.000  H
  H50      1.0000 0.06110  0.53770  0.25820  Biso   1.000  H
  H51      1.0000 0.07160  0.47120  0.18710  Biso   1.000  H
  H52      1.0000 0.79890  0.38580  0.05290  Biso   1.000  H
  H53      1.0000 0.68730  0.36010  0.00770  Biso   1.000  H
  H54      1.0000 0.80960  0.36200  0.87230  Biso   1.000  H
  H55      1.0000 0.91960  0.39330  0.91680  Biso   1.000  H
  H56      1.0000 0.14950  0.32640  0.97950  Biso   1.000  H
  H57      1.0000 0.27350  0.31560  0.94160  Biso   1.000  H
  H58      1.0000 0.32940  0.48580  0.98920  Biso   1.000  H
  H59      1.0000 0.20720  0.49410  0.02940  Biso   1.000  H
  H60      1.0000 0.61680  0.54000  0.57680  Biso   1.000  H
  H61      1.0000 0.47600  0.62220  0.47190  Biso   1.000  H
  H62      1.0000 0.38400  0.53400  0.59590  Biso   1.000  H
  H63      1.0000 0.60190  0.44050  0.61400  Biso   1.000  H
  H64      1.0000 0.61280  0.37470  0.68400  Biso   1.000  H
  H65      1.0000 0.43890  0.46230  0.75820  Biso   1.000  H
  H66      1.0000 0.42840  0.52880  0.68710  Biso   1.000  H
  H67      1.0000 0.70110  0.61420  0.55290  Biso   1.000  H
  H68      1.0000 0.81270  0.63990  0.50770  Biso   1.000  H
  H69      1.0000 0.69040  0.63800  0.37230  Biso   1.000  H
  H70      1.0000 0.58040  0.60670  0.41680  Biso   1.000  H
  H71      1.0000 0.35050  0.67360  0.47950  Biso   1.000  H
  H72      1.0000 0.22650  0.68440  0.44160  Biso   1.000  H
  H73      1.0000 0.17060  0.51420  0.48920  Biso   1.000  H
  H74      1.0000 0.29280  0.50590  0.52940  Biso   1.000  H
  H75      1.0000 0.85200  0.12110  0.68590  Biso   1.000  H
  H76      1.0000 0.81440  0.96920  0.69390  Biso   1.000  H
  H77      1.0000 0.73660  0.98880  0.66570  Biso   1.000  H
  H78      1.0000 0.81630  0.01830  0.64830  Biso   1.000  H
  H79      1.0000 0.71630  0.06780  0.78270  Biso   1.000  H
  H80      1.0000 0.70200  0.00340  0.75600  Biso   1.000  H
  H81      1.0000 0.77980  0.01590  0.78710  Biso   1.000  H
  H82      1.0000 0.64800  0.87890  0.18590  Biso   1.000  H
  H83      1.0000 0.68560  0.03080  0.19390  Biso   1.000  H
  H84      1.0000 0.76340  0.01120  0.16570  Biso   1.000  H
  H85      1.0000 0.68370  0.98170  0.14830  Biso   1.000  H
  H86      1.0000 0.78370  0.93220  0.28270  Biso   1.000  H
  H87      1.0000 0.79800  0.99660  0.25600  Biso   1.000  H
  H88      1.0000 0.72020  0.98410  0.28710  Biso   1.000  H
  C1       1.0000 0.80920  0.37990  0.70900  Biso   1.000  C
  C2       1.0000 0.78700  0.49700  0.67800  Biso   1.000  C
  C3       1.0000 0.74070  0.46600  0.76460  Biso   1.000  C
  C4       1.0000 0.69080  0.62010  0.20900  Biso   1.000  C
  C5       1.0000 0.71300  0.50300  0.17800  Biso   1.000  C
  C6       1.0000 0.75930  0.53400  0.26460  Biso   1.000  C
  C7       1.0000 0.99860  0.02950  0.09450  Biso   1.000  C
  C8       1.0000 0.93340  0.04990  0.06540  Biso   1.000  C
  C9       1.0000 0.94310  0.08440  0.02000  Biso   1.000  C
  C10      1.0000 0.01780  0.09830  0.00220  Biso   1.000  C
  C11      1.0000 0.08280  0.07730  0.02860  Biso   1.000  C
  C12      1.0000 0.07230  0.04510  0.07620  Biso   1.000  C
  C13      1.0000 0.98790  0.98880  0.14130  Biso   1.000  C
  C14      1.0000 0.93200  0.94470  0.14250  Biso   1.000  C
  C15      1.0000 0.92450  0.90600  0.18490  Biso   1.000  C
  C16      1.0000 0.97140  0.91250  0.22920  Biso   1.000  C
  C17      1.0000 0.02800  0.95790  0.22930  Biso   1.000  C
  C18      1.0000 0.03520  0.99700  0.18630  Biso   1.000  C
  C19      1.0000 0.87270  0.10720  0.99080  Biso   1.000  C
  C20      1.0000 0.80110  0.11820  0.01630  Biso   1.000  C
  C21      1.0000 0.73420  0.13470  0.98970  Biso   1.000  C
  C22      1.0000 0.73810  0.14350  0.93430  Biso   1.000  C
  C23      1.0000 0.80730  0.13270  0.90880  Biso   1.000  C
  C24      1.0000 0.87380  0.11440  0.93550  Biso   1.000  C
  C25      1.0000 0.16340  0.08830  0.00660  Biso   1.000  C
  C26      1.0000 0.18500  0.14120  0.98190  Biso   1.000  C
  C27      1.0000 0.26070  0.14830  0.95950  Biso   1.000  C
  C28      1.0000 0.31390  0.10280  0.96420  Biso   1.000  C
  C29      1.0000 0.29420  0.04700  0.98830  Biso   1.000  C
  C30      1.0000 0.21970  0.04170  0.01090  Biso   1.000  C
  C31      1.0000 0.96270  0.86860  0.27540  Biso   1.000  C
  C32      1.0000 0.66540  0.16170  0.90540  Biso   1.000  C
  C33      1.0000 0.39540  0.11070  0.93900  Biso   1.000  C
  C34      1.0000 0.50140  0.97050  0.59450  Biso   1.000  C
  C35      1.0000 0.56660  0.95010  0.56540  Biso   1.000  C
  C36      1.0000 0.55690  0.91560  0.52000  Biso   1.000  C
  C37      1.0000 0.48220  0.90170  0.50220  Biso   1.000  C
  C38      1.0000 0.41720  0.92270  0.52860  Biso   1.000  C
  C39      1.0000 0.42770  0.95490  0.57620  Biso   1.000  C
  C40      1.0000 0.51210  0.01120  0.64130  Biso   1.000  C
  C41      1.0000 0.56800  0.05530  0.64250  Biso   1.000  C
  C42      1.0000 0.57550  0.09400  0.68490  Biso   1.000  C
  C43      1.0000 0.52860  0.08750  0.72920  Biso   1.000  C
  C44      1.0000 0.47200  0.04210  0.72930  Biso   1.000  C
  C45      1.0000 0.46480  0.00300  0.68630  Biso   1.000  C
  C46      1.0000 0.62730  0.89280  0.49080  Biso   1.000  C
  C47      1.0000 0.69890  0.88180  0.51630  Biso   1.000  C
  C48      1.0000 0.76580  0.86530  0.48970  Biso   1.000  C
  C49      1.0000 0.76190  0.85650  0.43430  Biso   1.000  C
  C50      1.0000 0.69270  0.86730  0.40880  Biso   1.000  C
  C51      1.0000 0.62620  0.88560  0.43550  Biso   1.000  C
  C52      1.0000 0.33660  0.91170  0.50660  Biso   1.000  C
  C53      1.0000 0.31500  0.85880  0.48190  Biso   1.000  C
  C54      1.0000 0.23930  0.85170  0.45950  Biso   1.000  C
  C55      1.0000 0.18610  0.89720  0.46420  Biso   1.000  C
  C56      1.0000 0.20580  0.95300  0.48830  Biso   1.000  C
  C57      1.0000 0.28030  0.95830  0.51090  Biso   1.000  C
  C58      1.0000 0.53730  0.13140  0.77540  Biso   1.000  C
  C59      1.0000 0.83460  0.83830  0.40540  Biso   1.000  C
  C60      1.0000 0.10460  0.88930  0.43900  Biso   1.000  C
  C61      1.0000 0.99860  0.47050  0.09450  Biso   1.000  C
  C62      1.0000 0.93340  0.45010  0.06540  Biso   1.000  C
  C63      1.0000 0.94310  0.41560  0.02000  Biso   1.000  C
  C64      1.0000 0.01780  0.40170  0.00220  Biso   1.000  C
  C65      1.0000 0.08280  0.42270  0.02860  Biso   1.000  C
  C66      1.0000 0.07230  0.45490  0.07620  Biso   1.000  C
  C67      1.0000 0.98790  0.51120  0.14130  Biso   1.000  C
  C68      1.0000 0.93200  0.55530  0.14250  Biso   1.000  C
  C69      1.0000 0.92450  0.59400  0.18490  Biso   1.000  C
  C70      1.0000 0.97140  0.58750  0.22920  Biso   1.000  C
  C71      1.0000 0.02800  0.54210  0.22930  Biso   1.000  C
  C72      1.0000 0.03520  0.50300  0.18630  Biso   1.000  C
  C73      1.0000 0.87270  0.39280  0.99080  Biso   1.000  C
  C74      1.0000 0.80110  0.38180  0.01630  Biso   1.000  C
  C75      1.0000 0.73420  0.36530  0.98970  Biso   1.000  C
  C76      1.0000 0.73810  0.35650  0.93430  Biso   1.000  C
  C77      1.0000 0.80730  0.36730  0.90880  Biso   1.000  C
  C78      1.0000 0.87380  0.38560  0.93550  Biso   1.000  C
  C79      1.0000 0.16340  0.41170  0.00660  Biso   1.000  C
  C80      1.0000 0.18500  0.35880  0.98190  Biso   1.000  C
  C81      1.0000 0.26070  0.35170  0.95950  Biso   1.000  C
  C82      1.0000 0.31390  0.39720  0.96420  Biso   1.000  C
  C83      1.0000 0.29420  0.45300  0.98830  Biso   1.000  C
  C84      1.0000 0.21970  0.45830  0.01090  Biso   1.000  C
  C85      1.0000 0.96270  0.63140  0.27540  Biso   1.000  C
  C86      1.0000 0.66540  0.33830  0.90540  Biso   1.000  C
  C87      1.0000 0.39540  0.38930  0.93900  Biso   1.000  C
  C88      1.0000 0.50140  0.52950  0.59450  Biso   1.000  C
  C89      1.0000 0.56660  0.54990  0.56540  Biso   1.000  C
  C90      1.0000 0.55690  0.58440  0.52000  Biso   1.000  C
  C91      1.0000 0.48220  0.59830  0.50220  Biso   1.000  C
  C92      1.0000 0.41720  0.57730  0.52860  Biso   1.000  C
  C93      1.0000 0.42770  0.54510  0.57620  Biso   1.000  C
  C94      1.0000 0.51210  0.48880  0.64130  Biso   1.000  C
  C95      1.0000 0.56800  0.44470  0.64250  Biso   1.000  C
  C96      1.0000 0.57550  0.40600  0.68490  Biso   1.000  C
  C97      1.0000 0.52860  0.41250  0.72920  Biso   1.000  C
  C98      1.0000 0.47200  0.45790  0.72930  Biso   1.000  C
  C99      1.0000 0.46480  0.49700  0.68630  Biso   1.000  C
  C100     1.0000 0.62730  0.60720  0.49080  Biso   1.000  C
  C101     1.0000 0.69890  0.61820  0.51630  Biso   1.000  C
  C102     1.0000 0.76580  0.63470  0.48970  Biso   1.000  C
  C103     1.0000 0.76190  0.64350  0.43430  Biso   1.000  C
  C104     1.0000 0.69270  0.63270  0.40880  Biso   1.000  C
  C105     1.0000 0.62620  0.61440  0.43550  Biso   1.000  C
  C106     1.0000 0.33660  0.58830  0.50660  Biso   1.000  C
  C107     1.0000 0.31500  0.64120  0.48190  Biso   1.000  C
  C108     1.0000 0.23930  0.64830  0.45950  Biso   1.000  C
  C109     1.0000 0.18610  0.60280  0.46420  Biso   1.000  C
  C110     1.0000 0.20580  0.54700  0.48830  Biso   1.000  C
  C111     1.0000 0.28030  0.54170  0.51090  Biso   1.000  C
  C112     1.0000 0.53730  0.36860  0.77540  Biso   1.000  C
  C113     1.0000 0.83460  0.66170  0.40540  Biso   1.000  C
  C114     1.0000 0.10460  0.61070  0.43900  Biso   1.000  C
  C115     1.0000 0.80920  0.12010  0.70900  Biso   1.000  C
  C116     1.0000 0.78700  0.00300  0.67800  Biso   1.000  C
  C117     1.0000 0.74070  0.03400  0.76460  Biso   1.000  C
  C118     1.0000 0.69080  0.87990  0.20900  Biso   1.000  C
  C119     1.0000 0.71300  0.99700  0.17800  Biso   1.000  C
  C120     1.0000 0.75930  0.96600  0.26460  Biso   1.000  C
  N1       1.0000 0.77540  0.44500  0.71860  Biso   1.000  N
  N2       1.0000 0.72460  0.55500  0.21860  Biso   1.000  N
  N3       1.0000 0.77540  0.05500  0.71860  Biso   1.000  N
  N4       1.0000 0.72460  0.94500  0.21860  Biso   1.000  N
  O1       1.0000 0.79100  0.33400  0.72400  Biso   1.000  O
  O2       1.0000 0.70900  0.66600  0.22400  Biso   1.000  O
  O3       1.0000 0.99460  0.88430  0.31900  Biso   1.000  O
  O4       1.0000 0.92630  0.81920  0.26660  Biso   1.000  O
  O5       1.0000 0.44120  0.06570  0.94020  Biso   1.000  O
  O6       1.0000 0.40780  0.15950  0.91900  Biso   1.000  O
  O7       1.0000 0.67540  0.18270  0.85970  Biso   1.000  O
  O8       1.0000 0.60090  0.15410  0.92800  Biso   1.000  O
  O9       1.0000 0.50540  0.11570  0.81900  Biso   1.000  O
  O10      1.0000 0.57370  0.18080  0.76660  Biso   1.000  O
  O11      1.0000 0.05880  0.93430  0.44020  Biso   1.000  O
  O12      1.0000 0.09220  0.84050  0.41900  Biso   1.000  O
  O13      1.0000 0.82460  0.81730  0.35970  Biso   1.000  O
  O14      1.0000 0.89910  0.84590  0.42800  Biso   1.000  O
  O15      1.0000 0.99460  0.61570  0.31900  Biso   1.000  O
  O16      1.0000 0.92630  0.68080  0.26660  Biso   1.000  O
  O17      1.0000 0.44120  0.43430  0.94020  Biso   1.000  O
  O18      1.0000 0.40780  0.34050  0.91900  Biso   1.000  O
  O19      1.0000 0.67540  0.31730  0.85970  Biso   1.000  O
  O20      1.0000 0.60090  0.34590  0.92800  Biso   1.000  O
  O21      1.0000 0.50540  0.38430  0.81900  Biso   1.000  O
  O22      1.0000 0.57370  0.31920  0.76660  Biso   1.000  O
  O23      1.0000 0.05880  0.56570  0.44020  Biso   1.000  O
  O24      1.0000 0.09220  0.65950  0.41900  Biso   1.000  O
  O25      1.0000 0.82460  0.68270  0.35970  Biso   1.000  O
  O26      1.0000 0.89910  0.65410  0.42800  Biso   1.000  O
  O27      1.0000 0.79100  0.16600  0.72400  Biso   1.000  O
  O28      1.0000 0.70900  0.83400  0.22400  Biso   1.000  O
  O29      1.0000 0.98530  0.75000  0.35590  Biso   1.000  O
  O30      1.0000 0.51470  0.25000  0.85590  Biso   1.000  O
  Na5      1.0000 0.21520  0.25000  0.73490  Biso   1.000  Na
  Na6      1.0000 0.28480  0.75000  0.23490  Biso   1.000  Na
  Na7      1.0000 0.10390  0.75000  0.28940  Biso   1.000  Na
  Na8      1.0000 0.39610  0.25000  0.78940  Biso   1.000  Na
  Zn7      1.0000 0.00716  0.33462  0.61576  Biso   1.000  Zn
  Zn8      1.0000 0.49284  0.66538  0.11576  Biso   1.000  Zn
  Zn9      1.0000 0.00716  0.16538  0.61576  Biso   1.000  Zn
  Zn10     1.0000 0.49284  0.83462  0.11576  Biso   1.000  Zn
  Zn11     1.0000 0.11922  0.25000  0.68635  Biso   1.000  Zn
  Zn12     1.0000 0.38078  0.75000  0.18635  Biso   1.000  Zn
  H89      1.0000 0.11680  0.54000  0.92320  Biso   1.000  H
  H90      1.0000 0.97600  0.62220  0.02810  Biso   1.000  H
  H91      1.0000 0.88400  0.53400  0.90410  Biso   1.000  H
  H92      1.0000 0.10190  0.44050  0.88600  Biso   1.000  H
  H93      1.0000 0.11280  0.37470  0.81600  Biso   1.000  H
  H94      1.0000 0.93890  0.46230  0.74180  Biso   1.000  H
  H95      1.0000 0.92840  0.52880  0.81290  Biso   1.000  H
  H96      1.0000 0.20110  0.61420  0.94710  Biso   1.000  H
  H97      1.0000 0.31270  0.63990  0.99230  Biso   1.000  H
  H98      1.0000 0.19040  0.63800  0.12770  Biso   1.000  H
  H99      1.0000 0.08040  0.60670  0.08320  Biso   1.000  H
  H100     1.0000 0.85050  0.67360  0.02050  Biso   1.000  H
  H101     1.0000 0.72650  0.68440  0.05840  Biso   1.000  H
  H102     1.0000 0.67060  0.51420  0.01080  Biso   1.000  H
  H103     1.0000 0.79280  0.50590  0.97060  Biso   1.000  H
  H104     1.0000 0.38320  0.46000  0.42320  Biso   1.000  H
  H105     1.0000 0.52400  0.37780  0.52810  Biso   1.000  H
  H106     1.0000 0.61600  0.46600  0.40410  Biso   1.000  H
  H107     1.0000 0.39810  0.55950  0.38600  Biso   1.000  H
  H108     1.0000 0.38720  0.62530  0.31600  Biso   1.000  H
  H109     1.0000 0.56110  0.53770  0.24180  Biso   1.000  H
  H110     1.0000 0.57160  0.47120  0.31290  Biso   1.000  H
  H111     1.0000 0.29890  0.38580  0.44710  Biso   1.000  H
  H112     1.0000 0.18730  0.36010  0.49230  Biso   1.000  H
  H113     1.0000 0.30960  0.36200  0.62770  Biso   1.000  H
  H114     1.0000 0.41960  0.39330  0.58320  Biso   1.000  H
  H115     1.0000 0.64950  0.32640  0.52050  Biso   1.000  H
  H116     1.0000 0.77350  0.31560  0.55840  Biso   1.000  H
  H117     1.0000 0.82940  0.48580  0.51080  Biso   1.000  H
  H118     1.0000 0.70720  0.49410  0.47060  Biso   1.000  H
  H119     1.0000 0.14800  0.87890  0.31410  Biso   1.000  H
  H120     1.0000 0.18560  0.03080  0.30610  Biso   1.000  H
  H121     1.0000 0.26340  0.01120  0.33430  Biso   1.000  H
  H122     1.0000 0.18370  0.98170  0.35170  Biso   1.000  H
  H123     1.0000 0.28370  0.93220  0.21730  Biso   1.000  H
  H124     1.0000 0.29800  0.99660  0.24400  Biso   1.000  H
  H125     1.0000 0.22020  0.98410  0.21290  Biso   1.000  H
  H126     1.0000 0.35200  0.12110  0.81410  Biso   1.000  H
  H127     1.0000 0.31440  0.96920  0.80610  Biso   1.000  H
  H128     1.0000 0.23660  0.98880  0.83430  Biso   1.000  H
  H129     1.0000 0.31630  0.01830  0.85170  Biso   1.000  H
  H130     1.0000 0.21630  0.06780  0.71730  Biso   1.000  H
  H131     1.0000 0.20200  0.00340  0.74400  Biso   1.000  H
  H132     1.0000 0.27980  0.01590  0.71290  Biso   1.000  H
  H133     1.0000 0.14800  0.62110  0.31410  Biso   1.000  H
  H134     1.0000 0.18560  0.46920  0.30610  Biso   1.000  H
  H135     1.0000 0.26340  0.48880  0.33430  Biso   1.000  H
  H136     1.0000 0.18370  0.51830  0.35170  Biso   1.000  H
  H137     1.0000 0.28370  0.56780  0.21730  Biso   1.000  H
  H138     1.0000 0.29800  0.50340  0.24400  Biso   1.000  H
  H139     1.0000 0.22020  0.51590  0.21290  Biso   1.000  H
  H140     1.0000 0.35200  0.37890  0.81410  Biso   1.000  H
  H141     1.0000 0.31440  0.53080  0.80610  Biso   1.000  H
  H142     1.0000 0.23660  0.51120  0.83430  Biso   1.000  H
  H143     1.0000 0.31630  0.48170  0.85170  Biso   1.000  H
  H144     1.0000 0.21630  0.43220  0.71730  Biso   1.000  H
  H145     1.0000 0.20200  0.49660  0.74400  Biso   1.000  H
  H146     1.0000 0.27980  0.48410  0.71290  Biso   1.000  H
  H147     1.0000 0.11680  0.96000  0.92320  Biso   1.000  H
  H148     1.0000 0.97600  0.87780  0.02810  Biso   1.000  H
  H149     1.0000 0.88400  0.96600  0.90410  Biso   1.000  H
  H150     1.0000 0.10190  0.05950  0.88600  Biso   1.000  H
  H151     1.0000 0.11280  0.12530  0.81600  Biso   1.000  H
  H152     1.0000 0.93890  0.03770  0.74180  Biso   1.000  H
  H153     1.0000 0.92840  0.97120  0.81290  Biso   1.000  H
  H154     1.0000 0.20110  0.88580  0.94710  Biso   1.000  H
  H155     1.0000 0.31270  0.86010  0.99230  Biso   1.000  H
  H156     1.0000 0.19040  0.86200  0.12770  Biso   1.000  H
  H157     1.0000 0.08040  0.89330  0.08320  Biso   1.000  H
  H158     1.0000 0.85050  0.82640  0.02050  Biso   1.000  H
  H159     1.0000 0.72650  0.81560  0.05840  Biso   1.000  H
  H160     1.0000 0.67060  0.98580  0.01080  Biso   1.000  H
  H161     1.0000 0.79280  0.99410  0.97060  Biso   1.000  H
  H162     1.0000 0.38320  0.04000  0.42320  Biso   1.000  H
  H163     1.0000 0.52400  0.12220  0.52810  Biso   1.000  H
  H164     1.0000 0.61600  0.03400  0.40410  Biso   1.000  H
  H165     1.0000 0.39810  0.94050  0.38600  Biso   1.000  H
  H166     1.0000 0.38720  0.87470  0.31600  Biso   1.000  H
  H167     1.0000 0.56110  0.96230  0.24180  Biso   1.000  H
  H168     1.0000 0.57160  0.02880  0.31290  Biso   1.000  H
  H169     1.0000 0.29890  0.11420  0.44710  Biso   1.000  H
  H170     1.0000 0.18730  0.13990  0.49230  Biso   1.000  H
  H171     1.0000 0.30960  0.13800  0.62770  Biso   1.000  H
  H172     1.0000 0.41960  0.10670  0.58320  Biso   1.000  H
  H173     1.0000 0.64950  0.17360  0.52050  Biso   1.000  H
  H174     1.0000 0.77350  0.18440  0.55840  Biso   1.000  H
  H175     1.0000 0.82940  0.01420  0.51080  Biso   1.000  H
  H176     1.0000 0.70720  0.00590  0.47060  Biso   1.000  H
  C121     1.0000 0.00140  0.52950  0.90550  Biso   1.000  C
  C122     1.0000 0.06660  0.54990  0.93460  Biso   1.000  C
  C123     1.0000 0.05690  0.58440  0.98000  Biso   1.000  C
  C124     1.0000 0.98220  0.59830  0.99780  Biso   1.000  C
  C125     1.0000 0.91720  0.57730  0.97140  Biso   1.000  C
  C126     1.0000 0.92770  0.54510  0.92380  Biso   1.000  C
  C127     1.0000 0.01210  0.48880  0.85870  Biso   1.000  C
  C128     1.0000 0.06800  0.44470  0.85750  Biso   1.000  C
  C129     1.0000 0.07550  0.40600  0.81510  Biso   1.000  C
  C130     1.0000 0.02860  0.41250  0.77080  Biso   1.000  C
  C131     1.0000 0.97200  0.45790  0.77070  Biso   1.000  C
  C132     1.0000 0.96480  0.49700  0.81370  Biso   1.000  C
  C133     1.0000 0.12730  0.60720  0.00920  Biso   1.000  C
  C134     1.0000 0.19890  0.61820  0.98370  Biso   1.000  C
  C135     1.0000 0.26580  0.63470  0.01030  Biso   1.000  C
  C136     1.0000 0.26190  0.64350  0.06570  Biso   1.000  C
  C137     1.0000 0.19270  0.63270  0.09120  Biso   1.000  C
  C138     1.0000 0.12620  0.61440  0.06450  Biso   1.000  C
  C139     1.0000 0.83660  0.58830  0.99340  Biso   1.000  C
  C140     1.0000 0.81500  0.64120  0.01810  Biso   1.000  C
  C141     1.0000 0.73930  0.64830  0.04050  Biso   1.000  C
  C142     1.0000 0.68610  0.60280  0.03580  Biso   1.000  C
  C143     1.0000 0.70580  0.54700  0.01170  Biso   1.000  C
  C144     1.0000 0.78030  0.54170  0.98910  Biso   1.000  C
  C145     1.0000 0.03730  0.36860  0.72460  Biso   1.000  C
  C146     1.0000 0.33460  0.66170  0.09460  Biso   1.000  C
  C147     1.0000 0.60460  0.61070  0.06100  Biso   1.000  C
  C148     1.0000 0.49860  0.47050  0.40550  Biso   1.000  C
  C149     1.0000 0.43340  0.45010  0.43460  Biso   1.000  C
  C150     1.0000 0.44310  0.41560  0.48000  Biso   1.000  C
  C151     1.0000 0.51780  0.40170  0.49780  Biso   1.000  C
  C152     1.0000 0.58280  0.42270  0.47140  Biso   1.000  C
  C153     1.0000 0.57230  0.45490  0.42380  Biso   1.000  C
  C154     1.0000 0.48790  0.51120  0.35870  Biso   1.000  C
  C155     1.0000 0.43200  0.55530  0.35750  Biso   1.000  C
  C156     1.0000 0.42450  0.59400  0.31510  Biso   1.000  C
  C157     1.0000 0.47140  0.58750  0.27080  Biso   1.000  C
  C158     1.0000 0.52800  0.54210  0.27070  Biso   1.000  C
  C159     1.0000 0.53520  0.50300  0.31370  Biso   1.000  C
  C160     1.0000 0.37270  0.39280  0.50920  Biso   1.000  C
  C161     1.0000 0.30110  0.38180  0.48370  Biso   1.000  C
  C162     1.0000 0.23420  0.36530  0.51030  Biso   1.000  C
  C163     1.0000 0.23810  0.35650  0.56570  Biso   1.000  C
  C164     1.0000 0.30730  0.36730  0.59120  Biso   1.000  C
  C165     1.0000 0.37380  0.38560  0.56450  Biso   1.000  C
  C166     1.0000 0.66340  0.41170  0.49340  Biso   1.000  C
  C167     1.0000 0.68500  0.35880  0.51810  Biso   1.000  C
  C168     1.0000 0.76070  0.35170  0.54050  Biso   1.000  C
  C169     1.0000 0.81390  0.39720  0.53580  Biso   1.000  C
  C170     1.0000 0.79420  0.45300  0.51170  Biso   1.000  C
  C171     1.0000 0.71970  0.45830  0.48910  Biso   1.000  C
  C172     1.0000 0.46270  0.63140  0.22460  Biso   1.000  C
  C173     1.0000 0.16540  0.33830  0.59460  Biso   1.000  C
  C174     1.0000 0.89540  0.38930  0.56100  Biso   1.000  C
  C175     1.0000 0.19080  0.87990  0.29100  Biso   1.000  C
  C176     1.0000 0.21300  0.99700  0.32200  Biso   1.000  C
  C177     1.0000 0.25930  0.96600  0.23540  Biso   1.000  C
  C178     1.0000 0.30920  0.12010  0.79100  Biso   1.000  C
  C179     1.0000 0.28700  0.00300  0.82200  Biso   1.000  C
  C180     1.0000 0.24070  0.03400  0.73540  Biso   1.000  C
  C181     1.0000 0.19080  0.62010  0.29100  Biso   1.000  C
  C182     1.0000 0.21300  0.50300  0.32200  Biso   1.000  C
  C183     1.0000 0.25930  0.53400  0.23540  Biso   1.000  C
  C184     1.0000 0.30920  0.37990  0.79100  Biso   1.000  C
  C185     1.0000 0.28700  0.49700  0.82200  Biso   1.000  C
  C186     1.0000 0.24070  0.46600  0.73540  Biso   1.000  C
  C187     1.0000 0.00140  0.97050  0.90550  Biso   1.000  C
  C188     1.0000 0.06660  0.95010  0.93460  Biso   1.000  C
  C189     1.0000 0.05690  0.91560  0.98000  Biso   1.000  C
  C190     1.0000 0.98220  0.90170  0.99780  Biso   1.000  C
  C191     1.0000 0.91720  0.92270  0.97140  Biso   1.000  C
  C192     1.0000 0.92770  0.95490  0.92380  Biso   1.000  C
  C193     1.0000 0.01210  0.01120  0.85870  Biso   1.000  C
  C194     1.0000 0.06800  0.05530  0.85750  Biso   1.000  C
  C195     1.0000 0.07550  0.09400  0.81510  Biso   1.000  C
  C196     1.0000 0.02860  0.08750  0.77080  Biso   1.000  C
  C197     1.0000 0.97200  0.04210  0.77070  Biso   1.000  C
  C198     1.0000 0.96480  0.00300  0.81370  Biso   1.000  C
  C199     1.0000 0.12730  0.89280  0.00920  Biso   1.000  C
  C200     1.0000 0.19890  0.88180  0.98370  Biso   1.000  C
  C201     1.0000 0.26580  0.86530  0.01030  Biso   1.000  C
  C202     1.0000 0.26190  0.85650  0.06570  Biso   1.000  C
  C203     1.0000 0.19270  0.86730  0.09120  Biso   1.000  C
  C204     1.0000 0.12620  0.88560  0.06450  Biso   1.000  C
  C205     1.0000 0.83660  0.91170  0.99340  Biso   1.000  C
  C206     1.0000 0.81500  0.85880  0.01810  Biso   1.000  C
  C207     1.0000 0.73930  0.85170  0.04050  Biso   1.000  C
  C208     1.0000 0.68610  0.89720  0.03580  Biso   1.000  C
  C209     1.0000 0.70580  0.95300  0.01170  Biso   1.000  C
  C210     1.0000 0.78030  0.95830  0.98910  Biso   1.000  C
  C211     1.0000 0.03730  0.13140  0.72460  Biso   1.000  C
  C212     1.0000 0.33460  0.83830  0.09460  Biso   1.000  C
  C213     1.0000 0.60460  0.88930  0.06100  Biso   1.000  C
  C214     1.0000 0.49860  0.02950  0.40550  Biso   1.000  C
  C215     1.0000 0.43340  0.04990  0.43460  Biso   1.000  C
  C216     1.0000 0.44310  0.08440  0.48000  Biso   1.000  C
  C217     1.0000 0.51780  0.09830  0.49780  Biso   1.000  C
  C218     1.0000 0.58280  0.07730  0.47140  Biso   1.000  C
  C219     1.0000 0.57230  0.04510  0.42380  Biso   1.000  C
  C220     1.0000 0.48790  0.98880  0.35870  Biso   1.000  C
  C221     1.0000 0.43200  0.94470  0.35750  Biso   1.000  C
  C222     1.0000 0.42450  0.90600  0.31510  Biso   1.000  C
  C223     1.0000 0.47140  0.91250  0.27080  Biso   1.000  C
  C224     1.0000 0.52800  0.95790  0.27070  Biso   1.000  C
  C225     1.0000 0.53520  0.99700  0.31370  Biso   1.000  C
  C226     1.0000 0.37270  0.10720  0.50920  Biso   1.000  C
  C227     1.0000 0.30110  0.11820  0.48370  Biso   1.000  C
  C228     1.0000 0.23420  0.13470  0.51030  Biso   1.000  C
  C229     1.0000 0.23810  0.14350  0.56570  Biso   1.000  C
  C230     1.0000 0.30730  0.13270  0.59120  Biso   1.000  C
  C231     1.0000 0.37380  0.11440  0.56450  Biso   1.000  C
  C232     1.0000 0.66340  0.08830  0.49340  Biso   1.000  C
  C233     1.0000 0.68500  0.14120  0.51810  Biso   1.000  C
  C234     1.0000 0.76070  0.14830  0.54050  Biso   1.000  C
  C235     1.0000 0.81390  0.10280  0.53580  Biso   1.000  C
  C236     1.0000 0.79420  0.04700  0.51170  Biso   1.000  C
  C237     1.0000 0.71970  0.04170  0.48910  Biso   1.000  C
  C238     1.0000 0.46270  0.86860  0.22460  Biso   1.000  C
  C239     1.0000 0.16540  0.16170  0.59460  Biso   1.000  C
  C240     1.0000 0.89540  0.11070  0.56100  Biso   1.000  C
  N5       1.0000 0.22460  0.94500  0.28140  Biso   1.000  N
  N6       1.0000 0.27540  0.05500  0.78140  Biso   1.000  N
  N7       1.0000 0.22460  0.55500  0.28140  Biso   1.000  N
  N8       1.0000 0.27540  0.44500  0.78140  Biso   1.000  N
  O31      1.0000 0.00540  0.38430  0.68100  Biso   1.000  O
  O32      1.0000 0.07370  0.31920  0.73340  Biso   1.000  O
  O33      1.0000 0.55880  0.56570  0.05980  Biso   1.000  O
  O34      1.0000 0.59220  0.65950  0.08100  Biso   1.000  O
  O35      1.0000 0.32460  0.68270  0.14030  Biso   1.000  O
  O36      1.0000 0.39910  0.65410  0.07200  Biso   1.000  O
  O37      1.0000 0.49460  0.61570  0.18100  Biso   1.000  O
  O38      1.0000 0.42630  0.68080  0.23340  Biso   1.000  O
  O39      1.0000 0.94120  0.43430  0.55980  Biso   1.000  O
  O40      1.0000 0.90780  0.34050  0.58100  Biso   1.000  O
  O41      1.0000 0.17540  0.31730  0.64030  Biso   1.000  O
  O42      1.0000 0.10090  0.34590  0.57200  Biso   1.000  O
  O43      1.0000 0.20900  0.83400  0.27600  Biso   1.000  O
  O44      1.0000 0.29100  0.16600  0.77600  Biso   1.000  O
  O45      1.0000 0.20900  0.66600  0.27600  Biso   1.000  O
  O46      1.0000 0.29100  0.33400  0.77600  Biso   1.000  O
  O47      1.0000 0.00540  0.11570  0.68100  Biso   1.000  O
  O48      1.0000 0.07370  0.18080  0.73340  Biso   1.000  O
  O49      1.0000 0.55880  0.93430  0.05980  Biso   1.000  O
  O50      1.0000 0.59220  0.84050  0.08100  Biso   1.000  O
  O51      1.0000 0.32460  0.81730  0.14030  Biso   1.000  O
  O52      1.0000 0.39910  0.84590  0.07200  Biso   1.000  O
  O53      1.0000 0.49460  0.88430  0.18100  Biso   1.000  O
  O54      1.0000 0.42630  0.81920  0.23340  Biso   1.000  O
  O55      1.0000 0.94120  0.06570  0.55980  Biso   1.000  O
  O56      1.0000 0.90780  0.15950  0.58100  Biso   1.000  O
  O57      1.0000 0.17540  0.18270  0.64030  Biso   1.000  O
  O58      1.0000 0.10090  0.15410  0.57200  Biso   1.000  O
  O59      1.0000 0.01470  0.25000  0.64410  Biso   1.000  O
  O60      1.0000 0.48530  0.75000  0.14410  Biso   1.000  O
