data_image0
_cell_length_a       16.3656
_cell_length_b       17.979
_cell_length_c       19.232
_cell_angle_alpha    65.452
_cell_angle_beta     66.275
_cell_angle_gamma    69.154

_symmetry_space_group_name_H-M    P 1
_symmetry_int_tables_number       1

loop_
  _symmetry_equiv_pos_as_xyz
  'x, y, z'

loop_
  _atom_site_label
  _atom_site_occupancy
  _atom_site_fract_x
  _atom_site_fract_y
  _atom_site_fract_z
  _atom_site_thermal_displace_type
  _atom_site_B_iso_or_equiv
  _atom_site_type_symbol
  K1       1.0000 0.17877  0.94739  0.96698  Biso   1.000  K
  K2       1.0000 0.39630  0.80586  0.83030  Biso   1.000  K
  K3       1.0000 0.99790  0.93660  0.95440  Biso   1.000  K
  K4       1.0000 0.82123  0.05261  0.03302  Biso   1.000  K
  K5       1.0000 0.60370  0.19414  0.16970  Biso   1.000  K
  K6       1.0000 0.00210  0.06340  0.04560  Biso   1.000  K
  Zn1      1.0000 0.38466  0.79859  0.03469  Biso   1.000  Zn
  Zn2      1.0000 0.35505  0.03573  0.77246  Biso   1.000  Zn
  Zn3      1.0000 0.61534  0.20141  0.96531  Biso   1.000  Zn
  Zn4      1.0000 0.64495  0.96427  0.22754  Biso   1.000  Zn
  H1       1.0000 0.95310  0.51240  0.86060  Biso   1.000  H
  H2       1.0000 0.19060  0.49440  0.88840  Biso   1.000  H
  H3       1.0000 0.97630  0.68590  0.92770  Biso   1.000  H
  H4       1.0000 0.84060  0.63190  0.80930  Biso   1.000  H
  H5       1.0000 0.68280  0.68550  0.83450  Biso   1.000  H
  H6       1.0000 0.66760  0.71540  0.03500  Biso   1.000  H
  H7       1.0000 0.82470  0.66980  0.00770  Biso   1.000  H
  H8       1.0000 0.24670  0.42320  0.79190  Biso   1.000  H
  H9       1.0000 0.30820  0.29120  0.77750  Biso   1.000  H
  H10      1.0000 0.06530  0.23090  0.90410  Biso   1.000  H
  H11      1.0000 0.00130  0.36480  0.91310  Biso   1.000  H
  H12      1.0000 0.09810  0.74970  0.89190  Biso   1.000  H
  H13      1.0000 0.18180  0.79390  0.93240  Biso   1.000  H
  H14      1.0000 0.28770  0.55440  0.04320  Biso   1.000  H
  H15      1.0000 0.21180  0.51010  0.99470  Biso   1.000  H
  H16      1.0000 0.94240  0.91750  0.66920  Biso   1.000  H
  H17      1.0000 0.17630  0.87140  0.49780  Biso   1.000  H
  H18      1.0000 0.93760  0.86570  0.48810  Biso   1.000  H
  H19      1.0000 0.80360  0.00570  0.65140  Biso   1.000  H
  H20      1.0000 0.64540  0.03800  0.69240  Biso   1.000  H
  H21      1.0000 0.64890  0.84090  0.64150  Biso   1.000  H
  H22      1.0000 0.80760  0.81340  0.59430  Biso   1.000  H
  H23      1.0000 0.04420  0.86580  0.74540  Biso   1.000  H
  H24      1.0000 0.11450  0.90270  0.80370  Biso   1.000  H
  H25      1.0000 0.27660  0.00910  0.58660  Biso   1.000  H
  H26      1.0000 0.20640  0.97190  0.52700  Biso   1.000  H
  H27      1.0000 0.23140  0.78020  0.41670  Biso   1.000  H
  H28      1.0000 0.30500  0.77170  0.29080  Biso   1.000  H
  H29      1.0000 0.08910  0.93480  0.21890  Biso   1.000  H
  H30      1.0000 0.01150  0.93420  0.34870  Biso   1.000  H
  H31      1.0000 0.45650  0.99290  0.88100  Biso   1.000  H
  H32      1.0000 0.04690  0.48760  0.13940  Biso   1.000  H
  H33      1.0000 0.80940  0.50560  0.11160  Biso   1.000  H
  H34      1.0000 0.02370  0.31410  0.07230  Biso   1.000  H
  H35      1.0000 0.15940  0.36810  0.19070  Biso   1.000  H
  H36      1.0000 0.31720  0.31450  0.16550  Biso   1.000  H
  H37      1.0000 0.33240  0.28460  0.96500  Biso   1.000  H
  H38      1.0000 0.17530  0.33020  0.99230  Biso   1.000  H
  H39      1.0000 0.75330  0.57680  0.20810  Biso   1.000  H
  H40      1.0000 0.69180  0.70880  0.22250  Biso   1.000  H
  H41      1.0000 0.93470  0.76910  0.09590  Biso   1.000  H
  H42      1.0000 0.99870  0.63520  0.08690  Biso   1.000  H
  H43      1.0000 0.90190  0.25030  0.10810  Biso   1.000  H
  H44      1.0000 0.81820  0.20610  0.06760  Biso   1.000  H
  H45      1.0000 0.71230  0.44560  0.95680  Biso   1.000  H
  H46      1.0000 0.78820  0.48990  0.00530  Biso   1.000  H
  H47      1.0000 0.05760  0.08250  0.33080  Biso   1.000  H
  H48      1.0000 0.82370  0.12860  0.50220  Biso   1.000  H
  H49      1.0000 0.06240  0.13430  0.51190  Biso   1.000  H
  H50      1.0000 0.19640  0.99430  0.34860  Biso   1.000  H
  H51      1.0000 0.35460  0.96200  0.30760  Biso   1.000  H
  H52      1.0000 0.35110  0.15910  0.35850  Biso   1.000  H
  H53      1.0000 0.19240  0.18660  0.40570  Biso   1.000  H
  H54      1.0000 0.95580  0.13420  0.25460  Biso   1.000  H
  H55      1.0000 0.88550  0.09730  0.19630  Biso   1.000  H
  H56      1.0000 0.72340  0.99090  0.41340  Biso   1.000  H
  H57      1.0000 0.79360  0.02810  0.47300  Biso   1.000  H
  H58      1.0000 0.76860  0.21980  0.58330  Biso   1.000  H
  H59      1.0000 0.69500  0.22830  0.70920  Biso   1.000  H
  H60      1.0000 0.91090  0.06520  0.78110  Biso   1.000  H
  H61      1.0000 0.98850  0.06580  0.65130  Biso   1.000  H
  H62      1.0000 0.54350  0.00710  0.11900  Biso   1.000  H
  C1       1.0000 0.94940  0.60500  0.89530  Biso   1.000  C
  C2       1.0000 0.98800  0.53270  0.87370  Biso   1.000  C
  C3       1.0000 0.07800  0.48980  0.87120  Biso   1.000  C
  C4       1.0000 0.13010  0.52220  0.89040  Biso   1.000  C
  C5       1.0000 0.09280  0.59510  0.91220  Biso   1.000  C
  C6       1.0000 0.00190  0.63680  0.91400  Biso   1.000  C
  C7       1.0000 0.84980  0.64430  0.90600  Biso   1.000  C
  C8       1.0000 0.80650  0.64910  0.85430  Biso   1.000  C
  C9       1.0000 0.71100  0.68010  0.87030  Biso   1.000  C
  C10      1.0000 0.65900  0.70240  0.93800  Biso   1.000  C
  C11      1.0000 0.70240  0.69890  0.98980  Biso   1.000  C
  C12      1.0000 0.79640  0.67100  0.97370  Biso   1.000  C
  C13      1.0000 0.11810  0.40770  0.85660  Biso   1.000  C
  C14      1.0000 0.20970  0.38500  0.81450  Biso   1.000  C
  C15      1.0000 0.24670  0.30540  0.80570  Biso   1.000  C
  C16      1.0000 0.19360  0.24740  0.83810  Biso   1.000  C
  C17      1.0000 0.10160  0.26990  0.88040  Biso   1.000  C
  C18      1.0000 0.06360  0.34970  0.88750  Biso   1.000  C
  C19      1.0000 0.14630  0.62490  0.93800  Biso   1.000  C
  C20      1.0000 0.13750  0.71030  0.92090  Biso   1.000  C
  C21      1.0000 0.18640  0.73680  0.94630  Biso   1.000  C
  C22      1.0000 0.24350  0.67810  0.99340  Biso   1.000  C
  C23      1.0000 0.25100  0.59380  0.01160  Biso   1.000  C
  C24      1.0000 0.20440  0.56730  0.98330  Biso   1.000  C
  C25      1.0000 0.23410  0.16100  0.83120  Biso   1.000  C
  C26      1.0000 0.55660  0.73090  0.95710  Biso   1.000  C
  C27      1.0000 0.29630  0.70580  0.02310  Biso   1.000  C
  C28      1.0000 0.92430  0.89320  0.58440  Biso   1.000  C
  C29      1.0000 0.97340  0.90460  0.62170  Biso   1.000  C
  C30      1.0000 0.06750  0.89740  0.59060  Biso   1.000  C
  C31      1.0000 0.11310  0.87790  0.51880  Biso   1.000  C
  C32      1.0000 0.06510  0.86790  0.47830  Biso   1.000  C
  C33      1.0000 0.97020  0.87420  0.51300  Biso   1.000  C
  C34      1.0000 0.82270  0.90770  0.61640  Biso   1.000  C
  C35      1.0000 0.77260  0.97370  0.64760  Biso   1.000  C
  C36      1.0000 0.67750  0.99270  0.67330  Biso   1.000  C
  C37      1.0000 0.63020  0.94370  0.67030  Biso   1.000  C
  C38      1.0000 0.67980  0.87520  0.64190  Biso   1.000  C
  C39      1.0000 0.77530  0.85810  0.61430  Biso   1.000  C
  C40      1.0000 0.11750  0.91440  0.62950  Biso   1.000  C
  C41      1.0000 0.09100  0.89430  0.71340  Biso   1.000  C
  C42      1.0000 0.13310  0.91620  0.74830  Biso   1.000  C
  C43      1.0000 0.20310  0.95830  0.70190  Biso   1.000  C
  C44      1.0000 0.23020  0.98000  0.61800  Biso   1.000  C
  C45      1.0000 0.18800  0.95790  0.58250  Biso   1.000  C
  C46      1.0000 0.11310  0.85860  0.39740  Biso   1.000  C
  C47      1.0000 0.20210  0.81040  0.37730  Biso   1.000  C
  C48      1.0000 0.24690  0.80640  0.30180  Biso   1.000  C
  C49      1.0000 0.20600  0.85430  0.24010  Biso   1.000  C
  C50      1.0000 0.11750  0.90270  0.25880  Biso   1.000  C
  C51      1.0000 0.07160  0.90320  0.33660  Biso   1.000  C
  C52      1.0000 0.52790  0.96060  0.70030  Biso   1.000  C
  C53      1.0000 0.25000  0.97890  0.74180  Biso   1.000  C
  C54      1.0000 0.25410  0.85310  0.15580  Biso   1.000  C
  C55      1.0000 0.42070  0.95330  0.91050  Biso   1.000  C
  C56      1.0000 0.84860  0.88260  0.93590  Biso   1.000  C
  C57      1.0000 0.79790  0.87860  0.83990  Biso   1.000  C
  C58      1.0000 0.68470  0.92140  0.95710  Biso   1.000  C
  C59      1.0000 0.42000  0.61080  0.82800  Biso   1.000  C
  C60      1.0000 0.50700  0.57000  0.91000  Biso   1.000  C
  C61      1.0000 0.45970  0.46350  0.88340  Biso   1.000  C
  C62      1.0000 0.99660  0.87690  0.14160  Biso   1.000  C
  C63      1.0000 0.07970  0.72630  0.20480  Biso   1.000  C
  C64      1.0000 0.94320  0.80430  0.27770  Biso   1.000  C
  C65      1.0000 0.05060  0.39500  0.10470  Biso   1.000  C
  C66      1.0000 0.01200  0.46730  0.12630  Biso   1.000  C
  C67      1.0000 0.92200  0.51020  0.12880  Biso   1.000  C
  C68      1.0000 0.86990  0.47780  0.10960  Biso   1.000  C
  C69      1.0000 0.90720  0.40490  0.08780  Biso   1.000  C
  C70      1.0000 0.99810  0.36320  0.08600  Biso   1.000  C
  C71      1.0000 0.15020  0.35570  0.09400  Biso   1.000  C
  C72      1.0000 0.19350  0.35090  0.14570  Biso   1.000  C
  C73      1.0000 0.28900  0.31990  0.12970  Biso   1.000  C
  C74      1.0000 0.34100  0.29760  0.06200  Biso   1.000  C
  C75      1.0000 0.29760  0.30110  0.01020  Biso   1.000  C
  C76      1.0000 0.20360  0.32900  0.02630  Biso   1.000  C
  C77      1.0000 0.88190  0.59230  0.14340  Biso   1.000  C
  C78      1.0000 0.79030  0.61500  0.18550  Biso   1.000  C
  C79      1.0000 0.75330  0.69460  0.19430  Biso   1.000  C
  C80      1.0000 0.80640  0.75260  0.16190  Biso   1.000  C
  C81      1.0000 0.89840  0.73010  0.11960  Biso   1.000  C
  C82      1.0000 0.93640  0.65030  0.11250  Biso   1.000  C
  C83      1.0000 0.85370  0.37510  0.06200  Biso   1.000  C
  C84      1.0000 0.86250  0.28970  0.07910  Biso   1.000  C
  C85      1.0000 0.81360  0.26320  0.05370  Biso   1.000  C
  C86      1.0000 0.75650  0.32190  0.00660  Biso   1.000  C
  C87      1.0000 0.74900  0.40620  0.98840  Biso   1.000  C
  C88      1.0000 0.79560  0.43270  0.01670  Biso   1.000  C
  C89      1.0000 0.76590  0.83900  0.16880  Biso   1.000  C
  C90      1.0000 0.44340  0.26910  0.04290  Biso   1.000  C
  C91      1.0000 0.70370  0.29420  0.97690  Biso   1.000  C
  C92      1.0000 0.07570  0.10680  0.41560  Biso   1.000  C
  C93      1.0000 0.02660  0.09540  0.37830  Biso   1.000  C
  C94      1.0000 0.93250  0.10260  0.40940  Biso   1.000  C
  C95      1.0000 0.88690  0.12210  0.48120  Biso   1.000  C
  C96      1.0000 0.93490  0.13210  0.52170  Biso   1.000  C
  C97      1.0000 0.02980  0.12580  0.48700  Biso   1.000  C
  C98      1.0000 0.17730  0.09230  0.38360  Biso   1.000  C
  C99      1.0000 0.22740  0.02630  0.35240  Biso   1.000  C
  C100     1.0000 0.32250  0.00730  0.32670  Biso   1.000  C
  C101     1.0000 0.36980  0.05630  0.32970  Biso   1.000  C
  C102     1.0000 0.32020  0.12480  0.35810  Biso   1.000  C
  C103     1.0000 0.22470  0.14190  0.38570  Biso   1.000  C
  C104     1.0000 0.88250  0.08560  0.37050  Biso   1.000  C
  C105     1.0000 0.90900  0.10570  0.28660  Biso   1.000  C
  C106     1.0000 0.86690  0.08380  0.25170  Biso   1.000  C
  C107     1.0000 0.79690  0.04170  0.29810  Biso   1.000  C
  C108     1.0000 0.76980  0.02000  0.38200  Biso   1.000  C
  C109     1.0000 0.81200  0.04210  0.41750  Biso   1.000  C
  C110     1.0000 0.88690  0.14140  0.60260  Biso   1.000  C
  C111     1.0000 0.79790  0.18960  0.62270  Biso   1.000  C
  C112     1.0000 0.75310  0.19360  0.69820  Biso   1.000  C
  C113     1.0000 0.79400  0.14570  0.75990  Biso   1.000  C
  C114     1.0000 0.88250  0.09730  0.74120  Biso   1.000  C
  C115     1.0000 0.92840  0.09680  0.66340  Biso   1.000  C
  C116     1.0000 0.47210  0.03940  0.29970  Biso   1.000  C
  C117     1.0000 0.75000  0.02110  0.25820  Biso   1.000  C
  C118     1.0000 0.74590  0.14690  0.84420  Biso   1.000  C
  C119     1.0000 0.57930  0.04670  0.08950  Biso   1.000  C
  C120     1.0000 0.15140  0.11740  0.06410  Biso   1.000  C
  C121     1.0000 0.20210  0.12140  0.16010  Biso   1.000  C
  C122     1.0000 0.31530  0.07860  0.04290  Biso   1.000  C
  C123     1.0000 0.58000  0.38920  0.17200  Biso   1.000  C
  C124     1.0000 0.49300  0.43000  0.09000  Biso   1.000  C
  C125     1.0000 0.54030  0.53650  0.11660  Biso   1.000  C
  C126     1.0000 0.00340  0.12310  0.85840  Biso   1.000  C
  C127     1.0000 0.92030  0.27370  0.79520  Biso   1.000  C
  C128     1.0000 0.05680  0.19570  0.72230  Biso   1.000  C
  N1       1.0000 0.77230  0.89140  0.91120  Biso   1.000  N
  N2       1.0000 0.46640  0.53830  0.87500  Biso   1.000  N
  N3       1.0000 0.01010  0.80140  0.20470  Biso   1.000  N
  N4       1.0000 0.22770  0.10860  0.08880  Biso   1.000  N
  N5       1.0000 0.53360  0.46170  0.12500  Biso   1.000  N
  N6       1.0000 0.98990  0.19860  0.79530  Biso   1.000  N
  O1       1.0000 0.52150  0.75260  0.90310  Biso   1.000  O
  O2       1.0000 0.51130  0.73330  0.02810  Biso   1.000  O
  O3       1.0000 0.18930  0.10620  0.87050  Biso   1.000  O
  O4       1.0000 0.31470  0.14860  0.78320  Biso   1.000  O
  O5       1.0000 0.30300  0.78370  0.99100  Biso   1.000  O
  O6       1.0000 0.33290  0.65450  0.07450  Biso   1.000  O
  O7       1.0000 0.48740  0.03040  0.71710  Biso   1.000  O
  O8       1.0000 0.48700  0.91040  0.70830  Biso   1.000  O
  O9       1.0000 0.24690  0.93790  0.81320  Biso   1.000  O
  O10      1.0000 0.29300  0.03780  0.70050  Biso   1.000  O
  O11      1.0000 0.22270  0.90380  0.10050  Biso   1.000  O
  O12      1.0000 0.32920  0.79510  0.14710  Biso   1.000  O
  O13      1.0000 0.36660  0.95190  0.88020  Biso   1.000  O
  O14      1.0000 0.43030  0.90570  0.97720  Biso   1.000  O
  O15      1.0000 0.92700  0.86190  0.89680  Biso   1.000  O
  O16      1.0000 0.41400  0.68360  0.78820  Biso   1.000  O
  O17      1.0000 0.04640  0.86910  0.06900  Biso   1.000  O
  O18      1.0000 0.47850  0.24740  0.09690  Biso   1.000  O
  O19      1.0000 0.48870  0.26670  0.97190  Biso   1.000  O
  O20      1.0000 0.81070  0.89380  0.12950  Biso   1.000  O
  O21      1.0000 0.68530  0.85140  0.21680  Biso   1.000  O
  O22      1.0000 0.69700  0.21630  0.00900  Biso   1.000  O
  O23      1.0000 0.66710  0.34550  0.92550  Biso   1.000  O
  O24      1.0000 0.51260  0.96960  0.28290  Biso   1.000  O
  O25      1.0000 0.51300  0.08960  0.29170  Biso   1.000  O
  O26      1.0000 0.75310  0.06210  0.18680  Biso   1.000  O
  O27      1.0000 0.70700  0.96220  0.29950  Biso   1.000  O
  O28      1.0000 0.77730  0.09620  0.89950  Biso   1.000  O
  O29      1.0000 0.67080  0.20490  0.85290  Biso   1.000  O
  O30      1.0000 0.63340  0.04810  0.11980  Biso   1.000  O
  O31      1.0000 0.56970  0.09430  0.02280  Biso   1.000  O
  O32      1.0000 0.07300  0.13810  0.10320  Biso   1.000  O
  O33      1.0000 0.58600  0.31640  0.21180  Biso   1.000  O
  O34      1.0000 0.95360  0.13090  0.93100  Biso   1.000  O
