data_image0
_cell_length_a       18.0156
_cell_length_b       21.7598
_cell_length_c       12.707
_cell_angle_alpha    90
_cell_angle_beta     90
_cell_angle_gamma    90

_symmetry_space_group_name_H-M    "P 1"
_symmetry_int_tables_number       1

loop_
  _symmetry_equiv_pos_as_xyz
  'x, y, z'

loop_
  _atom_site_label
  _atom_site_occupancy
  _atom_site_fract_x
  _atom_site_fract_y
  _atom_site_fract_z
  _atom_site_thermal_displace_type
  _atom_site_B_iso_or_equiv
  _atom_site_type_symbol
  Co1      1.0000 0.33485  0.73629  0.03861  Biso   1.000  Co
  Co2      1.0000 0.17260  0.72688  0.03151  Biso   1.000  Co
  N1       1.0000 0.44040  0.76650  0.05240  Biso   1.000  N
  O1       1.0000 0.34030  0.70970  0.88330  Biso   1.000  O
  O2       1.0000 0.31400  0.76120  0.19860  Biso   1.000  O
  O3       1.0000 0.21970  0.31330  0.50460  Biso   1.000  O
  O4       1.0000 0.17520  0.14830  0.58150  Biso   1.000  O
  O5       1.0000 0.21720  0.70090  0.89600  Biso   1.000  O
  O6       1.0000 0.19000  0.75170  0.18090  Biso   1.000  O
  N2       1.0000 0.56190  0.79120  0.04640  Biso   1.000  N
  O7       1.0000 0.34190  0.31650  0.47950  Biso   1.000  O
  O8       1.0000 0.29870  0.13780  0.58520  Biso   1.000  O
  N3       1.0000 0.45840  0.80540  0.13740  Biso   1.000  N
  C1       1.0000 0.50320  0.76140  0.00170  Biso   1.000  C
  C2       1.0000 0.27640  0.69880  0.84440  Biso   1.000  C
  C3       1.0000 0.24970  0.76310  0.23290  Biso   1.000  C
  C4       1.0000 0.53100  0.81770  0.13100  Biso   1.000  C
  N4       1.0000 0.50850  0.72950  0.90990  Biso   1.000  N
  C5       1.0000 0.26940  0.67950  0.73090  Biso   1.000  C
  C6       1.0000 0.23550  0.78230  0.34510  Biso   1.000  C
  N5       1.0000 0.56680  0.85340  0.19960  Biso   1.000  N
  H1       1.0000 0.46980  0.71210  0.88380  Biso   1.000  H
  H2       1.0000 0.55040  0.72680  0.87800  Biso   1.000  H
  C7       1.0000 0.20320  0.66340  0.69200  Biso   1.000  C
  C8       1.0000 0.33090  0.67490  0.66850  Biso   1.000  C
  C9       1.0000 0.29480  0.79870  0.41020  Biso   1.000  C
  C10      1.0000 0.16640  0.78240  0.38620  Biso   1.000  C
  H3       1.0000 0.54300  0.86980  0.25110  Biso   1.000  H
  H4       1.0000 0.61350  0.85990  0.19230  Biso   1.000  H
  H5       1.0000 0.16160  0.66420  0.73520  Biso   1.000  H
  C11      1.0000 0.19630  0.64580  0.58960  Biso   1.000  C
  C12      1.0000 0.32580  0.65680  0.56500  Biso   1.000  C
  H6       1.0000 0.37720  0.68430  0.69650  Biso   1.000  H
  H7       1.0000 0.34280  0.79660  0.38370  Biso   1.000  H
  C13      1.0000 0.28460  0.81740  0.51060  Biso   1.000  C
  C14      1.0000 0.15620  0.80120  0.49020  Biso   1.000  C
  H8       1.0000 0.12610  0.77010  0.34570  Biso   1.000  H
  H9       1.0000 0.14960  0.63640  0.56310  Biso   1.000  H
  C15      1.0000 0.25640  0.64160  0.52530  Biso   1.000  C
  H10      1.0000 0.36780  0.65470  0.52270  Biso   1.000  H
  H11      1.0000 0.32460  0.82970  0.55180  Biso   1.000  H
  C16      1.0000 0.21330  0.81780  0.55040  Biso   1.000  C
  H12      1.0000 0.10850  0.80220  0.51810  Biso   1.000  H
  S1       1.0000 0.24760  0.61212  0.39780  Biso   1.000  S
  S2       1.0000 0.19990  0.84617  0.68040  Biso   1.000  S
  O9       1.0000 0.17280  0.62370  0.36240  Biso   1.000  O
  O10      1.0000 0.30910  0.63430  0.33690  Biso   1.000  O
  C17      1.0000 0.25810  0.53190  0.41560  Biso   1.000  C
  O11      1.0000 0.12420  0.83240  0.71150  Biso   1.000  O
  O12      1.0000 0.26020  0.82610  0.74490  Biso   1.000  O
  C18      1.0000 0.20780  0.92640  0.66240  Biso   1.000  C
  C19      1.0000 0.19410  0.49820  0.43860  Biso   1.000  C
  C20      1.0000 0.32660  0.50490  0.41310  Biso   1.000  C
  C21      1.0000 0.27710  0.95520  0.67260  Biso   1.000  C
  C22      1.0000 0.14950  0.96060  0.63540  Biso   1.000  C
  H13      1.0000 0.14800  0.51720  0.44130  Biso   1.000  H
  C23      1.0000 0.20110  0.43440  0.45770  Biso   1.000  C
  C24      1.0000 0.33350  0.44270  0.43040  Biso   1.000  C
  H14      1.0000 0.36860  0.52860  0.39970  Biso   1.000  H
  H15      1.0000 0.31860  0.93250  0.69260  Biso   1.000  H
  C25      1.0000 0.28330  0.01590  0.65310  Biso   1.000  C
  C26      1.0000 0.15500  0.02400  0.61500  Biso   1.000  C
  H16      1.0000 0.10320  0.94180  0.62990  Biso   1.000  H
  H17      1.0000 0.15960  0.41040  0.47210  Biso   1.000  H
  C27      1.0000 0.27130  0.40850  0.45460  Biso   1.000  C
  H18      1.0000 0.37970  0.42380  0.42580  Biso   1.000  H
  H19      1.0000 0.32950  0.03430  0.66060  Biso   1.000  H
  C28      1.0000 0.22530  0.05110  0.62330  Biso   1.000  C
  H20      1.0000 0.11360  0.04710  0.59660  Biso   1.000  H
  C29      1.0000 0.27870  0.34130  0.48020  Biso   1.000  C
  C30      1.0000 0.23390  0.11790  0.59610  Biso   1.000  C
  Co3      1.0000 0.66515  0.26371  0.53861  Biso   1.000  Co
  Co4      1.0000 0.82740  0.27312  0.53151  Biso   1.000  Co
  N6       1.0000 0.55960  0.23350  0.55240  Biso   1.000  N
  O13      1.0000 0.65970  0.29030  0.38330  Biso   1.000  O
  O14      1.0000 0.68600  0.23880  0.69860  Biso   1.000  O
  O15      1.0000 0.78030  0.68670  0.00460  Biso   1.000  O
  O16      1.0000 0.82480  0.85170  0.08150  Biso   1.000  O
  O17      1.0000 0.78280  0.29910  0.39600  Biso   1.000  O
  O18      1.0000 0.81000  0.24830  0.68090  Biso   1.000  O
  N7       1.0000 0.43810  0.20880  0.54640  Biso   1.000  N
  O19      1.0000 0.65810  0.68350  0.97950  Biso   1.000  O
  O20      1.0000 0.70130  0.86220  0.08520  Biso   1.000  O
  N8       1.0000 0.54160  0.19460  0.63740  Biso   1.000  N
  C31      1.0000 0.49680  0.23860  0.50170  Biso   1.000  C
  C32      1.0000 0.72360  0.30120  0.34440  Biso   1.000  C
  C33      1.0000 0.75030  0.23690  0.73290  Biso   1.000  C
  C34      1.0000 0.46900  0.18230  0.63100  Biso   1.000  C
  N9       1.0000 0.49150  0.27050  0.40990  Biso   1.000  N
  C35      1.0000 0.73060  0.32050  0.23090  Biso   1.000  C
  C36      1.0000 0.76450  0.21770  0.84510  Biso   1.000  C
  N10      1.0000 0.43320  0.14660  0.69960  Biso   1.000  N
  H21      1.0000 0.53020  0.28790  0.38380  Biso   1.000  H
  H22      1.0000 0.44960  0.27320  0.37800  Biso   1.000  H
  C37      1.0000 0.79680  0.33660  0.19200  Biso   1.000  C
  C38      1.0000 0.66910  0.32510  0.16850  Biso   1.000  C
  C39      1.0000 0.70520  0.20130  0.91020  Biso   1.000  C
  C40      1.0000 0.83360  0.21760  0.88620  Biso   1.000  C
  H23      1.0000 0.45700  0.13020  0.75110  Biso   1.000  H
  H24      1.0000 0.38650  0.14010  0.69230  Biso   1.000  H
  H25      1.0000 0.83840  0.33580  0.23520  Biso   1.000  H
  C41      1.0000 0.80370  0.35420  0.08960  Biso   1.000  C
  C42      1.0000 0.67420  0.34320  0.06500  Biso   1.000  C
  H26      1.0000 0.62280  0.31570  0.19650  Biso   1.000  H
  H27      1.0000 0.65720  0.20340  0.88370  Biso   1.000  H
  C43      1.0000 0.71540  0.18260  0.01060  Biso   1.000  C
  C44      1.0000 0.84380  0.19880  0.99020  Biso   1.000  C
  H28      1.0000 0.87390  0.22990  0.84570  Biso   1.000  H
  H29      1.0000 0.85040  0.36360  0.06310  Biso   1.000  H
  C45      1.0000 0.74360  0.35840  0.02530  Biso   1.000  C
  H30      1.0000 0.63220  0.34530  0.02270  Biso   1.000  H
  H31      1.0000 0.67540  0.17030  0.05180  Biso   1.000  H
  C46      1.0000 0.78670  0.18220  0.05040  Biso   1.000  C
  H32      1.0000 0.89150  0.19780  0.01810  Biso   1.000  H
  S3       1.0000 0.75240  0.38788  0.89780  Biso   1.000  S
  S4       1.0000 0.80010  0.15383  0.18040  Biso   1.000  S
  O21      1.0000 0.82720  0.37630  0.86240  Biso   1.000  O
  O22      1.0000 0.69090  0.36570  0.83690  Biso   1.000  O
  C47      1.0000 0.74190  0.46810  0.91560  Biso   1.000  C
  O23      1.0000 0.87580  0.16760  0.21150  Biso   1.000  O
  O24      1.0000 0.73980  0.17390  0.24490  Biso   1.000  O
  C48      1.0000 0.79220  0.07360  0.16240  Biso   1.000  C
  C49      1.0000 0.80590  0.50180  0.93860  Biso   1.000  C
  C50      1.0000 0.67340  0.49510  0.91310  Biso   1.000  C
  C51      1.0000 0.72290  0.04480  0.17260  Biso   1.000  C
  C52      1.0000 0.85050  0.03940  0.13540  Biso   1.000  C
  H33      1.0000 0.85200  0.48280  0.94130  Biso   1.000  H
  C53      1.0000 0.79890  0.56560  0.95770  Biso   1.000  C
  C54      1.0000 0.66650  0.55730  0.93040  Biso   1.000  C
  H34      1.0000 0.63140  0.47140  0.89970  Biso   1.000  H
  H35      1.0000 0.68140  0.06750  0.19260  Biso   1.000  H
  C55      1.0000 0.71670  0.98410  0.15310  Biso   1.000  C
  C56      1.0000 0.84500  0.97600  0.11500  Biso   1.000  C
  H36      1.0000 0.89680  0.05820  0.12990  Biso   1.000  H
  H37      1.0000 0.84040  0.58960  0.97210  Biso   1.000  H
  C57      1.0000 0.72870  0.59150  0.95460  Biso   1.000  C
  H38      1.0000 0.62030  0.57620  0.92580  Biso   1.000  H
  H39      1.0000 0.67050  0.96570  0.16060  Biso   1.000  H
  C58      1.0000 0.77470  0.94890  0.12330  Biso   1.000  C
  H40      1.0000 0.88640  0.95290  0.09660  Biso   1.000  H
  C59      1.0000 0.72130  0.65870  0.98020  Biso   1.000  C
  C60      1.0000 0.76610  0.88210  0.09610  Biso   1.000  C
  Co5      1.0000 0.83485  0.76371  0.03861  Biso   1.000  Co
  Co6      1.0000 0.67260  0.77312  0.03151  Biso   1.000  Co
  N11      1.0000 0.94040  0.73350  0.05240  Biso   1.000  N
  O25      1.0000 0.84030  0.79030  0.88330  Biso   1.000  O
  O26      1.0000 0.81400  0.73880  0.19860  Biso   1.000  O
  O27      1.0000 0.71970  0.18670  0.50460  Biso   1.000  O
  O28      1.0000 0.67520  0.35170  0.58150  Biso   1.000  O
  O29      1.0000 0.71720  0.79910  0.89600  Biso   1.000  O
  O30      1.0000 0.69000  0.74830  0.18090  Biso   1.000  O
  N12      1.0000 0.06190  0.70880  0.04640  Biso   1.000  N
  O31      1.0000 0.84190  0.18350  0.47950  Biso   1.000  O
  O32      1.0000 0.79870  0.36220  0.58520  Biso   1.000  O
  N13      1.0000 0.95840  0.69460  0.13740  Biso   1.000  N
  C61      1.0000 0.00320  0.73860  0.00170  Biso   1.000  C
  C62      1.0000 0.77640  0.80120  0.84440  Biso   1.000  C
  C63      1.0000 0.74970  0.73690  0.23290  Biso   1.000  C
  C64      1.0000 0.03100  0.68230  0.13100  Biso   1.000  C
  N14      1.0000 0.00850  0.77050  0.90990  Biso   1.000  N
  C65      1.0000 0.76940  0.82050  0.73090  Biso   1.000  C
  C66      1.0000 0.73550  0.71770  0.34510  Biso   1.000  C
  N15      1.0000 0.06680  0.64660  0.19960  Biso   1.000  N
  H41      1.0000 0.96980  0.78790  0.88380  Biso   1.000  H
  H42      1.0000 0.05040  0.77320  0.87800  Biso   1.000  H
  C67      1.0000 0.70320  0.83660  0.69200  Biso   1.000  C
  C68      1.0000 0.83090  0.82510  0.66850  Biso   1.000  C
  C69      1.0000 0.79480  0.70130  0.41020  Biso   1.000  C
  C70      1.0000 0.66640  0.71760  0.38620  Biso   1.000  C
  H43      1.0000 0.04300  0.63020  0.25110  Biso   1.000  H
  H44      1.0000 0.11350  0.64010  0.19230  Biso   1.000  H
  H45      1.0000 0.66160  0.83580  0.73520  Biso   1.000  H
  C71      1.0000 0.69630  0.85420  0.58960  Biso   1.000  C
  C72      1.0000 0.82580  0.84320  0.56500  Biso   1.000  C
  H46      1.0000 0.87720  0.81570  0.69650  Biso   1.000  H
  H47      1.0000 0.84280  0.70340  0.38370  Biso   1.000  H
  C73      1.0000 0.78460  0.68260  0.51060  Biso   1.000  C
  C74      1.0000 0.65620  0.69880  0.49020  Biso   1.000  C
  H48      1.0000 0.62610  0.72990  0.34570  Biso   1.000  H
  H49      1.0000 0.64960  0.86360  0.56310  Biso   1.000  H
  C75      1.0000 0.75640  0.85840  0.52530  Biso   1.000  C
  H50      1.0000 0.86780  0.84530  0.52270  Biso   1.000  H
  H51      1.0000 0.82460  0.67030  0.55180  Biso   1.000  H
  C76      1.0000 0.71330  0.68220  0.55040  Biso   1.000  C
  H52      1.0000 0.60850  0.69780  0.51810  Biso   1.000  H
  S5       1.0000 0.74760  0.88788  0.39780  Biso   1.000  S
  S6       1.0000 0.69990  0.65383  0.68040  Biso   1.000  S
  O33      1.0000 0.67280  0.87630  0.36240  Biso   1.000  O
  O34      1.0000 0.80910  0.86570  0.33690  Biso   1.000  O
  C77      1.0000 0.75810  0.96810  0.41560  Biso   1.000  C
  O35      1.0000 0.62420  0.66760  0.71150  Biso   1.000  O
  O36      1.0000 0.76020  0.67390  0.74490  Biso   1.000  O
  C78      1.0000 0.70780  0.57360  0.66240  Biso   1.000  C
  C79      1.0000 0.69410  0.00180  0.43860  Biso   1.000  C
  C80      1.0000 0.82660  0.99510  0.41310  Biso   1.000  C
  C81      1.0000 0.77710  0.54480  0.67260  Biso   1.000  C
  C82      1.0000 0.64950  0.53940  0.63540  Biso   1.000  C
  H53      1.0000 0.64800  0.98280  0.44130  Biso   1.000  H
  C83      1.0000 0.70110  0.06560  0.45770  Biso   1.000  C
  C84      1.0000 0.83350  0.05730  0.43040  Biso   1.000  C
  H54      1.0000 0.86860  0.97140  0.39970  Biso   1.000  H
  H55      1.0000 0.81860  0.56750  0.69260  Biso   1.000  H
  C85      1.0000 0.78330  0.48410  0.65310  Biso   1.000  C
  C86      1.0000 0.65500  0.47600  0.61500  Biso   1.000  C
  H56      1.0000 0.60320  0.55820  0.62990  Biso   1.000  H
  H57      1.0000 0.65960  0.08960  0.47210  Biso   1.000  H
  C87      1.0000 0.77130  0.09150  0.45460  Biso   1.000  C
  H58      1.0000 0.87970  0.07620  0.42580  Biso   1.000  H
  H59      1.0000 0.82950  0.46570  0.66060  Biso   1.000  H
  C88      1.0000 0.72530  0.44890  0.62330  Biso   1.000  C
  H60      1.0000 0.61360  0.45290  0.59660  Biso   1.000  H
  C89      1.0000 0.77870  0.15870  0.48020  Biso   1.000  C
  C90      1.0000 0.73390  0.38210  0.59610  Biso   1.000  C
  Co7      1.0000 0.16515  0.23629  0.53861  Biso   1.000  Co
  Co8      1.0000 0.32740  0.22688  0.53151  Biso   1.000  Co
  N16      1.0000 0.05960  0.26650  0.55240  Biso   1.000  N
  O37      1.0000 0.15970  0.20970  0.38330  Biso   1.000  O
  O38      1.0000 0.18600  0.26120  0.69860  Biso   1.000  O
  O39      1.0000 0.28030  0.81330  0.00460  Biso   1.000  O
  O40      1.0000 0.32480  0.64830  0.08150  Biso   1.000  O
  O41      1.0000 0.28280  0.20090  0.39600  Biso   1.000  O
  O42      1.0000 0.31000  0.25170  0.68090  Biso   1.000  O
  N17      1.0000 0.93810  0.29120  0.54640  Biso   1.000  N
  O43      1.0000 0.15810  0.81650  0.97950  Biso   1.000  O
  O44      1.0000 0.20130  0.63780  0.08520  Biso   1.000  O
  N18      1.0000 0.04160  0.30540  0.63740  Biso   1.000  N
  C91      1.0000 0.99680  0.26140  0.50170  Biso   1.000  C
  C92      1.0000 0.22360  0.19880  0.34440  Biso   1.000  C
  C93      1.0000 0.25030  0.26310  0.73290  Biso   1.000  C
  C94      1.0000 0.96900  0.31770  0.63100  Biso   1.000  C
  N19      1.0000 0.99150  0.22950  0.40990  Biso   1.000  N
  C95      1.0000 0.23060  0.17950  0.23090  Biso   1.000  C
  C96      1.0000 0.26450  0.28230  0.84510  Biso   1.000  C
  N20      1.0000 0.93320  0.35340  0.69960  Biso   1.000  N
  H61      1.0000 0.03020  0.21210  0.38380  Biso   1.000  H
  H62      1.0000 0.94960  0.22680  0.37800  Biso   1.000  H
  C97      1.0000 0.29680  0.16340  0.19200  Biso   1.000  C
  C98      1.0000 0.16910  0.17490  0.16850  Biso   1.000  C
  C99      1.0000 0.20520  0.29870  0.91020  Biso   1.000  C
  C100     1.0000 0.33360  0.28240  0.88620  Biso   1.000  C
  H63      1.0000 0.95700  0.36980  0.75110  Biso   1.000  H
  H64      1.0000 0.88650  0.35990  0.69230  Biso   1.000  H
  H65      1.0000 0.33840  0.16420  0.23520  Biso   1.000  H
  C101     1.0000 0.30370  0.14580  0.08960  Biso   1.000  C
  C102     1.0000 0.17420  0.15680  0.06500  Biso   1.000  C
  H66      1.0000 0.12280  0.18430  0.19650  Biso   1.000  H
  H67      1.0000 0.15720  0.29660  0.88370  Biso   1.000  H
  C103     1.0000 0.21540  0.31740  0.01060  Biso   1.000  C
  C104     1.0000 0.34380  0.30120  0.99020  Biso   1.000  C
  H68      1.0000 0.37390  0.27010  0.84570  Biso   1.000  H
  H69      1.0000 0.35040  0.13640  0.06310  Biso   1.000  H
  C105     1.0000 0.24360  0.14160  0.02530  Biso   1.000  C
  H70      1.0000 0.13220  0.15470  0.02270  Biso   1.000  H
  H71      1.0000 0.17540  0.32970  0.05180  Biso   1.000  H
  C106     1.0000 0.28670  0.31780  0.05040  Biso   1.000  C
  H72      1.0000 0.39150  0.30220  0.01810  Biso   1.000  H
  S7       1.0000 0.25240  0.11212  0.89780  Biso   1.000  S
  S8       1.0000 0.30010  0.34617  0.18040  Biso   1.000  S
  O45      1.0000 0.32720  0.12370  0.86240  Biso   1.000  O
  O46      1.0000 0.19090  0.13430  0.83690  Biso   1.000  O
  C107     1.0000 0.24190  0.03190  0.91560  Biso   1.000  C
  O47      1.0000 0.37580  0.33240  0.21150  Biso   1.000  O
  O48      1.0000 0.23980  0.32610  0.24490  Biso   1.000  O
  C108     1.0000 0.29220  0.42640  0.16240  Biso   1.000  C
  C109     1.0000 0.30590  0.99820  0.93860  Biso   1.000  C
  C110     1.0000 0.17340  0.00490  0.91310  Biso   1.000  C
  C111     1.0000 0.22290  0.45520  0.17260  Biso   1.000  C
  C112     1.0000 0.35050  0.46060  0.13540  Biso   1.000  C
  H73      1.0000 0.35200  0.01720  0.94130  Biso   1.000  H
  C113     1.0000 0.29890  0.93440  0.95770  Biso   1.000  C
  C114     1.0000 0.16650  0.94270  0.93040  Biso   1.000  C
  H74      1.0000 0.13140  0.02860  0.89970  Biso   1.000  H
  H75      1.0000 0.18140  0.43250  0.19260  Biso   1.000  H
  C115     1.0000 0.21670  0.51590  0.15310  Biso   1.000  C
  C116     1.0000 0.34500  0.52400  0.11500  Biso   1.000  C
  H76      1.0000 0.39680  0.44180  0.12990  Biso   1.000  H
  H77      1.0000 0.34040  0.91040  0.97210  Biso   1.000  H
  C117     1.0000 0.22870  0.90850  0.95460  Biso   1.000  C
  H78      1.0000 0.12030  0.92380  0.92580  Biso   1.000  H
  H79      1.0000 0.17050  0.53430  0.16060  Biso   1.000  H
  C118     1.0000 0.27470  0.55110  0.12330  Biso   1.000  C
  H80      1.0000 0.38640  0.54710  0.09660  Biso   1.000  H
  C119     1.0000 0.22130  0.84130  0.98020  Biso   1.000  C
  C120     1.0000 0.26610  0.61790  0.09610  Biso   1.000  C
