data_image0
_cell_length_a       13.3473
_cell_length_b       13.3473
_cell_length_c       14.2599
_cell_angle_alpha    90
_cell_angle_beta     90
_cell_angle_gamma    120

_symmetry_space_group_name_H-M    P 1
_symmetry_int_tables_number       1

loop_
  _symmetry_equiv_pos_as_xyz
  'x, y, z'

loop_
  _atom_site_label
  _atom_site_occupancy
  _atom_site_fract_x
  _atom_site_fract_y
  _atom_site_fract_z
  _atom_site_thermal_displace_type
  _atom_site_B_iso_or_equiv
  _atom_site_type_symbol
  Er1      1.0000 0.33333  0.66666  0.33304  Biso   1.000  Er
  Er2      1.0000 0.66667  0.33334  0.16696  Biso   1.000  Er
  Er3      1.0000 0.66667  0.33334  0.66696  Biso   1.000  Er
  Er4      1.0000 0.33333  0.66666  0.83304  Biso   1.000  Er
  Cu1      1.0000 0.50000  0.00000  0.50000  Biso   1.000  Cu
  Cu2      1.0000 0.50000  0.50000  0.50000  Biso   1.000  Cu
  Cu3      1.0000 0.00000  0.50000  0.50000  Biso   1.000  Cu
  Cu4      1.0000 0.50000  0.00000  0.00000  Biso   1.000  Cu
  Cu5      1.0000 0.00000  0.50000  0.00000  Biso   1.000  Cu
  Cu6      1.0000 0.50000  0.50000  0.00000  Biso   1.000  Cu
  H1       1.0000 0.67290  0.02260  0.57970  Biso   1.000  H
  H2       1.0000 0.68290  0.86250  0.52020  Biso   1.000  H
  H3       1.0000 0.70500  0.96010  0.44790  Biso   1.000  H
  H4       1.0000 0.60100  0.91330  0.69560  Biso   1.000  H
  H5       1.0000 0.53950  0.80550  0.62930  Biso   1.000  H
  H6       1.0000 0.34970  0.32710  0.57970  Biso   1.000  H
  H7       1.0000 0.17960  0.31710  0.52020  Biso   1.000  H
  H8       1.0000 0.25510  0.29500  0.44790  Biso   1.000  H
  H9       1.0000 0.31230  0.39900  0.69560  Biso   1.000  H
  H10      1.0000 0.26600  0.46050  0.62930  Biso   1.000  H
  H11      1.0000 0.97740  0.65030  0.57970  Biso   1.000  H
  H12      1.0000 0.13750  0.82040  0.52020  Biso   1.000  H
  H13      1.0000 0.03990  0.74490  0.44790  Biso   1.000  H
  H14      1.0000 0.08670  0.68770  0.69560  Biso   1.000  H
  H15      1.0000 0.19450  0.73400  0.62930  Biso   1.000  H
  H16      1.0000 0.65030  0.97740  0.92030  Biso   1.000  H
  H17      1.0000 0.82040  0.13750  0.97980  Biso   1.000  H
  H18      1.0000 0.74490  0.03990  0.05210  Biso   1.000  H
  H19      1.0000 0.68770  0.08670  0.80440  Biso   1.000  H
  H20      1.0000 0.73400  0.19450  0.87070  Biso   1.000  H
  H21      1.0000 0.02260  0.67290  0.92030  Biso   1.000  H
  H22      1.0000 0.86250  0.68290  0.97980  Biso   1.000  H
  H23      1.0000 0.96010  0.70500  0.05210  Biso   1.000  H
  H24      1.0000 0.91330  0.60100  0.80440  Biso   1.000  H
  H25      1.0000 0.80550  0.53950  0.87070  Biso   1.000  H
  H26      1.0000 0.32710  0.34970  0.92030  Biso   1.000  H
  H27      1.0000 0.31710  0.17960  0.97980  Biso   1.000  H
  H28      1.0000 0.29500  0.25510  0.05210  Biso   1.000  H
  H29      1.0000 0.39900  0.31230  0.80440  Biso   1.000  H
  H30      1.0000 0.46050  0.26600  0.87070  Biso   1.000  H
  H31      1.0000 0.32710  0.97740  0.42030  Biso   1.000  H
  H32      1.0000 0.31710  0.13750  0.47980  Biso   1.000  H
  H33      1.0000 0.29500  0.03990  0.55210  Biso   1.000  H
  H34      1.0000 0.39900  0.08670  0.30440  Biso   1.000  H
  H35      1.0000 0.46050  0.19450  0.37070  Biso   1.000  H
  H36      1.0000 0.65030  0.67290  0.42030  Biso   1.000  H
  H37      1.0000 0.82040  0.68290  0.47980  Biso   1.000  H
  H38      1.0000 0.74490  0.70500  0.55210  Biso   1.000  H
  H39      1.0000 0.68770  0.60100  0.30440  Biso   1.000  H
  H40      1.0000 0.73400  0.53950  0.37070  Biso   1.000  H
  H41      1.0000 0.02260  0.34970  0.42030  Biso   1.000  H
  H42      1.0000 0.86250  0.17960  0.47980  Biso   1.000  H
  H43      1.0000 0.96010  0.25510  0.55210  Biso   1.000  H
  H44      1.0000 0.91330  0.31230  0.30440  Biso   1.000  H
  H45      1.0000 0.80550  0.26600  0.37070  Biso   1.000  H
  H46      1.0000 0.34970  0.02260  0.07970  Biso   1.000  H
  H47      1.0000 0.17960  0.86250  0.02020  Biso   1.000  H
  H48      1.0000 0.25510  0.96010  0.94790  Biso   1.000  H
  H49      1.0000 0.31230  0.91330  0.19560  Biso   1.000  H
  H50      1.0000 0.26600  0.80550  0.12930  Biso   1.000  H
  H51      1.0000 0.97740  0.32710  0.07970  Biso   1.000  H
  H52      1.0000 0.13750  0.31710  0.02020  Biso   1.000  H
  H53      1.0000 0.03990  0.29500  0.94790  Biso   1.000  H
  H54      1.0000 0.08670  0.39900  0.19560  Biso   1.000  H
  H55      1.0000 0.19450  0.46050  0.12930  Biso   1.000  H
  H56      1.0000 0.67290  0.65030  0.07970  Biso   1.000  H
  H57      1.0000 0.68290  0.82040  0.02020  Biso   1.000  H
  H58      1.0000 0.70500  0.74490  0.94790  Biso   1.000  H
  H59      1.0000 0.60100  0.68770  0.19560  Biso   1.000  H
  H60      1.0000 0.53950  0.73400  0.12930  Biso   1.000  H
  C1       1.0000 0.54670  0.81450  0.43020  Biso   1.000  C
  C2       1.0000 0.64740  0.90130  0.48860  Biso   1.000  C
  C3       1.0000 0.55130  0.88210  0.64110  Biso   1.000  C
  C4       1.0000 0.43660  0.87330  0.66170  Biso   1.000  C
  C5       1.0000 0.26780  0.45330  0.43020  Biso   1.000  C
  C6       1.0000 0.25390  0.35260  0.48860  Biso   1.000  C
  C7       1.0000 0.33080  0.44870  0.64110  Biso   1.000  C
  C8       1.0000 0.43670  0.56340  0.66170  Biso   1.000  C
  C9       1.0000 0.18550  0.73220  0.43020  Biso   1.000  C
  C10      1.0000 0.09870  0.74610  0.48860  Biso   1.000  C
  C11      1.0000 0.11790  0.66920  0.64110  Biso   1.000  C
  C12      1.0000 0.12670  0.56330  0.66170  Biso   1.000  C
  C13      1.0000 0.73220  0.18550  0.06980  Biso   1.000  C
  C14      1.0000 0.74610  0.09870  0.01140  Biso   1.000  C
  C15      1.0000 0.66920  0.11790  0.85890  Biso   1.000  C
  C16      1.0000 0.56330  0.12670  0.83830  Biso   1.000  C
  C17      1.0000 0.81450  0.54670  0.06980  Biso   1.000  C
  C18      1.0000 0.90130  0.64740  0.01140  Biso   1.000  C
  C19      1.0000 0.88210  0.55130  0.85890  Biso   1.000  C
  C20      1.0000 0.87330  0.43660  0.83830  Biso   1.000  C
  C21      1.0000 0.45330  0.26780  0.06980  Biso   1.000  C
  C22      1.0000 0.35260  0.25390  0.01140  Biso   1.000  C
  C23      1.0000 0.44870  0.33080  0.85890  Biso   1.000  C
  C24      1.0000 0.56340  0.43670  0.83830  Biso   1.000  C
  C25      1.0000 0.45330  0.18550  0.56980  Biso   1.000  C
  C26      1.0000 0.35260  0.09870  0.51140  Biso   1.000  C
  C27      1.0000 0.44870  0.11790  0.35890  Biso   1.000  C
  C28      1.0000 0.56340  0.12670  0.33830  Biso   1.000  C
  C29      1.0000 0.73220  0.54670  0.56980  Biso   1.000  C
  C30      1.0000 0.74610  0.64740  0.51140  Biso   1.000  C
  C31      1.0000 0.66920  0.55130  0.35890  Biso   1.000  C
  C32      1.0000 0.56330  0.43660  0.33830  Biso   1.000  C
  C33      1.0000 0.81450  0.26780  0.56980  Biso   1.000  C
  C34      1.0000 0.90130  0.25390  0.51140  Biso   1.000  C
  C35      1.0000 0.88210  0.33080  0.35890  Biso   1.000  C
  C36      1.0000 0.87330  0.43670  0.33830  Biso   1.000  C
  C37      1.0000 0.26780  0.81450  0.93020  Biso   1.000  C
  C38      1.0000 0.25390  0.90130  0.98860  Biso   1.000  C
  C39      1.0000 0.33080  0.88210  0.14110  Biso   1.000  C
  C40      1.0000 0.43670  0.87330  0.16170  Biso   1.000  C
  C41      1.0000 0.18550  0.45330  0.93020  Biso   1.000  C
  C42      1.0000 0.09870  0.35260  0.98860  Biso   1.000  C
  C43      1.0000 0.11790  0.44870  0.14110  Biso   1.000  C
  C44      1.0000 0.12670  0.56340  0.16170  Biso   1.000  C
  C45      1.0000 0.54670  0.73220  0.93020  Biso   1.000  C
  C46      1.0000 0.64740  0.74610  0.98860  Biso   1.000  C
  C47      1.0000 0.55130  0.66920  0.14110  Biso   1.000  C
  C48      1.0000 0.43660  0.56330  0.16170  Biso   1.000  C
  N1       1.0000 0.60960  0.95690  0.55913  Biso   1.000  N
  N2       1.0000 0.34730  0.39040  0.55913  Biso   1.000  N
  N3       1.0000 0.04310  0.65270  0.55913  Biso   1.000  N
  N4       1.0000 0.65270  0.04310  0.94087  Biso   1.000  N
  N5       1.0000 0.95690  0.60960  0.94087  Biso   1.000  N
  N6       1.0000 0.39040  0.34730  0.94087  Biso   1.000  N
  N7       1.0000 0.39040  0.04310  0.44087  Biso   1.000  N
  N8       1.0000 0.65270  0.60960  0.44087  Biso   1.000  N
  N9       1.0000 0.95690  0.34730  0.44087  Biso   1.000  N
  N10      1.0000 0.34730  0.95690  0.05913  Biso   1.000  N
  N11      1.0000 0.04310  0.39040  0.05913  Biso   1.000  N
  N12      1.0000 0.60960  0.65270  0.05913  Biso   1.000  N
  O1       1.0000 0.44990  0.80970  0.44074  Biso   1.000  O
  O2       1.0000 0.55990  0.75260  0.37202  Biso   1.000  O
  O3       1.0000 0.40200  0.92630  0.60909  Biso   1.000  O
  O4       1.0000 0.37940  0.81390  0.73003  Biso   1.000  O
  O5       1.0000 0.35980  0.55010  0.44074  Biso   1.000  O
  O6       1.0000 0.19270  0.44010  0.37202  Biso   1.000  O
  O7       1.0000 0.52430  0.59800  0.60909  Biso   1.000  O
  O8       1.0000 0.43450  0.62060  0.73003  Biso   1.000  O
  O9       1.0000 0.19030  0.64020  0.44074  Biso   1.000  O
  O10      1.0000 0.24740  0.80730  0.37202  Biso   1.000  O
  O11      1.0000 0.07370  0.47570  0.60909  Biso   1.000  O
  O12      1.0000 0.18610  0.56550  0.73003  Biso   1.000  O
  O13      1.0000 0.64020  0.19030  0.05926  Biso   1.000  O
  O14      1.0000 0.80730  0.24740  0.12798  Biso   1.000  O
  O15      1.0000 0.47570  0.07370  0.89091  Biso   1.000  O
  O16      1.0000 0.56550  0.18610  0.76997  Biso   1.000  O
  O17      1.0000 0.80970  0.44990  0.05926  Biso   1.000  O
  O18      1.0000 0.75260  0.55990  0.12798  Biso   1.000  O
  O19      1.0000 0.92630  0.40200  0.89091  Biso   1.000  O
  O20      1.0000 0.81390  0.37940  0.76997  Biso   1.000  O
  O21      1.0000 0.55010  0.35980  0.05926  Biso   1.000  O
  O22      1.0000 0.44010  0.19270  0.12798  Biso   1.000  O
  O23      1.0000 0.59800  0.52430  0.89091  Biso   1.000  O
  O24      1.0000 0.62060  0.43450  0.76997  Biso   1.000  O
  O25      1.0000 0.55010  0.19030  0.55926  Biso   1.000  O
  O26      1.0000 0.44010  0.24740  0.62798  Biso   1.000  O
  O27      1.0000 0.59800  0.07370  0.39091  Biso   1.000  O
  O28      1.0000 0.62060  0.18610  0.26997  Biso   1.000  O
  O29      1.0000 0.64020  0.44990  0.55926  Biso   1.000  O
  O30      1.0000 0.80730  0.55990  0.62798  Biso   1.000  O
  O31      1.0000 0.47570  0.40200  0.39091  Biso   1.000  O
  O32      1.0000 0.56550  0.37940  0.26997  Biso   1.000  O
  O33      1.0000 0.80970  0.35980  0.55926  Biso   1.000  O
  O34      1.0000 0.75260  0.19270  0.62798  Biso   1.000  O
  O35      1.0000 0.92630  0.52430  0.39091  Biso   1.000  O
  O36      1.0000 0.81390  0.43450  0.26997  Biso   1.000  O
  O37      1.0000 0.35980  0.80970  0.94074  Biso   1.000  O
  O38      1.0000 0.19270  0.75260  0.87202  Biso   1.000  O
  O39      1.0000 0.52430  0.92630  0.10909  Biso   1.000  O
  O40      1.0000 0.43450  0.81390  0.23003  Biso   1.000  O
  O41      1.0000 0.19030  0.55010  0.94074  Biso   1.000  O
  O42      1.0000 0.24740  0.44010  0.87202  Biso   1.000  O
  O43      1.0000 0.07370  0.59800  0.10909  Biso   1.000  O
  O44      1.0000 0.18610  0.62060  0.23003  Biso   1.000  O
  O45      1.0000 0.44990  0.64020  0.94074  Biso   1.000  O
  O46      1.0000 0.55990  0.80730  0.87202  Biso   1.000  O
  O47      1.0000 0.40200  0.47570  0.10909  Biso   1.000  O
  O48      1.0000 0.37940  0.56550  0.23003  Biso   1.000  O
