data_image0
_cell_length_a       13.4105
_cell_length_b       13.4105
_cell_length_c       14.5808
_cell_angle_alpha    90
_cell_angle_beta     90
_cell_angle_gamma    120

_symmetry_space_group_name_H-M    P 1
_symmetry_int_tables_number       1

loop_
  _symmetry_equiv_pos_as_xyz
  'x, y, z'

loop_
  _atom_site_label
  _atom_site_occupancy
  _atom_site_fract_x
  _atom_site_fract_y
  _atom_site_fract_z
  _atom_site_thermal_displace_type
  _atom_site_B_iso_or_equiv
  _atom_site_type_symbol
  Sm1      1.0000 0.33333  0.66666  0.66786  Biso   1.000  Sm
  Sm2      1.0000 0.66667  0.33334  0.83214  Biso   1.000  Sm
  Sm3      1.0000 0.66667  0.33334  0.33214  Biso   1.000  Sm
  Sm4      1.0000 0.33333  0.66666  0.16786  Biso   1.000  Sm
  Cu1      1.0000 0.50000  0.00000  0.50000  Biso   1.000  Cu
  Cu2      1.0000 0.50000  0.50000  0.50000  Biso   1.000  Cu
  Cu3      1.0000 0.00000  0.50000  0.50000  Biso   1.000  Cu
  Cu4      1.0000 0.50000  0.00000  0.00000  Biso   1.000  Cu
  Cu5      1.0000 0.00000  0.50000  0.00000  Biso   1.000  Cu
  Cu6      1.0000 0.50000  0.50000  0.00000  Biso   1.000  Cu
  H1       1.0000 0.35120  0.02370  0.42220  Biso   1.000  H
  H2       1.0000 0.18100  0.86200  0.47910  Biso   1.000  H
  H3       1.0000 0.25440  0.96010  0.54980  Biso   1.000  H
  H4       1.0000 0.31480  0.91670  0.30800  Biso   1.000  H
  H5       1.0000 0.26790  0.80840  0.37190  Biso   1.000  H
  H6       1.0000 0.67250  0.64880  0.42220  Biso   1.000  H
  H7       1.0000 0.68100  0.81900  0.47910  Biso   1.000  H
  H8       1.0000 0.70570  0.74560  0.54980  Biso   1.000  H
  H9       1.0000 0.60190  0.68520  0.30800  Biso   1.000  H
  H10      1.0000 0.54050  0.73210  0.37190  Biso   1.000  H
  H11      1.0000 0.97630  0.32750  0.42220  Biso   1.000  H
  H12      1.0000 0.13800  0.31900  0.47910  Biso   1.000  H
  H13      1.0000 0.03990  0.29430  0.54980  Biso   1.000  H
  H14      1.0000 0.08330  0.39810  0.30800  Biso   1.000  H
  H15      1.0000 0.19160  0.45950  0.37190  Biso   1.000  H
  H16      1.0000 0.32750  0.97630  0.07780  Biso   1.000  H
  H17      1.0000 0.31900  0.13800  0.02090  Biso   1.000  H
  H18      1.0000 0.29430  0.03990  0.95020  Biso   1.000  H
  H19      1.0000 0.39810  0.08330  0.19200  Biso   1.000  H
  H20      1.0000 0.45950  0.19160  0.12810  Biso   1.000  H
  H21      1.0000 0.02370  0.35120  0.07780  Biso   1.000  H
  H22      1.0000 0.86200  0.18100  0.02090  Biso   1.000  H
  H23      1.0000 0.96010  0.25440  0.95020  Biso   1.000  H
  H24      1.0000 0.91670  0.31480  0.19200  Biso   1.000  H
  H25      1.0000 0.80840  0.26790  0.12810  Biso   1.000  H
  H26      1.0000 0.64880  0.67250  0.07780  Biso   1.000  H
  H27      1.0000 0.81900  0.68100  0.02090  Biso   1.000  H
  H28      1.0000 0.74560  0.70570  0.95020  Biso   1.000  H
  H29      1.0000 0.68520  0.60190  0.19200  Biso   1.000  H
  H30      1.0000 0.73210  0.54050  0.12810  Biso   1.000  H
  H31      1.0000 0.64880  0.97630  0.57780  Biso   1.000  H
  H32      1.0000 0.81900  0.13800  0.52090  Biso   1.000  H
  H33      1.0000 0.74560  0.03990  0.45020  Biso   1.000  H
  H34      1.0000 0.68520  0.08330  0.69200  Biso   1.000  H
  H35      1.0000 0.73210  0.19160  0.62810  Biso   1.000  H
  H36      1.0000 0.32750  0.35120  0.57780  Biso   1.000  H
  H37      1.0000 0.31900  0.18100  0.52090  Biso   1.000  H
  H38      1.0000 0.29430  0.25440  0.45020  Biso   1.000  H
  H39      1.0000 0.39810  0.31480  0.69200  Biso   1.000  H
  H40      1.0000 0.45950  0.26790  0.62810  Biso   1.000  H
  H41      1.0000 0.02370  0.67250  0.57780  Biso   1.000  H
  H42      1.0000 0.86200  0.68100  0.52090  Biso   1.000  H
  H43      1.0000 0.96010  0.70570  0.45020  Biso   1.000  H
  H44      1.0000 0.91670  0.60190  0.69200  Biso   1.000  H
  H45      1.0000 0.80840  0.54050  0.62810  Biso   1.000  H
  H46      1.0000 0.67250  0.02370  0.92220  Biso   1.000  H
  H47      1.0000 0.68100  0.86200  0.97910  Biso   1.000  H
  H48      1.0000 0.70570  0.96010  0.04980  Biso   1.000  H
  H49      1.0000 0.60190  0.91670  0.80800  Biso   1.000  H
  H50      1.0000 0.54050  0.80840  0.87190  Biso   1.000  H
  H51      1.0000 0.97630  0.64880  0.92220  Biso   1.000  H
  H52      1.0000 0.13800  0.81900  0.97910  Biso   1.000  H
  H53      1.0000 0.03990  0.74560  0.04980  Biso   1.000  H
  H54      1.0000 0.08330  0.68520  0.80800  Biso   1.000  H
  H55      1.0000 0.19160  0.73210  0.87190  Biso   1.000  H
  H56      1.0000 0.35120  0.32750  0.92220  Biso   1.000  H
  H57      1.0000 0.18100  0.31900  0.97910  Biso   1.000  H
  H58      1.0000 0.25440  0.29430  0.04980  Biso   1.000  H
  H59      1.0000 0.31480  0.39810  0.80800  Biso   1.000  H
  H60      1.0000 0.26790  0.45950  0.87190  Biso   1.000  H
  C1       1.0000 0.27090  0.81680  0.56810  Biso   1.000  C
  C2       1.0000 0.25460  0.90190  0.51030  Biso   1.000  C
  C3       1.0000 0.33270  0.88480  0.36110  Biso   1.000  C
  C4       1.0000 0.43750  0.87570  0.34080  Biso   1.000  C
  C5       1.0000 0.54590  0.72910  0.56810  Biso   1.000  C
  C6       1.0000 0.64730  0.74540  0.51030  Biso   1.000  C
  C7       1.0000 0.55210  0.66730  0.36110  Biso   1.000  C
  C8       1.0000 0.43820  0.56250  0.34080  Biso   1.000  C
  C9       1.0000 0.18320  0.45410  0.56810  Biso   1.000  C
  C10      1.0000 0.09810  0.35270  0.51030  Biso   1.000  C
  C11      1.0000 0.11520  0.44790  0.36110  Biso   1.000  C
  C12      1.0000 0.12430  0.56180  0.34080  Biso   1.000  C
  C13      1.0000 0.45410  0.18320  0.93190  Biso   1.000  C
  C14      1.0000 0.35270  0.09810  0.98970  Biso   1.000  C
  C15      1.0000 0.44790  0.11520  0.13890  Biso   1.000  C
  C16      1.0000 0.56180  0.12430  0.15920  Biso   1.000  C
  C17      1.0000 0.81680  0.27090  0.93190  Biso   1.000  C
  C18      1.0000 0.90190  0.25460  0.98970  Biso   1.000  C
  C19      1.0000 0.88480  0.33270  0.13890  Biso   1.000  C
  C20      1.0000 0.87570  0.43750  0.15920  Biso   1.000  C
  C21      1.0000 0.72910  0.54590  0.93190  Biso   1.000  C
  C22      1.0000 0.74540  0.64730  0.98970  Biso   1.000  C
  C23      1.0000 0.66730  0.55210  0.13890  Biso   1.000  C
  C24      1.0000 0.56250  0.43820  0.15920  Biso   1.000  C
  C25      1.0000 0.72910  0.18320  0.43190  Biso   1.000  C
  C26      1.0000 0.74540  0.09810  0.48970  Biso   1.000  C
  C27      1.0000 0.66730  0.11520  0.63890  Biso   1.000  C
  C28      1.0000 0.56250  0.12430  0.65920  Biso   1.000  C
  C29      1.0000 0.45410  0.27090  0.43190  Biso   1.000  C
  C30      1.0000 0.35270  0.25460  0.48970  Biso   1.000  C
  C31      1.0000 0.44790  0.33270  0.63890  Biso   1.000  C
  C32      1.0000 0.56180  0.43750  0.65920  Biso   1.000  C
  C33      1.0000 0.81680  0.54590  0.43190  Biso   1.000  C
  C34      1.0000 0.90190  0.64730  0.48970  Biso   1.000  C
  C35      1.0000 0.88480  0.55210  0.63890  Biso   1.000  C
  C36      1.0000 0.87570  0.43820  0.65920  Biso   1.000  C
  C37      1.0000 0.54590  0.81680  0.06810  Biso   1.000  C
  C38      1.0000 0.64730  0.90190  0.01030  Biso   1.000  C
  C39      1.0000 0.55210  0.88480  0.86110  Biso   1.000  C
  C40      1.0000 0.43820  0.87570  0.84080  Biso   1.000  C
  C41      1.0000 0.18320  0.72910  0.06810  Biso   1.000  C
  C42      1.0000 0.09810  0.74540  0.01030  Biso   1.000  C
  C43      1.0000 0.11520  0.66730  0.86110  Biso   1.000  C
  C44      1.0000 0.12430  0.56250  0.84080  Biso   1.000  C
  C45      1.0000 0.27090  0.45410  0.06810  Biso   1.000  C
  C46      1.0000 0.25460  0.35270  0.01030  Biso   1.000  C
  C47      1.0000 0.33270  0.44790  0.86110  Biso   1.000  C
  C48      1.0000 0.43750  0.56180  0.84080  Biso   1.000  C
  N1       1.0000 0.34850  0.95810  0.44180  Biso   1.000  N
  N2       1.0000 0.60960  0.65150  0.44180  Biso   1.000  N
  N3       1.0000 0.04190  0.39040  0.44180  Biso   1.000  N
  N4       1.0000 0.39040  0.04190  0.05820  Biso   1.000  N
  N5       1.0000 0.95810  0.34850  0.05820  Biso   1.000  N
  N6       1.0000 0.65150  0.60960  0.05820  Biso   1.000  N
  N7       1.0000 0.65150  0.04190  0.55820  Biso   1.000  N
  N8       1.0000 0.39040  0.34850  0.55820  Biso   1.000  N
  N9       1.0000 0.95810  0.60960  0.55820  Biso   1.000  N
  N10      1.0000 0.60960  0.95810  0.94180  Biso   1.000  N
  N11      1.0000 0.04190  0.65150  0.94180  Biso   1.000  N
  N12      1.0000 0.34850  0.39040  0.94180  Biso   1.000  N
  O1       1.0000 0.36230  0.81310  0.55700  Biso   1.000  O
  O2       1.0000 0.19650  0.75530  0.62610  Biso   1.000  O
  O3       1.0000 0.52440  0.92650  0.39290  Biso   1.000  O
  O4       1.0000 0.43540  0.81860  0.27290  Biso   1.000  O
  O5       1.0000 0.45080  0.63770  0.55700  Biso   1.000  O
  O6       1.0000 0.55880  0.80350  0.62610  Biso   1.000  O
  O7       1.0000 0.40210  0.47560  0.39290  Biso   1.000  O
  O8       1.0000 0.38320  0.56460  0.27290  Biso   1.000  O
  O9       1.0000 0.18690  0.54920  0.55700  Biso   1.000  O
  O10      1.0000 0.24470  0.44120  0.62610  Biso   1.000  O
  O11      1.0000 0.07350  0.59790  0.39290  Biso   1.000  O
  O12      1.0000 0.18140  0.61680  0.27290  Biso   1.000  O
  O13      1.0000 0.54920  0.18690  0.94300  Biso   1.000  O
  O14      1.0000 0.44120  0.24470  0.87390  Biso   1.000  O
  O15      1.0000 0.59790  0.07350  0.10710  Biso   1.000  O
  O16      1.0000 0.61680  0.18140  0.22710  Biso   1.000  O
  O17      1.0000 0.81310  0.36230  0.94300  Biso   1.000  O
  O18      1.0000 0.75530  0.19650  0.87390  Biso   1.000  O
  O19      1.0000 0.92650  0.52440  0.10710  Biso   1.000  O
  O20      1.0000 0.81860  0.43540  0.22710  Biso   1.000  O
  O21      1.0000 0.63770  0.45080  0.94300  Biso   1.000  O
  O22      1.0000 0.80350  0.55880  0.87390  Biso   1.000  O
  O23      1.0000 0.47560  0.40210  0.10710  Biso   1.000  O
  O24      1.0000 0.56460  0.38320  0.22710  Biso   1.000  O
  O25      1.0000 0.63770  0.18690  0.44300  Biso   1.000  O
  O26      1.0000 0.80350  0.24470  0.37390  Biso   1.000  O
  O27      1.0000 0.47560  0.07350  0.60710  Biso   1.000  O
  O28      1.0000 0.56460  0.18140  0.72710  Biso   1.000  O
  O29      1.0000 0.54920  0.36230  0.44300  Biso   1.000  O
  O30      1.0000 0.44120  0.19650  0.37390  Biso   1.000  O
  O31      1.0000 0.59790  0.52440  0.60710  Biso   1.000  O
  O32      1.0000 0.61680  0.43540  0.72710  Biso   1.000  O
  O33      1.0000 0.81310  0.45080  0.44300  Biso   1.000  O
  O34      1.0000 0.75530  0.55880  0.37390  Biso   1.000  O
  O35      1.0000 0.92650  0.40210  0.60710  Biso   1.000  O
  O36      1.0000 0.81860  0.38320  0.72710  Biso   1.000  O
  O37      1.0000 0.45080  0.81310  0.05700  Biso   1.000  O
  O38      1.0000 0.55880  0.75530  0.12610  Biso   1.000  O
  O39      1.0000 0.40210  0.92650  0.89290  Biso   1.000  O
  O40      1.0000 0.38320  0.81860  0.77290  Biso   1.000  O
  O41      1.0000 0.18690  0.63770  0.05700  Biso   1.000  O
  O42      1.0000 0.24470  0.80350  0.12610  Biso   1.000  O
  O43      1.0000 0.07350  0.47560  0.89290  Biso   1.000  O
  O44      1.0000 0.18140  0.56460  0.77290  Biso   1.000  O
  O45      1.0000 0.36230  0.54920  0.05700  Biso   1.000  O
  O46      1.0000 0.19650  0.44120  0.12610  Biso   1.000  O
  O47      1.0000 0.52440  0.59790  0.89290  Biso   1.000  O
  O48      1.0000 0.43540  0.61680  0.77290  Biso   1.000  O
