data_image0
_cell_length_a       13.4946
_cell_length_b       13.4946
_cell_length_c       14.912
_cell_angle_alpha    90
_cell_angle_beta     90
_cell_angle_gamma    120

_symmetry_space_group_name_H-M    P 1
_symmetry_int_tables_number       1

loop_
  _symmetry_equiv_pos_as_xyz
  'x, y, z'

loop_
  _atom_site_label
  _atom_site_occupancy
  _atom_site_fract_x
  _atom_site_fract_y
  _atom_site_fract_z
  _atom_site_thermal_displace_type
  _atom_site_B_iso_or_equiv
  _atom_site_type_symbol
  La1      1.0000 0.33333  0.66666  0.66912  Biso   1.000  La
  La2      1.0000 0.66667  0.33334  0.83088  Biso   1.000  La
  La3      1.0000 0.66667  0.33334  0.33088  Biso   1.000  La
  La4      1.0000 0.33333  0.66666  0.16912  Biso   1.000  La
  Cu1      1.0000 0.50000  0.00000  0.50000  Biso   1.000  Cu
  Cu2      1.0000 0.50000  0.50000  0.50000  Biso   1.000  Cu
  Cu3      1.0000 0.00000  0.50000  0.50000  Biso   1.000  Cu
  Cu4      1.0000 0.50000  0.00000  0.00000  Biso   1.000  Cu
  Cu5      1.0000 0.00000  0.50000  0.00000  Biso   1.000  Cu
  Cu6      1.0000 0.50000  0.50000  0.00000  Biso   1.000  Cu
  H1       1.0000 0.35280  0.02560  0.42330  Biso   1.000  H
  H2       1.0000 0.18330  0.86380  0.47790  Biso   1.000  H
  H3       1.0000 0.25530  0.96180  0.54690  Biso   1.000  H
  H4       1.0000 0.31640  0.91960  0.31150  Biso   1.000  H
  H5       1.0000 0.26960  0.81170  0.37360  Biso   1.000  H
  H6       1.0000 0.67280  0.64720  0.42330  Biso   1.000  H
  H7       1.0000 0.68050  0.81670  0.47790  Biso   1.000  H
  H8       1.0000 0.70650  0.74470  0.54690  Biso   1.000  H
  H9       1.0000 0.60320  0.68360  0.31150  Biso   1.000  H
  H10      1.0000 0.54210  0.73040  0.37360  Biso   1.000  H
  H11      1.0000 0.97440  0.32720  0.42330  Biso   1.000  H
  H12      1.0000 0.13620  0.31950  0.47790  Biso   1.000  H
  H13      1.0000 0.03820  0.29350  0.54690  Biso   1.000  H
  H14      1.0000 0.08040  0.39680  0.31150  Biso   1.000  H
  H15      1.0000 0.18830  0.45790  0.37360  Biso   1.000  H
  H16      1.0000 0.32720  0.97440  0.07670  Biso   1.000  H
  H17      1.0000 0.31950  0.13620  0.02210  Biso   1.000  H
  H18      1.0000 0.29350  0.03820  0.95310  Biso   1.000  H
  H19      1.0000 0.39680  0.08040  0.18850  Biso   1.000  H
  H20      1.0000 0.45790  0.18830  0.12640  Biso   1.000  H
  H21      1.0000 0.02560  0.35280  0.07670  Biso   1.000  H
  H22      1.0000 0.86380  0.18330  0.02210  Biso   1.000  H
  H23      1.0000 0.96180  0.25530  0.95310  Biso   1.000  H
  H24      1.0000 0.91960  0.31640  0.18850  Biso   1.000  H
  H25      1.0000 0.81170  0.26960  0.12640  Biso   1.000  H
  H26      1.0000 0.64720  0.67280  0.07670  Biso   1.000  H
  H27      1.0000 0.81670  0.68050  0.02210  Biso   1.000  H
  H28      1.0000 0.74470  0.70650  0.95310  Biso   1.000  H
  H29      1.0000 0.68360  0.60320  0.18850  Biso   1.000  H
  H30      1.0000 0.73040  0.54210  0.12640  Biso   1.000  H
  H31      1.0000 0.64720  0.97440  0.57670  Biso   1.000  H
  H32      1.0000 0.81670  0.13620  0.52210  Biso   1.000  H
  H33      1.0000 0.74470  0.03820  0.45310  Biso   1.000  H
  H34      1.0000 0.68360  0.08040  0.68850  Biso   1.000  H
  H35      1.0000 0.73040  0.18830  0.62640  Biso   1.000  H
  H36      1.0000 0.32720  0.35280  0.57670  Biso   1.000  H
  H37      1.0000 0.31950  0.18330  0.52210  Biso   1.000  H
  H38      1.0000 0.29350  0.25530  0.45310  Biso   1.000  H
  H39      1.0000 0.39680  0.31640  0.68850  Biso   1.000  H
  H40      1.0000 0.45790  0.26960  0.62640  Biso   1.000  H
  H41      1.0000 0.02560  0.67280  0.57670  Biso   1.000  H
  H42      1.0000 0.86380  0.68050  0.52210  Biso   1.000  H
  H43      1.0000 0.96180  0.70650  0.45310  Biso   1.000  H
  H44      1.0000 0.91960  0.60320  0.68850  Biso   1.000  H
  H45      1.0000 0.81170  0.54210  0.62640  Biso   1.000  H
  H46      1.0000 0.67280  0.02560  0.92330  Biso   1.000  H
  H47      1.0000 0.68050  0.86380  0.97790  Biso   1.000  H
  H48      1.0000 0.70650  0.96180  0.04690  Biso   1.000  H
  H49      1.0000 0.60320  0.91960  0.81150  Biso   1.000  H
  H50      1.0000 0.54210  0.81170  0.87360  Biso   1.000  H
  H51      1.0000 0.97440  0.64720  0.92330  Biso   1.000  H
  H52      1.0000 0.13620  0.81670  0.97790  Biso   1.000  H
  H53      1.0000 0.03820  0.74470  0.04690  Biso   1.000  H
  H54      1.0000 0.08040  0.68360  0.81150  Biso   1.000  H
  H55      1.0000 0.18830  0.73040  0.87360  Biso   1.000  H
  H56      1.0000 0.35280  0.32720  0.92330  Biso   1.000  H
  H57      1.0000 0.18330  0.31950  0.97790  Biso   1.000  H
  H58      1.0000 0.25530  0.29350  0.04690  Biso   1.000  H
  H59      1.0000 0.31640  0.39680  0.81150  Biso   1.000  H
  H60      1.0000 0.26960  0.45790  0.87360  Biso   1.000  H
  C1       1.0000 0.27290  0.81990  0.56590  Biso   1.000  C
  C2       1.0000 0.25630  0.90410  0.50870  Biso   1.000  C
  C3       1.0000 0.33410  0.88770  0.36320  Biso   1.000  C
  C4       1.0000 0.43930  0.87840  0.34290  Biso   1.000  C
  C5       1.0000 0.54700  0.72710  0.56590  Biso   1.000  C
  C6       1.0000 0.64780  0.74370  0.50870  Biso   1.000  C
  C7       1.0000 0.55360  0.66590  0.36320  Biso   1.000  C
  C8       1.0000 0.43910  0.56070  0.34290  Biso   1.000  C
  C9       1.0000 0.18010  0.45300  0.56590  Biso   1.000  C
  C10      1.0000 0.09590  0.35220  0.50870  Biso   1.000  C
  C11      1.0000 0.11230  0.44640  0.36320  Biso   1.000  C
  C12      1.0000 0.12160  0.56090  0.34290  Biso   1.000  C
  C13      1.0000 0.45300  0.18010  0.93410  Biso   1.000  C
  C14      1.0000 0.35220  0.09590  0.99130  Biso   1.000  C
  C15      1.0000 0.44640  0.11230  0.13680  Biso   1.000  C
  C16      1.0000 0.56090  0.12160  0.15710  Biso   1.000  C
  C17      1.0000 0.81990  0.27290  0.93410  Biso   1.000  C
  C18      1.0000 0.90410  0.25630  0.99130  Biso   1.000  C
  C19      1.0000 0.88770  0.33410  0.13680  Biso   1.000  C
  C20      1.0000 0.87840  0.43930  0.15710  Biso   1.000  C
  C21      1.0000 0.72710  0.54700  0.93410  Biso   1.000  C
  C22      1.0000 0.74370  0.64780  0.99130  Biso   1.000  C
  C23      1.0000 0.66590  0.55360  0.13680  Biso   1.000  C
  C24      1.0000 0.56070  0.43910  0.15710  Biso   1.000  C
  C25      1.0000 0.72710  0.18010  0.43410  Biso   1.000  C
  C26      1.0000 0.74370  0.09590  0.49130  Biso   1.000  C
  C27      1.0000 0.66590  0.11230  0.63680  Biso   1.000  C
  C28      1.0000 0.56070  0.12160  0.65710  Biso   1.000  C
  C29      1.0000 0.45300  0.27290  0.43410  Biso   1.000  C
  C30      1.0000 0.35220  0.25630  0.49130  Biso   1.000  C
  C31      1.0000 0.44640  0.33410  0.63680  Biso   1.000  C
  C32      1.0000 0.56090  0.43930  0.65710  Biso   1.000  C
  C33      1.0000 0.81990  0.54700  0.43410  Biso   1.000  C
  C34      1.0000 0.90410  0.64780  0.49130  Biso   1.000  C
  C35      1.0000 0.88770  0.55360  0.63680  Biso   1.000  C
  C36      1.0000 0.87840  0.43910  0.65710  Biso   1.000  C
  C37      1.0000 0.54700  0.81990  0.06590  Biso   1.000  C
  C38      1.0000 0.64780  0.90410  0.00870  Biso   1.000  C
  C39      1.0000 0.55360  0.88770  0.86320  Biso   1.000  C
  C40      1.0000 0.43910  0.87840  0.84290  Biso   1.000  C
  C41      1.0000 0.18010  0.72710  0.06590  Biso   1.000  C
  C42      1.0000 0.09590  0.74370  0.00870  Biso   1.000  C
  C43      1.0000 0.11230  0.66590  0.86320  Biso   1.000  C
  C44      1.0000 0.12160  0.56070  0.84290  Biso   1.000  C
  C45      1.0000 0.27290  0.45300  0.06590  Biso   1.000  C
  C46      1.0000 0.25630  0.35220  0.00870  Biso   1.000  C
  C47      1.0000 0.33410  0.44640  0.86320  Biso   1.000  C
  C48      1.0000 0.43930  0.56090  0.84290  Biso   1.000  C
  N1       1.0000 0.34950  0.95990  0.44220  Biso   1.000  N
  N2       1.0000 0.61040  0.65050  0.44220  Biso   1.000  N
  N3       1.0000 0.04010  0.38960  0.44220  Biso   1.000  N
  N4       1.0000 0.38960  0.04010  0.05780  Biso   1.000  N
  N5       1.0000 0.95990  0.34950  0.05780  Biso   1.000  N
  N6       1.0000 0.65050  0.61040  0.05780  Biso   1.000  N
  N7       1.0000 0.65050  0.04010  0.55780  Biso   1.000  N
  N8       1.0000 0.38960  0.34950  0.55780  Biso   1.000  N
  N9       1.0000 0.95990  0.61040  0.55780  Biso   1.000  N
  N10      1.0000 0.61040  0.95990  0.94220  Biso   1.000  N
  N11      1.0000 0.04010  0.65050  0.94220  Biso   1.000  N
  N12      1.0000 0.34950  0.38960  0.94220  Biso   1.000  N
  O1       1.0000 0.36430  0.81700  0.55600  Biso   1.000  O
  O2       1.0000 0.19870  0.75970  0.62250  Biso   1.000  O
  O3       1.0000 0.52370  0.92700  0.39521  Biso   1.000  O
  O4       1.0000 0.43620  0.82340  0.27590  Biso   1.000  O
  O5       1.0000 0.45270  0.63570  0.55600  Biso   1.000  O
  O6       1.0000 0.56100  0.80130  0.62250  Biso   1.000  O
  O7       1.0000 0.40330  0.47630  0.39521  Biso   1.000  O
  O8       1.0000 0.38720  0.56380  0.27590  Biso   1.000  O
  O9       1.0000 0.18300  0.54730  0.55600  Biso   1.000  O
  O10      1.0000 0.24030  0.43900  0.62250  Biso   1.000  O
  O11      1.0000 0.07300  0.59670  0.39521  Biso   1.000  O
  O12      1.0000 0.17660  0.61280  0.27590  Biso   1.000  O
  O13      1.0000 0.54730  0.18300  0.94400  Biso   1.000  O
  O14      1.0000 0.43900  0.24030  0.87750  Biso   1.000  O
  O15      1.0000 0.59670  0.07300  0.10479  Biso   1.000  O
  O16      1.0000 0.61280  0.17660  0.22410  Biso   1.000  O
  O17      1.0000 0.81700  0.36430  0.94400  Biso   1.000  O
  O18      1.0000 0.75970  0.19870  0.87750  Biso   1.000  O
  O19      1.0000 0.92700  0.52370  0.10479  Biso   1.000  O
  O20      1.0000 0.82340  0.43620  0.22410  Biso   1.000  O
  O21      1.0000 0.63570  0.45270  0.94400  Biso   1.000  O
  O22      1.0000 0.80130  0.56100  0.87750  Biso   1.000  O
  O23      1.0000 0.47630  0.40330  0.10479  Biso   1.000  O
  O24      1.0000 0.56380  0.38720  0.22410  Biso   1.000  O
  O25      1.0000 0.63570  0.18300  0.44400  Biso   1.000  O
  O26      1.0000 0.80130  0.24030  0.37750  Biso   1.000  O
  O27      1.0000 0.47630  0.07300  0.60479  Biso   1.000  O
  O28      1.0000 0.56380  0.17660  0.72410  Biso   1.000  O
  O29      1.0000 0.54730  0.36430  0.44400  Biso   1.000  O
  O30      1.0000 0.43900  0.19870  0.37750  Biso   1.000  O
  O31      1.0000 0.59670  0.52370  0.60479  Biso   1.000  O
  O32      1.0000 0.61280  0.43620  0.72410  Biso   1.000  O
  O33      1.0000 0.81700  0.45270  0.44400  Biso   1.000  O
  O34      1.0000 0.75970  0.56100  0.37750  Biso   1.000  O
  O35      1.0000 0.92700  0.40330  0.60479  Biso   1.000  O
  O36      1.0000 0.82340  0.38720  0.72410  Biso   1.000  O
  O37      1.0000 0.45270  0.81700  0.05600  Biso   1.000  O
  O38      1.0000 0.56100  0.75970  0.12250  Biso   1.000  O
  O39      1.0000 0.40330  0.92700  0.89521  Biso   1.000  O
  O40      1.0000 0.38720  0.82340  0.77590  Biso   1.000  O
  O41      1.0000 0.18300  0.63570  0.05600  Biso   1.000  O
  O42      1.0000 0.24030  0.80130  0.12250  Biso   1.000  O
  O43      1.0000 0.07300  0.47630  0.89521  Biso   1.000  O
  O44      1.0000 0.17660  0.56380  0.77590  Biso   1.000  O
  O45      1.0000 0.36430  0.54730  0.05600  Biso   1.000  O
  O46      1.0000 0.19870  0.43900  0.12250  Biso   1.000  O
  O47      1.0000 0.52370  0.59670  0.89521  Biso   1.000  O
  O48      1.0000 0.43620  0.61280  0.77590  Biso   1.000  O
