data_image0
_cell_length_a       13.4147
_cell_length_b       13.4147
_cell_length_c       14.4622
_cell_angle_alpha    90
_cell_angle_beta     90
_cell_angle_gamma    120

_symmetry_space_group_name_H-M    P 1
_symmetry_int_tables_number       1

loop_
  _symmetry_equiv_pos_as_xyz
  'x, y, z'

loop_
  _atom_site_label
  _atom_site_occupancy
  _atom_site_fract_x
  _atom_site_fract_y
  _atom_site_fract_z
  _atom_site_thermal_displace_type
  _atom_site_B_iso_or_equiv
  _atom_site_type_symbol
  Gd1      1.0000 0.33333  0.66666  0.66730  Biso   1.000  Gd
  Gd2      1.0000 0.66667  0.33334  0.83270  Biso   1.000  Gd
  Gd3      1.0000 0.66667  0.33334  0.33270  Biso   1.000  Gd
  Gd4      1.0000 0.33333  0.66666  0.16730  Biso   1.000  Gd
  Cu1      1.0000 0.50000  0.00000  0.50000  Biso   1.000  Cu
  Cu2      1.0000 0.50000  0.50000  0.50000  Biso   1.000  Cu
  Cu3      1.0000 0.00000  0.50000  0.50000  Biso   1.000  Cu
  Cu4      1.0000 0.50000  0.00000  0.00000  Biso   1.000  Cu
  Cu5      1.0000 0.00000  0.50000  0.00000  Biso   1.000  Cu
  Cu6      1.0000 0.50000  0.50000  0.00000  Biso   1.000  Cu
  H1       1.0000 0.70450  0.95960  0.55100  Biso   1.000  H
  H2       1.0000 0.68170  0.86230  0.47960  Biso   1.000  H
  H3       1.0000 0.54000  0.80730  0.37160  Biso   1.000  H
  H4       1.0000 0.60160  0.91490  0.30660  Biso   1.000  H
  H5       1.0000 0.67270  0.02310  0.42120  Biso   1.000  H
  H6       1.0000 0.25510  0.29550  0.55100  Biso   1.000  H
  H7       1.0000 0.18060  0.31830  0.47960  Biso   1.000  H
  H8       1.0000 0.26730  0.46000  0.37160  Biso   1.000  H
  H9       1.0000 0.31330  0.39840  0.30660  Biso   1.000  H
  H10      1.0000 0.35040  0.32730  0.42120  Biso   1.000  H
  H11      1.0000 0.04040  0.74490  0.55100  Biso   1.000  H
  H12      1.0000 0.13770  0.81940  0.47960  Biso   1.000  H
  H13      1.0000 0.19270  0.73270  0.37160  Biso   1.000  H
  H14      1.0000 0.08510  0.68670  0.30660  Biso   1.000  H
  H15      1.0000 0.97690  0.64960  0.42120  Biso   1.000  H
  H16      1.0000 0.74490  0.04040  0.94900  Biso   1.000  H
  H17      1.0000 0.81940  0.13770  0.02040  Biso   1.000  H
  H18      1.0000 0.73270  0.19270  0.12840  Biso   1.000  H
  H19      1.0000 0.68670  0.08510  0.19340  Biso   1.000  H
  H20      1.0000 0.64960  0.97690  0.07880  Biso   1.000  H
  H21      1.0000 0.95960  0.70450  0.94900  Biso   1.000  H
  H22      1.0000 0.86230  0.68170  0.02040  Biso   1.000  H
  H23      1.0000 0.80730  0.54000  0.12840  Biso   1.000  H
  H24      1.0000 0.91490  0.60160  0.19340  Biso   1.000  H
  H25      1.0000 0.02310  0.67270  0.07880  Biso   1.000  H
  H26      1.0000 0.29550  0.25510  0.94900  Biso   1.000  H
  H27      1.0000 0.31830  0.18060  0.02040  Biso   1.000  H
  H28      1.0000 0.46000  0.26730  0.12840  Biso   1.000  H
  H29      1.0000 0.39840  0.31330  0.19340  Biso   1.000  H
  H30      1.0000 0.32730  0.35040  0.07880  Biso   1.000  H
  H31      1.0000 0.29550  0.04040  0.44900  Biso   1.000  H
  H32      1.0000 0.31830  0.13770  0.52040  Biso   1.000  H
  H33      1.0000 0.46000  0.19270  0.62840  Biso   1.000  H
  H34      1.0000 0.39840  0.08510  0.69340  Biso   1.000  H
  H35      1.0000 0.32730  0.97690  0.57880  Biso   1.000  H
  H36      1.0000 0.74490  0.70450  0.44900  Biso   1.000  H
  H37      1.0000 0.81940  0.68170  0.52040  Biso   1.000  H
  H38      1.0000 0.73270  0.54000  0.62840  Biso   1.000  H
  H39      1.0000 0.68670  0.60160  0.69340  Biso   1.000  H
  H40      1.0000 0.64960  0.67270  0.57880  Biso   1.000  H
  H41      1.0000 0.95960  0.25510  0.44900  Biso   1.000  H
  H42      1.0000 0.86230  0.18060  0.52040  Biso   1.000  H
  H43      1.0000 0.80730  0.26730  0.62840  Biso   1.000  H
  H44      1.0000 0.91490  0.31330  0.69340  Biso   1.000  H
  H45      1.0000 0.02310  0.35040  0.57880  Biso   1.000  H
  H46      1.0000 0.25510  0.95960  0.05100  Biso   1.000  H
  H47      1.0000 0.18060  0.86230  0.97960  Biso   1.000  H
  H48      1.0000 0.26730  0.80730  0.87160  Biso   1.000  H
  H49      1.0000 0.31330  0.91490  0.80660  Biso   1.000  H
  H50      1.0000 0.35040  0.02310  0.92120  Biso   1.000  H
  H51      1.0000 0.04040  0.29550  0.05100  Biso   1.000  H
  H52      1.0000 0.13770  0.31830  0.97960  Biso   1.000  H
  H53      1.0000 0.19270  0.46000  0.87160  Biso   1.000  H
  H54      1.0000 0.08510  0.39840  0.80660  Biso   1.000  H
  H55      1.0000 0.97690  0.32730  0.92120  Biso   1.000  H
  H56      1.0000 0.70450  0.74490  0.05100  Biso   1.000  H
  H57      1.0000 0.68170  0.81940  0.97960  Biso   1.000  H
  H58      1.0000 0.54000  0.73270  0.87160  Biso   1.000  H
  H59      1.0000 0.60160  0.68670  0.80660  Biso   1.000  H
  H60      1.0000 0.67270  0.64960  0.92120  Biso   1.000  H
  C1       1.0000 0.54560  0.81570  0.56800  Biso   1.000  C
  C2       1.0000 0.64700  0.90150  0.51080  Biso   1.000  C
  C3       1.0000 0.55200  0.88380  0.36020  Biso   1.000  C
  C4       1.0000 0.43780  0.87530  0.33970  Biso   1.000  C
  C5       1.0000 0.27010  0.45440  0.56800  Biso   1.000  C
  C6       1.0000 0.25450  0.35300  0.51080  Biso   1.000  C
  C7       1.0000 0.33180  0.44800  0.36020  Biso   1.000  C
  C8       1.0000 0.43750  0.56220  0.33970  Biso   1.000  C
  C9       1.0000 0.18430  0.72990  0.56800  Biso   1.000  C
  C10      1.0000 0.09850  0.74550  0.51080  Biso   1.000  C
  C11      1.0000 0.11620  0.66820  0.36020  Biso   1.000  C
  C12      1.0000 0.12470  0.56250  0.33970  Biso   1.000  C
  C13      1.0000 0.72990  0.18430  0.93200  Biso   1.000  C
  C14      1.0000 0.74550  0.09850  0.98920  Biso   1.000  C
  C15      1.0000 0.66820  0.11620  0.13980  Biso   1.000  C
  C16      1.0000 0.56250  0.12470  0.16030  Biso   1.000  C
  C17      1.0000 0.81570  0.54560  0.93200  Biso   1.000  C
  C18      1.0000 0.90150  0.64700  0.98920  Biso   1.000  C
  C19      1.0000 0.88380  0.55200  0.13980  Biso   1.000  C
  C20      1.0000 0.87530  0.43780  0.16030  Biso   1.000  C
  C21      1.0000 0.45440  0.27010  0.93200  Biso   1.000  C
  C22      1.0000 0.35300  0.25450  0.98920  Biso   1.000  C
  C23      1.0000 0.44800  0.33180  0.13980  Biso   1.000  C
  C24      1.0000 0.56220  0.43750  0.16030  Biso   1.000  C
  C25      1.0000 0.45440  0.18430  0.43200  Biso   1.000  C
  C26      1.0000 0.35300  0.09850  0.48920  Biso   1.000  C
  C27      1.0000 0.44800  0.11620  0.63980  Biso   1.000  C
  C28      1.0000 0.56220  0.12470  0.66030  Biso   1.000  C
  C29      1.0000 0.72990  0.54560  0.43200  Biso   1.000  C
  C30      1.0000 0.74550  0.64700  0.48920  Biso   1.000  C
  C31      1.0000 0.66820  0.55200  0.63980  Biso   1.000  C
  C32      1.0000 0.56250  0.43780  0.66030  Biso   1.000  C
  C33      1.0000 0.81570  0.27010  0.43200  Biso   1.000  C
  C34      1.0000 0.90150  0.25450  0.48920  Biso   1.000  C
  C35      1.0000 0.88380  0.33180  0.63980  Biso   1.000  C
  C36      1.0000 0.87530  0.43750  0.66030  Biso   1.000  C
  C37      1.0000 0.27010  0.81570  0.06800  Biso   1.000  C
  C38      1.0000 0.25450  0.90150  0.01080  Biso   1.000  C
  C39      1.0000 0.33180  0.88380  0.86020  Biso   1.000  C
  C40      1.0000 0.43750  0.87530  0.83970  Biso   1.000  C
  C41      1.0000 0.18430  0.45440  0.06800  Biso   1.000  C
  C42      1.0000 0.09850  0.35300  0.01080  Biso   1.000  C
  C43      1.0000 0.11620  0.44800  0.86020  Biso   1.000  C
  C44      1.0000 0.12470  0.56220  0.83970  Biso   1.000  C
  C45      1.0000 0.54560  0.72990  0.06800  Biso   1.000  C
  C46      1.0000 0.64700  0.74550  0.01080  Biso   1.000  C
  C47      1.0000 0.55200  0.66820  0.86020  Biso   1.000  C
  C48      1.0000 0.43780  0.56250  0.83970  Biso   1.000  C
  N1       1.0000 0.60970  0.95760  0.44110  Biso   1.000  N
  N2       1.0000 0.34790  0.39030  0.44110  Biso   1.000  N
  N3       1.0000 0.04240  0.65210  0.44110  Biso   1.000  N
  N4       1.0000 0.65210  0.04240  0.05890  Biso   1.000  N
  N5       1.0000 0.95760  0.60970  0.05890  Biso   1.000  N
  N6       1.0000 0.39030  0.34790  0.05890  Biso   1.000  N
  N7       1.0000 0.39030  0.04240  0.55890  Biso   1.000  N
  N8       1.0000 0.65210  0.60970  0.55890  Biso   1.000  N
  N9       1.0000 0.95760  0.34790  0.55890  Biso   1.000  N
  N10      1.0000 0.34790  0.95760  0.94110  Biso   1.000  N
  N11      1.0000 0.04240  0.39030  0.94110  Biso   1.000  N
  N12      1.0000 0.60970  0.65210  0.94110  Biso   1.000  N
  O1       1.0000 0.45020  0.81210  0.55740  Biso   1.000  O
  O2       1.0000 0.55790  0.75400  0.62650  Biso   1.000  O
  O3       1.0000 0.40240  0.92680  0.39200  Biso   1.000  O
  O4       1.0000 0.38180  0.81680  0.27170  Biso   1.000  O
  O5       1.0000 0.36190  0.54980  0.55740  Biso   1.000  O
  O6       1.0000 0.19610  0.44210  0.62650  Biso   1.000  O
  O7       1.0000 0.52440  0.59760  0.39200  Biso   1.000  O
  O8       1.0000 0.43500  0.61820  0.27170  Biso   1.000  O
  O9       1.0000 0.18790  0.63810  0.55740  Biso   1.000  O
  O10      1.0000 0.24600  0.80390  0.62650  Biso   1.000  O
  O11      1.0000 0.07320  0.47560  0.39200  Biso   1.000  O
  O12      1.0000 0.18320  0.56500  0.27170  Biso   1.000  O
  O13      1.0000 0.63810  0.18790  0.94260  Biso   1.000  O
  O14      1.0000 0.80390  0.24600  0.87350  Biso   1.000  O
  O15      1.0000 0.47560  0.07320  0.10800  Biso   1.000  O
  O16      1.0000 0.56500  0.18320  0.22830  Biso   1.000  O
  O17      1.0000 0.81210  0.45020  0.94260  Biso   1.000  O
  O18      1.0000 0.75400  0.55790  0.87350  Biso   1.000  O
  O19      1.0000 0.92680  0.40240  0.10800  Biso   1.000  O
  O20      1.0000 0.81680  0.38180  0.22830  Biso   1.000  O
  O21      1.0000 0.54980  0.36190  0.94260  Biso   1.000  O
  O22      1.0000 0.44210  0.19610  0.87350  Biso   1.000  O
  O23      1.0000 0.59760  0.52440  0.10800  Biso   1.000  O
  O24      1.0000 0.61820  0.43500  0.22830  Biso   1.000  O
  O25      1.0000 0.54980  0.18790  0.44260  Biso   1.000  O
  O26      1.0000 0.44210  0.24600  0.37350  Biso   1.000  O
  O27      1.0000 0.59760  0.07320  0.60800  Biso   1.000  O
  O28      1.0000 0.61820  0.18320  0.72830  Biso   1.000  O
  O29      1.0000 0.63810  0.45020  0.44260  Biso   1.000  O
  O30      1.0000 0.80390  0.55790  0.37350  Biso   1.000  O
  O31      1.0000 0.47560  0.40240  0.60800  Biso   1.000  O
  O32      1.0000 0.56500  0.38180  0.72830  Biso   1.000  O
  O33      1.0000 0.81210  0.36190  0.44260  Biso   1.000  O
  O34      1.0000 0.75400  0.19610  0.37350  Biso   1.000  O
  O35      1.0000 0.92680  0.52440  0.60800  Biso   1.000  O
  O36      1.0000 0.81680  0.43500  0.72830  Biso   1.000  O
  O37      1.0000 0.36190  0.81210  0.05740  Biso   1.000  O
  O38      1.0000 0.19610  0.75400  0.12650  Biso   1.000  O
  O39      1.0000 0.52440  0.92680  0.89200  Biso   1.000  O
  O40      1.0000 0.43500  0.81680  0.77170  Biso   1.000  O
  O41      1.0000 0.18790  0.54980  0.05740  Biso   1.000  O
  O42      1.0000 0.24600  0.44210  0.12650  Biso   1.000  O
  O43      1.0000 0.07320  0.59760  0.89200  Biso   1.000  O
  O44      1.0000 0.18320  0.61820  0.77170  Biso   1.000  O
  O45      1.0000 0.45020  0.63810  0.05740  Biso   1.000  O
  O46      1.0000 0.55790  0.80390  0.12650  Biso   1.000  O
  O47      1.0000 0.40240  0.47560  0.89200  Biso   1.000  O
  O48      1.0000 0.38180  0.56500  0.77170  Biso   1.000  O
