data_image0
_cell_length_a       10.4868
_cell_length_b       17.7786
_cell_length_c       17.7786
_cell_angle_alpha    120
_cell_angle_beta     90
_cell_angle_gamma    90

_symmetry_space_group_name_H-M    P 1
_symmetry_int_tables_number       1

loop_
  _symmetry_equiv_pos_as_xyz
  'x, y, z'

loop_
  _atom_site_label
  _atom_site_occupancy
  _atom_site_fract_x
  _atom_site_fract_y
  _atom_site_fract_z
  _atom_site_thermal_displace_type
  _atom_site_B_iso_or_equiv
  _atom_site_type_symbol
  Zn1      1.0000 0.92276  0.92957  0.47219  Biso   1.000  Zn
  Zn2      1.0000 0.25609  0.54262  0.07043  Biso   1.000  Zn
  Zn3      1.0000 0.58943  0.52781  0.45738  Biso   1.000  Zn
  Zn4      1.0000 0.42276  0.07043  0.52781  Biso   1.000  Zn
  Zn5      1.0000 0.75609  0.45738  0.92957  Biso   1.000  Zn
  Zn6      1.0000 0.08943  0.47219  0.54262  Biso   1.000  Zn
  H1       1.0000 0.83100  0.07960  0.55370  Biso   1.000  H
  H2       1.0000 0.63630  0.30200  0.77890  Biso   1.000  H
  H3       1.0000 0.95730  0.32360  0.89660  Biso   1.000  H
  H4       1.0000 0.01220  0.18200  0.79460  Biso   1.000  H
  H5       1.0000 0.67990  0.16360  0.67730  Biso   1.000  H
  H6       1.0000 0.96270  0.04800  0.66880  Biso   1.000  H
  H7       1.0000 0.81750  0.02690  0.64860  Biso   1.000  H
  H8       1.0000 0.03540  0.15330  0.62560  Biso   1.000  H
  H9       1.0000 0.06230  0.19630  0.52170  Biso   1.000  H
  H10      1.0000 0.86490  0.08040  0.42670  Biso   1.000  H
  H11      1.0000 0.00770  0.07010  0.39700  Biso   1.000  H
  H12      1.0000 0.92540  0.14660  0.40310  Biso   1.000  H
  H13      1.0000 0.87350  0.27400  0.54710  Biso   1.000  H
  H14      1.0000 0.92180  0.27800  0.63250  Biso   1.000  H
  H15      1.0000 0.80880  0.21620  0.57990  Biso   1.000  H
  H16      1.0000 0.16433  0.47410  0.92040  Biso   1.000  H
  H17      1.0000 0.96963  0.47690  0.69800  Biso   1.000  H
  H18      1.0000 0.29063  0.57300  0.67640  Biso   1.000  H
  H19      1.0000 0.34553  0.61260  0.81800  Biso   1.000  H
  H20      1.0000 0.01323  0.51370  0.83640  Biso   1.000  H
  H21      1.0000 0.29603  0.62080  0.95200  Biso   1.000  H
  H22      1.0000 0.15083  0.62170  0.97310  Biso   1.000  H
  H23      1.0000 0.36873  0.47230  0.84670  Biso   1.000  H
  H24      1.0000 0.39563  0.32540  0.80370  Biso   1.000  H
  H25      1.0000 0.19823  0.34630  0.91960  Biso   1.000  H
  H26      1.0000 0.34103  0.32690  0.92990  Biso   1.000  H
  H27      1.0000 0.25873  0.25650  0.85340  Biso   1.000  H
  H28      1.0000 0.20683  0.27310  0.72600  Biso   1.000  H
  H29      1.0000 0.25513  0.35450  0.72200  Biso   1.000  H
  H30      1.0000 0.14213  0.36370  0.78380  Biso   1.000  H
  H31      1.0000 0.49767  0.44630  0.52590  Biso   1.000  H
  H32      1.0000 0.30297  0.22110  0.52310  Biso   1.000  H
  H33      1.0000 0.62397  0.10340  0.42700  Biso   1.000  H
  H34      1.0000 0.67887  0.20540  0.38740  Biso   1.000  H
  H35      1.0000 0.34657  0.32270  0.48630  Biso   1.000  H
  H36      1.0000 0.62937  0.33120  0.37920  Biso   1.000  H
  H37      1.0000 0.48417  0.35140  0.37830  Biso   1.000  H
  H38      1.0000 0.70207  0.37440  0.52770  Biso   1.000  H
  H39      1.0000 0.72897  0.47830  0.67460  Biso   1.000  H
  H40      1.0000 0.53157  0.57330  0.65370  Biso   1.000  H
  H41      1.0000 0.67437  0.60300  0.67310  Biso   1.000  H
  H42      1.0000 0.59207  0.59690  0.74350  Biso   1.000  H
  H43      1.0000 0.54017  0.45290  0.72690  Biso   1.000  H
  H44      1.0000 0.58847  0.36750  0.64550  Biso   1.000  H
  H45      1.0000 0.47547  0.42010  0.63630  Biso   1.000  H
  H46      1.0000 0.33100  0.92040  0.44630  Biso   1.000  H
  H47      1.0000 0.13630  0.69800  0.22110  Biso   1.000  H
  H48      1.0000 0.45730  0.67640  0.10340  Biso   1.000  H
  H49      1.0000 0.51220  0.81800  0.20540  Biso   1.000  H
  H50      1.0000 0.17990  0.83640  0.32270  Biso   1.000  H
  H51      1.0000 0.46270  0.95200  0.33120  Biso   1.000  H
  H52      1.0000 0.31750  0.97310  0.35140  Biso   1.000  H
  H53      1.0000 0.53540  0.84670  0.37440  Biso   1.000  H
  H54      1.0000 0.56230  0.80370  0.47830  Biso   1.000  H
  H55      1.0000 0.36490  0.91960  0.57330  Biso   1.000  H
  H56      1.0000 0.50770  0.92990  0.60300  Biso   1.000  H
  H57      1.0000 0.42540  0.85340  0.59690  Biso   1.000  H
  H58      1.0000 0.37350  0.72600  0.45290  Biso   1.000  H
  H59      1.0000 0.42180  0.72200  0.36750  Biso   1.000  H
  H60      1.0000 0.30880  0.78380  0.42010  Biso   1.000  H
  H61      1.0000 0.66433  0.52590  0.07960  Biso   1.000  H
  H62      1.0000 0.46963  0.52310  0.30200  Biso   1.000  H
  H63      1.0000 0.79063  0.42700  0.32360  Biso   1.000  H
  H64      1.0000 0.84553  0.38740  0.18200  Biso   1.000  H
  H65      1.0000 0.51323  0.48630  0.16360  Biso   1.000  H
  H66      1.0000 0.79603  0.37920  0.04800  Biso   1.000  H
  H67      1.0000 0.65083  0.37830  0.02690  Biso   1.000  H
  H68      1.0000 0.86873  0.52770  0.15330  Biso   1.000  H
  H69      1.0000 0.89563  0.67460  0.19630  Biso   1.000  H
  H70      1.0000 0.69823  0.65370  0.08040  Biso   1.000  H
  H71      1.0000 0.84103  0.67310  0.07010  Biso   1.000  H
  H72      1.0000 0.75873  0.74350  0.14660  Biso   1.000  H
  H73      1.0000 0.70683  0.72690  0.27400  Biso   1.000  H
  H74      1.0000 0.75513  0.64550  0.27800  Biso   1.000  H
  H75      1.0000 0.64213  0.63630  0.21620  Biso   1.000  H
  H76      1.0000 0.99767  0.55370  0.47410  Biso   1.000  H
  H77      1.0000 0.80297  0.77890  0.47690  Biso   1.000  H
  H78      1.0000 0.12397  0.89660  0.57300  Biso   1.000  H
  H79      1.0000 0.17887  0.79460  0.61260  Biso   1.000  H
  H80      1.0000 0.84657  0.67730  0.51370  Biso   1.000  H
  H81      1.0000 0.12937  0.66880  0.62080  Biso   1.000  H
  H82      1.0000 0.98417  0.64860  0.62170  Biso   1.000  H
  H83      1.0000 0.20207  0.62560  0.47230  Biso   1.000  H
  H84      1.0000 0.22897  0.52170  0.32540  Biso   1.000  H
  H85      1.0000 0.03157  0.42670  0.34630  Biso   1.000  H
  H86      1.0000 0.17437  0.39700  0.32690  Biso   1.000  H
  H87      1.0000 0.09207  0.40310  0.25650  Biso   1.000  H
  H88      1.0000 0.04017  0.54710  0.27310  Biso   1.000  H
  H89      1.0000 0.08847  0.63250  0.35450  Biso   1.000  H
  H90      1.0000 0.97547  0.57990  0.36370  Biso   1.000  H
  C1       1.0000 0.71380  0.27790  0.78150  Biso   1.000  C
  C2       1.0000 0.90200  0.29120  0.85070  Biso   1.000  C
  C3       1.0000 0.93510  0.20540  0.79010  Biso   1.000  C
  C4       1.0000 0.85160  0.15670  0.72410  Biso   1.000  C
  C5       1.0000 0.73880  0.19510  0.72110  Biso   1.000  C
  C6       1.0000 0.88490  0.06630  0.65310  Biso   1.000  C
  C7       1.0000 0.12880  0.05270  0.52180  Biso   1.000  C
  C8       1.0000 0.01240  0.11300  0.56490  Biso   1.000  C
  C9       1.0000 0.98230  0.16830  0.52270  Biso   1.000  C
  C10      1.0000 0.94130  0.11110  0.42870  Biso   1.000  C
  C11      1.0000 0.88790  0.24080  0.57540  Biso   1.000  C
  C12      1.0000 0.04713  0.50360  0.72210  Biso   1.000  C
  C13      1.0000 0.23533  0.55950  0.70880  Biso   1.000  C
  C14      1.0000 0.26843  0.58470  0.79460  Biso   1.000  C
  C15      1.0000 0.18493  0.56740  0.84330  Biso   1.000  C
  C16      1.0000 0.07213  0.52600  0.80490  Biso   1.000  C
  C17      1.0000 0.21823  0.58680  0.93370  Biso   1.000  C
  C18      1.0000 0.46213  0.46910  0.94730  Biso   1.000  C
  C19      1.0000 0.34573  0.45190  0.88700  Biso   1.000  C
  C20      1.0000 0.31563  0.35440  0.83170  Biso   1.000  C
  C21      1.0000 0.27463  0.31760  0.88890  Biso   1.000  C
  C22      1.0000 0.22123  0.33460  0.75920  Biso   1.000  C
  C23      1.0000 0.38047  0.21850  0.49640  Biso   1.000  C
  C24      1.0000 0.56867  0.14930  0.44050  Biso   1.000  C
  C25      1.0000 0.60177  0.20990  0.41530  Biso   1.000  C
  C26      1.0000 0.51827  0.27590  0.43260  Biso   1.000  C
  C27      1.0000 0.40547  0.27890  0.47400  Biso   1.000  C
  C28      1.0000 0.55157  0.34690  0.41320  Biso   1.000  C
  C29      1.0000 0.79547  0.47820  0.53090  Biso   1.000  C
  C30      1.0000 0.67907  0.43510  0.54810  Biso   1.000  C
  C31      1.0000 0.64897  0.47730  0.64560  Biso   1.000  C
  C32      1.0000 0.60797  0.57130  0.68240  Biso   1.000  C
  C33      1.0000 0.55457  0.42460  0.66540  Biso   1.000  C
  C34      1.0000 0.21380  0.72210  0.21850  Biso   1.000  C
  C35      1.0000 0.40200  0.70880  0.14930  Biso   1.000  C
  C36      1.0000 0.43510  0.79460  0.20990  Biso   1.000  C
  C37      1.0000 0.35160  0.84330  0.27590  Biso   1.000  C
  C38      1.0000 0.23880  0.80490  0.27890  Biso   1.000  C
  C39      1.0000 0.38490  0.93370  0.34690  Biso   1.000  C
  C40      1.0000 0.62880  0.94730  0.47820  Biso   1.000  C
  C41      1.0000 0.51240  0.88700  0.43510  Biso   1.000  C
  C42      1.0000 0.48230  0.83170  0.47730  Biso   1.000  C
  C43      1.0000 0.44130  0.88890  0.57130  Biso   1.000  C
  C44      1.0000 0.38790  0.75920  0.42460  Biso   1.000  C
  C45      1.0000 0.54713  0.49640  0.27790  Biso   1.000  C
  C46      1.0000 0.73533  0.44050  0.29120  Biso   1.000  C
  C47      1.0000 0.76843  0.41530  0.20540  Biso   1.000  C
  C48      1.0000 0.68493  0.43260  0.15670  Biso   1.000  C
  C49      1.0000 0.57213  0.47400  0.19510  Biso   1.000  C
  C50      1.0000 0.71823  0.41320  0.06630  Biso   1.000  C
  C51      1.0000 0.96213  0.53090  0.05270  Biso   1.000  C
  C52      1.0000 0.84573  0.54810  0.11300  Biso   1.000  C
  C53      1.0000 0.81563  0.64560  0.16830  Biso   1.000  C
  C54      1.0000 0.77463  0.68240  0.11110  Biso   1.000  C
  C55      1.0000 0.72123  0.66540  0.24080  Biso   1.000  C
  C56      1.0000 0.88047  0.78150  0.50360  Biso   1.000  C
  C57      1.0000 0.06867  0.85070  0.55950  Biso   1.000  C
  C58      1.0000 0.10177  0.79010  0.58470  Biso   1.000  C
  C59      1.0000 0.01827  0.72410  0.56740  Biso   1.000  C
  C60      1.0000 0.90547  0.72110  0.52600  Biso   1.000  C
  C61      1.0000 0.05157  0.65310  0.58680  Biso   1.000  C
  C62      1.0000 0.29547  0.52180  0.46910  Biso   1.000  C
  C63      1.0000 0.17907  0.56490  0.45190  Biso   1.000  C
  C64      1.0000 0.14897  0.52270  0.35440  Biso   1.000  C
  C65      1.0000 0.10797  0.42870  0.31760  Biso   1.000  C
  C66      1.0000 0.05457  0.57540  0.33460  Biso   1.000  C
  Br1      1.0000 0.91231  0.86874  0.32053  Biso   1.000  Br
  Br2      1.0000 0.24564  0.45179  0.13126  Biso   1.000  Br
  Br3      1.0000 0.57898  0.67947  0.54821  Biso   1.000  Br
  Br4      1.0000 0.41231  0.13126  0.67947  Biso   1.000  Br
  Br5      1.0000 0.74564  0.54821  0.86874  Biso   1.000  Br
  Br6      1.0000 0.07898  0.32053  0.45179  Biso   1.000  Br
  N1       1.0000 0.79620  0.32750  0.84530  Biso   1.000  N
  N2       1.0000 0.90310  0.05940  0.56600  Biso   1.000  N
  N3       1.0000 0.12953  0.51780  0.67250  Biso   1.000  N
  N4       1.0000 0.23643  0.50660  0.94060  Biso   1.000  N
  N5       1.0000 0.46287  0.15470  0.48220  Biso   1.000  N
  N6       1.0000 0.56977  0.43400  0.49340  Biso   1.000  N
  N7       1.0000 0.29620  0.67250  0.15470  Biso   1.000  N
  N8       1.0000 0.40310  0.94060  0.43400  Biso   1.000  N
  N9       1.0000 0.62953  0.48220  0.32750  Biso   1.000  N
  N10      1.0000 0.73643  0.49340  0.05940  Biso   1.000  N
  N11      1.0000 0.96287  0.84530  0.51780  Biso   1.000  N
  N12      1.0000 0.06977  0.56600  0.50660  Biso   1.000  N
  O1       1.0000 0.11800  0.97370  0.48880  Biso   1.000  O
  O2       1.0000 0.22800  0.09210  0.52200  Biso   1.000  O
  O3       1.0000 0.45133  0.51510  0.02630  Biso   1.000  O
  O4       1.0000 0.56133  0.42990  0.90790  Biso   1.000  O
  O5       1.0000 0.78467  0.51120  0.48490  Biso   1.000  O
  O6       1.0000 0.89467  0.47800  0.57010  Biso   1.000  O
  O7       1.0000 0.61800  0.02630  0.51120  Biso   1.000  O
  O8       1.0000 0.72800  0.90790  0.47800  Biso   1.000  O
  O9       1.0000 0.95133  0.48490  0.97370  Biso   1.000  O
  O10      1.0000 0.06133  0.57010  0.09210  Biso   1.000  O
  O11      1.0000 0.28467  0.48880  0.51510  Biso   1.000  O
  O12      1.0000 0.39467  0.52200  0.42990  Biso   1.000  O
