data_image0
_cell_length_a       26.122
_cell_length_b       12.7436
_cell_length_c       20.789
_cell_angle_alpha    90
_cell_angle_beta     122.125
_cell_angle_gamma    90

_symmetry_space_group_name_H-M    "P 1"
_symmetry_int_tables_number       1

loop_
  _symmetry_equiv_pos_as_xyz
  'x, y, z'

loop_
  _atom_site_label
  _atom_site_occupancy
  _atom_site_fract_x
  _atom_site_fract_y
  _atom_site_fract_z
  _atom_site_thermal_displace_type
  _atom_site_B_iso_or_equiv
  _atom_site_type_symbol
  N1       1.0000 0.09505  0.01700  0.10510  Biso   1.000  N
  N2       1.0000 0.19442  0.02540  0.17630  Biso   1.000  N
  N3       1.0000 0.43900  0.79730  0.53910  Biso   1.000  N
  N4       1.0000 0.48799  0.65630  0.53990  Biso   1.000  N
  N5       1.0000 0.96225  0.07990  0.06410  Biso   1.000  N
  N6       1.0000 0.91446  0.19320  0.09320  Biso   1.000  N
  C1       1.0000 0.14670  0.98470  0.11410  Biso   1.000  C
  H1       1.0000 0.14930  0.93900  0.08110  Biso   1.000  H
  C2       1.0000 0.11190  0.08280  0.16420  Biso   1.000  C
  H2       1.0000 0.08530  0.11850  0.17340  Biso   1.000  H
  C3       1.0000 0.17290  0.08900  0.20830  Biso   1.000  C
  H3       1.0000 0.19550  0.12920  0.25190  Biso   1.000  H
  C4       1.0000 0.25840  0.00680  0.20300  Biso   1.000  C
  H4       1.0000 0.27630  0.07110  0.19870  Biso   1.000  H
  H5       1.0000 0.26130  0.95390  0.17150  Biso   1.000  H
  C5       1.0000 0.29266  0.97050  0.28500  Biso   1.000  C
  C6       1.0000 0.28050  0.87690  0.30540  Biso   1.000  C
  C7       1.0000 0.31040  0.84240  0.37880  Biso   1.000  C
  C8       1.0000 0.35640  0.90390  0.43820  Biso   1.000  C
  C9       1.0000 0.36860  0.99630  0.41690  Biso   1.000  C
  C10      1.0000 0.33740  0.03060  0.34270  Biso   1.000  C
  C11      1.0000 0.38940  0.86930  0.52000  Biso   1.000  C
  H6       1.0000 0.40530  0.93050  0.55250  Biso   1.000  H
  H7       1.0000 0.36100  0.83510  0.52980  Biso   1.000  H
  C12      1.0000 0.49890  0.81670  0.58460  Biso   1.000  C
  H8       1.0000 0.51670  0.87910  0.60980  Biso   1.000  H
  C13      1.0000 0.52750  0.72930  0.58640  Biso   1.000  C
  H9       1.0000 0.56920  0.72000  0.61580  Biso   1.000  H
  C14      1.0000 0.43540  0.70160  0.51290  Biso   1.000  C
  H10      1.0000 0.39890  0.66930  0.47840  Biso   1.000  H
  C15      1.0000 0.95430  0.03770  0.11730  Biso   1.000  C
  H11      1.0000 0.96700  0.97090  0.13780  Biso   1.000  H
  C16      1.0000 0.92470  0.10730  0.13740  Biso   1.000  C
  H12      1.0000 0.91400  0.09760  0.17310  Biso   1.000  H
  C17      1.0000 0.93720  0.17400  0.05100  Biso   1.000  C
  H13      1.0000 0.93570  0.22120  0.01600  Biso   1.000  H
  C18      1.0000 0.88090  0.28700  0.09000  Biso   1.000  C
  H14      1.0000 0.89050  0.34410  0.06730  Biso   1.000  H
  H15      1.0000 0.89320  0.30780  0.14110  Biso   1.000  H
  C19      1.0000 0.81280  0.26760  0.04370  Biso   1.000  C
  C20      1.0000 0.78080  0.25160  0.07700  Biso   1.000  C
  C21      1.0000 0.78120  0.26640  0.96630  Biso   1.000  C
  F1       1.0000 0.80861  0.25180  0.15282  Biso   1.000  F
  F2       1.0000 0.81041  0.28100  0.92874  Biso   1.000  F
  F3       1.0000 0.35063  0.12460  0.32708  Biso   1.000  F
  F4       1.0000 0.41146  0.05810  0.47042  Biso   1.000  F
  F5       1.0000 0.29673  0.75050  0.39640  Biso   1.000  F
  F6       1.0000 0.23807  0.81310  0.25170  Biso   1.000  F
  N7       1.0000 0.59505  0.51700  0.10510  Biso   1.000  N
  N8       1.0000 0.69442  0.52540  0.17630  Biso   1.000  N
  N9       1.0000 0.93900  0.29730  0.53910  Biso   1.000  N
  N10      1.0000 0.98799  0.15630  0.53990  Biso   1.000  N
  N11      1.0000 0.46225  0.57990  0.06410  Biso   1.000  N
  N12      1.0000 0.41446  0.69320  0.09320  Biso   1.000  N
  C22      1.0000 0.64670  0.48470  0.11410  Biso   1.000  C
  H16      1.0000 0.64930  0.43900  0.08110  Biso   1.000  H
  C23      1.0000 0.61190  0.58280  0.16420  Biso   1.000  C
  H17      1.0000 0.58530  0.61850  0.17340  Biso   1.000  H
  C24      1.0000 0.67290  0.58900  0.20830  Biso   1.000  C
  H18      1.0000 0.69550  0.62920  0.25190  Biso   1.000  H
  C25      1.0000 0.75840  0.50680  0.20300  Biso   1.000  C
  H19      1.0000 0.77630  0.57110  0.19870  Biso   1.000  H
  H20      1.0000 0.76130  0.45390  0.17150  Biso   1.000  H
  C26      1.0000 0.79266  0.47050  0.28500  Biso   1.000  C
  C27      1.0000 0.78050  0.37690  0.30540  Biso   1.000  C
  C28      1.0000 0.81040  0.34240  0.37880  Biso   1.000  C
  C29      1.0000 0.85640  0.40390  0.43820  Biso   1.000  C
  C30      1.0000 0.86860  0.49630  0.41690  Biso   1.000  C
  C31      1.0000 0.83740  0.53060  0.34270  Biso   1.000  C
  C32      1.0000 0.88940  0.36930  0.52000  Biso   1.000  C
  H21      1.0000 0.90530  0.43050  0.55250  Biso   1.000  H
  H22      1.0000 0.86100  0.33510  0.52980  Biso   1.000  H
  C33      1.0000 0.99890  0.31670  0.58460  Biso   1.000  C
  H23      1.0000 0.01670  0.37910  0.60980  Biso   1.000  H
  C34      1.0000 0.02750  0.22930  0.58640  Biso   1.000  C
  H24      1.0000 0.06920  0.22000  0.61580  Biso   1.000  H
  C35      1.0000 0.93540  0.20160  0.51290  Biso   1.000  C
  H25      1.0000 0.89890  0.16930  0.47840  Biso   1.000  H
  C36      1.0000 0.45430  0.53770  0.11730  Biso   1.000  C
  H26      1.0000 0.46700  0.47090  0.13780  Biso   1.000  H
  C37      1.0000 0.42470  0.60730  0.13740  Biso   1.000  C
  H27      1.0000 0.41400  0.59760  0.17310  Biso   1.000  H
  C38      1.0000 0.43720  0.67400  0.05100  Biso   1.000  C
  H28      1.0000 0.43570  0.72120  0.01600  Biso   1.000  H
  C39      1.0000 0.38090  0.78700  0.09000  Biso   1.000  C
  H29      1.0000 0.39050  0.84410  0.06730  Biso   1.000  H
  H30      1.0000 0.39320  0.80780  0.14110  Biso   1.000  H
  C40      1.0000 0.31280  0.76760  0.04370  Biso   1.000  C
  C41      1.0000 0.28080  0.75160  0.07700  Biso   1.000  C
  C42      1.0000 0.28120  0.76640  0.96630  Biso   1.000  C
  F7       1.0000 0.30861  0.75180  0.15282  Biso   1.000  F
  F8       1.0000 0.31041  0.78100  0.92874  Biso   1.000  F
  F9       1.0000 0.85063  0.62460  0.32708  Biso   1.000  F
  F10      1.0000 0.91146  0.55810  0.47042  Biso   1.000  F
  F11      1.0000 0.79673  0.25050  0.39640  Biso   1.000  F
  F12      1.0000 0.73807  0.31310  0.25170  Biso   1.000  F
  N13      1.0000 0.90495  0.01700  0.39490  Biso   1.000  N
  N14      1.0000 0.80558  0.02540  0.32370  Biso   1.000  N
  N15      1.0000 0.56100  0.79730  0.96090  Biso   1.000  N
  N16      1.0000 0.51201  0.65630  0.96010  Biso   1.000  N
  N17      1.0000 0.03775  0.07990  0.43590  Biso   1.000  N
  N18      1.0000 0.08554  0.19320  0.40680  Biso   1.000  N
  C43      1.0000 0.85330  0.98470  0.38590  Biso   1.000  C
  H31      1.0000 0.85070  0.93900  0.41890  Biso   1.000  H
  C44      1.0000 0.88810  0.08280  0.33580  Biso   1.000  C
  H32      1.0000 0.91470  0.11850  0.32660  Biso   1.000  H
  C45      1.0000 0.82710  0.08900  0.29170  Biso   1.000  C
  H33      1.0000 0.80450  0.12920  0.24810  Biso   1.000  H
  C46      1.0000 0.74160  0.00680  0.29700  Biso   1.000  C
  H34      1.0000 0.72370  0.07110  0.30130  Biso   1.000  H
  H35      1.0000 0.73870  0.95390  0.32850  Biso   1.000  H
  C47      1.0000 0.70734  0.97050  0.21500  Biso   1.000  C
  C48      1.0000 0.71950  0.87690  0.19460  Biso   1.000  C
  C49      1.0000 0.68960  0.84240  0.12120  Biso   1.000  C
  C50      1.0000 0.64360  0.90390  0.06180  Biso   1.000  C
  C51      1.0000 0.63140  0.99630  0.08310  Biso   1.000  C
  C52      1.0000 0.66260  0.03060  0.15730  Biso   1.000  C
  C53      1.0000 0.61060  0.86930  0.98000  Biso   1.000  C
  H36      1.0000 0.59470  0.93050  0.94750  Biso   1.000  H
  H37      1.0000 0.63900  0.83510  0.97020  Biso   1.000  H
  C54      1.0000 0.50110  0.81670  0.91540  Biso   1.000  C
  H38      1.0000 0.48330  0.87910  0.89020  Biso   1.000  H
  C55      1.0000 0.47250  0.72930  0.91360  Biso   1.000  C
  H39      1.0000 0.43080  0.72000  0.88420  Biso   1.000  H
  C56      1.0000 0.56460  0.70160  0.98710  Biso   1.000  C
  H40      1.0000 0.60110  0.66930  0.02160  Biso   1.000  H
  C57      1.0000 0.04570  0.03770  0.38270  Biso   1.000  C
  H41      1.0000 0.03300  0.97090  0.36220  Biso   1.000  H
  C58      1.0000 0.07530  0.10730  0.36260  Biso   1.000  C
  H42      1.0000 0.08600  0.09760  0.32690  Biso   1.000  H
  C59      1.0000 0.06280  0.17400  0.44900  Biso   1.000  C
  H43      1.0000 0.06430  0.22120  0.48400  Biso   1.000  H
  C60      1.0000 0.11910  0.28700  0.41000  Biso   1.000  C
  H44      1.0000 0.10950  0.34410  0.43270  Biso   1.000  H
  H45      1.0000 0.10680  0.30780  0.35890  Biso   1.000  H
  C61      1.0000 0.18720  0.26760  0.45630  Biso   1.000  C
  C62      1.0000 0.21920  0.25160  0.42300  Biso   1.000  C
  C63      1.0000 0.21880  0.26640  0.53370  Biso   1.000  C
  F13      1.0000 0.19139  0.25180  0.34718  Biso   1.000  F
  F14      1.0000 0.18959  0.28100  0.57126  Biso   1.000  F
  F15      1.0000 0.64937  0.12460  0.17292  Biso   1.000  F
  F16      1.0000 0.58854  0.05810  0.02958  Biso   1.000  F
  F17      1.0000 0.70327  0.75050  0.10360  Biso   1.000  F
  F18      1.0000 0.76193  0.81310  0.24830  Biso   1.000  F
  N19      1.0000 0.40495  0.51700  0.39490  Biso   1.000  N
  N20      1.0000 0.30558  0.52540  0.32370  Biso   1.000  N
  N21      1.0000 0.06100  0.29730  0.96090  Biso   1.000  N
  N22      1.0000 0.01201  0.15630  0.96010  Biso   1.000  N
  N23      1.0000 0.53775  0.57990  0.43590  Biso   1.000  N
  N24      1.0000 0.58554  0.69320  0.40680  Biso   1.000  N
  C64      1.0000 0.35330  0.48470  0.38590  Biso   1.000  C
  H46      1.0000 0.35070  0.43900  0.41890  Biso   1.000  H
  C65      1.0000 0.38810  0.58280  0.33580  Biso   1.000  C
  H47      1.0000 0.41470  0.61850  0.32660  Biso   1.000  H
  C66      1.0000 0.32710  0.58900  0.29170  Biso   1.000  C
  H48      1.0000 0.30450  0.62920  0.24810  Biso   1.000  H
  C67      1.0000 0.24160  0.50680  0.29700  Biso   1.000  C
  H49      1.0000 0.22370  0.57110  0.30130  Biso   1.000  H
  H50      1.0000 0.23870  0.45390  0.32850  Biso   1.000  H
  C68      1.0000 0.20734  0.47050  0.21500  Biso   1.000  C
  C69      1.0000 0.21950  0.37690  0.19460  Biso   1.000  C
  C70      1.0000 0.18960  0.34240  0.12120  Biso   1.000  C
  C71      1.0000 0.14360  0.40390  0.06180  Biso   1.000  C
  C72      1.0000 0.13140  0.49630  0.08310  Biso   1.000  C
  C73      1.0000 0.16260  0.53060  0.15730  Biso   1.000  C
  C74      1.0000 0.11060  0.36930  0.98000  Biso   1.000  C
  H51      1.0000 0.09470  0.43050  0.94750  Biso   1.000  H
  H52      1.0000 0.13900  0.33510  0.97020  Biso   1.000  H
  C75      1.0000 0.00110  0.31670  0.91540  Biso   1.000  C
  H53      1.0000 0.98330  0.37910  0.89020  Biso   1.000  H
  C76      1.0000 0.97250  0.22930  0.91360  Biso   1.000  C
  H54      1.0000 0.93080  0.22000  0.88420  Biso   1.000  H
  C77      1.0000 0.06460  0.20160  0.98710  Biso   1.000  C
  H55      1.0000 0.10110  0.16930  0.02160  Biso   1.000  H
  C78      1.0000 0.54570  0.53770  0.38270  Biso   1.000  C
  H56      1.0000 0.53300  0.47090  0.36220  Biso   1.000  H
  C79      1.0000 0.57530  0.60730  0.36260  Biso   1.000  C
  H57      1.0000 0.58600  0.59760  0.32690  Biso   1.000  H
  C80      1.0000 0.56280  0.67400  0.44900  Biso   1.000  C
  H58      1.0000 0.56430  0.72120  0.48400  Biso   1.000  H
  C81      1.0000 0.61910  0.78700  0.41000  Biso   1.000  C
  H59      1.0000 0.60950  0.84410  0.43270  Biso   1.000  H
  H60      1.0000 0.60680  0.80780  0.35890  Biso   1.000  H
  C82      1.0000 0.68720  0.76760  0.45630  Biso   1.000  C
  C83      1.0000 0.71920  0.75160  0.42300  Biso   1.000  C
  C84      1.0000 0.71880  0.76640  0.53370  Biso   1.000  C
  F19      1.0000 0.69139  0.75180  0.34718  Biso   1.000  F
  F20      1.0000 0.68959  0.78100  0.57126  Biso   1.000  F
  F21      1.0000 0.14937  0.62460  0.17292  Biso   1.000  F
  F22      1.0000 0.08854  0.55810  0.02958  Biso   1.000  F
  F23      1.0000 0.20327  0.25050  0.10360  Biso   1.000  F
  F24      1.0000 0.26193  0.31310  0.24830  Biso   1.000  F
  N25      1.0000 0.90495  0.98300  0.89490  Biso   1.000  N
  N26      1.0000 0.80558  0.97460  0.82370  Biso   1.000  N
  N27      1.0000 0.56100  0.20270  0.46090  Biso   1.000  N
  N28      1.0000 0.51201  0.34370  0.46010  Biso   1.000  N
  N29      1.0000 0.03775  0.92010  0.93590  Biso   1.000  N
  N30      1.0000 0.08554  0.80680  0.90680  Biso   1.000  N
  C85      1.0000 0.85330  0.01530  0.88590  Biso   1.000  C
  H61      1.0000 0.85070  0.06100  0.91890  Biso   1.000  H
  C86      1.0000 0.88810  0.91720  0.83580  Biso   1.000  C
  H62      1.0000 0.91470  0.88150  0.82660  Biso   1.000  H
  C87      1.0000 0.82710  0.91100  0.79170  Biso   1.000  C
  H63      1.0000 0.80450  0.87080  0.74810  Biso   1.000  H
  C88      1.0000 0.74160  0.99320  0.79700  Biso   1.000  C
  H64      1.0000 0.72370  0.92890  0.80130  Biso   1.000  H
  H65      1.0000 0.73870  0.04610  0.82850  Biso   1.000  H
  C89      1.0000 0.70734  0.02950  0.71500  Biso   1.000  C
  C90      1.0000 0.71950  0.12310  0.69460  Biso   1.000  C
  C91      1.0000 0.68960  0.15760  0.62120  Biso   1.000  C
  C92      1.0000 0.64360  0.09610  0.56180  Biso   1.000  C
  C93      1.0000 0.63140  0.00370  0.58310  Biso   1.000  C
  C94      1.0000 0.66260  0.96940  0.65730  Biso   1.000  C
  C95      1.0000 0.61060  0.13070  0.48000  Biso   1.000  C
  H66      1.0000 0.59470  0.06950  0.44750  Biso   1.000  H
  H67      1.0000 0.63900  0.16490  0.47020  Biso   1.000  H
  C96      1.0000 0.50110  0.18330  0.41540  Biso   1.000  C
  H68      1.0000 0.48330  0.12090  0.39020  Biso   1.000  H
  C97      1.0000 0.47250  0.27070  0.41360  Biso   1.000  C
  H69      1.0000 0.43080  0.28000  0.38420  Biso   1.000  H
  C98      1.0000 0.56460  0.29840  0.48710  Biso   1.000  C
  H70      1.0000 0.60110  0.33070  0.52160  Biso   1.000  H
  C99      1.0000 0.04570  0.96230  0.88270  Biso   1.000  C
  H71      1.0000 0.03300  0.02910  0.86220  Biso   1.000  H
  C100     1.0000 0.07530  0.89270  0.86260  Biso   1.000  C
  H72      1.0000 0.08600  0.90240  0.82690  Biso   1.000  H
  C101     1.0000 0.06280  0.82600  0.94900  Biso   1.000  C
  H73      1.0000 0.06430  0.77880  0.98400  Biso   1.000  H
  C102     1.0000 0.11910  0.71300  0.91000  Biso   1.000  C
  H74      1.0000 0.10950  0.65590  0.93270  Biso   1.000  H
  H75      1.0000 0.10680  0.69220  0.85890  Biso   1.000  H
  C103     1.0000 0.18720  0.73240  0.95630  Biso   1.000  C
  C104     1.0000 0.21920  0.74840  0.92300  Biso   1.000  C
  C105     1.0000 0.21880  0.73360  0.03370  Biso   1.000  C
  F25      1.0000 0.19139  0.74820  0.84718  Biso   1.000  F
  F26      1.0000 0.18959  0.71900  0.07126  Biso   1.000  F
  F27      1.0000 0.64937  0.87540  0.67292  Biso   1.000  F
  F28      1.0000 0.58854  0.94190  0.52958  Biso   1.000  F
  F29      1.0000 0.70327  0.24950  0.60360  Biso   1.000  F
  F30      1.0000 0.76193  0.18690  0.74830  Biso   1.000  F
  N31      1.0000 0.40495  0.48300  0.89490  Biso   1.000  N
  N32      1.0000 0.30558  0.47460  0.82370  Biso   1.000  N
  N33      1.0000 0.06100  0.70270  0.46090  Biso   1.000  N
  N34      1.0000 0.01201  0.84370  0.46010  Biso   1.000  N
  N35      1.0000 0.53775  0.42010  0.93590  Biso   1.000  N
  N36      1.0000 0.58554  0.30680  0.90680  Biso   1.000  N
  C106     1.0000 0.35330  0.51530  0.88590  Biso   1.000  C
  H76      1.0000 0.35070  0.56100  0.91890  Biso   1.000  H
  C107     1.0000 0.38810  0.41720  0.83580  Biso   1.000  C
  H77      1.0000 0.41470  0.38150  0.82660  Biso   1.000  H
  C108     1.0000 0.32710  0.41100  0.79170  Biso   1.000  C
  H78      1.0000 0.30450  0.37080  0.74810  Biso   1.000  H
  C109     1.0000 0.24160  0.49320  0.79700  Biso   1.000  C
  H79      1.0000 0.22370  0.42890  0.80130  Biso   1.000  H
  H80      1.0000 0.23870  0.54610  0.82850  Biso   1.000  H
  C110     1.0000 0.20734  0.52950  0.71500  Biso   1.000  C
  C111     1.0000 0.21950  0.62310  0.69460  Biso   1.000  C
  C112     1.0000 0.18960  0.65760  0.62120  Biso   1.000  C
  C113     1.0000 0.14360  0.59610  0.56180  Biso   1.000  C
  C114     1.0000 0.13140  0.50370  0.58310  Biso   1.000  C
  C115     1.0000 0.16260  0.46940  0.65730  Biso   1.000  C
  C116     1.0000 0.11060  0.63070  0.48000  Biso   1.000  C
  H81      1.0000 0.09470  0.56950  0.44750  Biso   1.000  H
  H82      1.0000 0.13900  0.66490  0.47020  Biso   1.000  H
  C117     1.0000 0.00110  0.68330  0.41540  Biso   1.000  C
  H83      1.0000 0.98330  0.62090  0.39020  Biso   1.000  H
  C118     1.0000 0.97250  0.77070  0.41360  Biso   1.000  C
  H84      1.0000 0.93080  0.78000  0.38420  Biso   1.000  H
  C119     1.0000 0.06460  0.79840  0.48710  Biso   1.000  C
  H85      1.0000 0.10110  0.83070  0.52160  Biso   1.000  H
  C120     1.0000 0.54570  0.46230  0.88270  Biso   1.000  C
  H86      1.0000 0.53300  0.52910  0.86220  Biso   1.000  H
  C121     1.0000 0.57530  0.39270  0.86260  Biso   1.000  C
  H87      1.0000 0.58600  0.40240  0.82690  Biso   1.000  H
  C122     1.0000 0.56280  0.32600  0.94900  Biso   1.000  C
  H88      1.0000 0.56430  0.27880  0.98400  Biso   1.000  H
  C123     1.0000 0.61910  0.21300  0.91000  Biso   1.000  C
  H89      1.0000 0.60950  0.15590  0.93270  Biso   1.000  H
  H90      1.0000 0.60680  0.19220  0.85890  Biso   1.000  H
  C124     1.0000 0.68720  0.23240  0.95630  Biso   1.000  C
  C125     1.0000 0.71920  0.24840  0.92300  Biso   1.000  C
  C126     1.0000 0.71880  0.23360  0.03370  Biso   1.000  C
  F31      1.0000 0.69139  0.24820  0.84718  Biso   1.000  F
  F32      1.0000 0.68959  0.21900  0.07126  Biso   1.000  F
  F33      1.0000 0.14937  0.37540  0.67292  Biso   1.000  F
  F34      1.0000 0.08854  0.44190  0.52958  Biso   1.000  F
  F35      1.0000 0.20327  0.74950  0.60360  Biso   1.000  F
  F36      1.0000 0.26193  0.68690  0.74830  Biso   1.000  F
  N37      1.0000 0.09505  0.98300  0.60510  Biso   1.000  N
  N38      1.0000 0.19442  0.97460  0.67630  Biso   1.000  N
  N39      1.0000 0.43900  0.20270  0.03910  Biso   1.000  N
  N40      1.0000 0.48799  0.34370  0.03990  Biso   1.000  N
  N41      1.0000 0.96225  0.92010  0.56410  Biso   1.000  N
  N42      1.0000 0.91446  0.80680  0.59320  Biso   1.000  N
  C127     1.0000 0.14670  0.01530  0.61410  Biso   1.000  C
  H91      1.0000 0.14930  0.06100  0.58110  Biso   1.000  H
  C128     1.0000 0.11190  0.91720  0.66420  Biso   1.000  C
  H92      1.0000 0.08530  0.88150  0.67340  Biso   1.000  H
  C129     1.0000 0.17290  0.91100  0.70830  Biso   1.000  C
  H93      1.0000 0.19550  0.87080  0.75190  Biso   1.000  H
  C130     1.0000 0.25840  0.99320  0.70300  Biso   1.000  C
  H94      1.0000 0.27630  0.92890  0.69870  Biso   1.000  H
  H95      1.0000 0.26130  0.04610  0.67150  Biso   1.000  H
  C131     1.0000 0.29266  0.02950  0.78500  Biso   1.000  C
  C132     1.0000 0.28050  0.12310  0.80540  Biso   1.000  C
  C133     1.0000 0.31040  0.15760  0.87880  Biso   1.000  C
  C134     1.0000 0.35640  0.09610  0.93820  Biso   1.000  C
  C135     1.0000 0.36860  0.00370  0.91690  Biso   1.000  C
  C136     1.0000 0.33740  0.96940  0.84270  Biso   1.000  C
  C137     1.0000 0.38940  0.13070  0.02000  Biso   1.000  C
  H96      1.0000 0.40530  0.06950  0.05250  Biso   1.000  H
  H97      1.0000 0.36100  0.16490  0.02980  Biso   1.000  H
  C138     1.0000 0.49890  0.18330  0.08460  Biso   1.000  C
  H98      1.0000 0.51670  0.12090  0.10980  Biso   1.000  H
  C139     1.0000 0.52750  0.27070  0.08640  Biso   1.000  C
  H99      1.0000 0.56920  0.28000  0.11580  Biso   1.000  H
  C140     1.0000 0.43540  0.29840  0.01290  Biso   1.000  C
  H100     1.0000 0.39890  0.33070  0.97840  Biso   1.000  H
  C141     1.0000 0.95430  0.96230  0.61730  Biso   1.000  C
  H101     1.0000 0.96700  0.02910  0.63780  Biso   1.000  H
  C142     1.0000 0.92470  0.89270  0.63740  Biso   1.000  C
  H102     1.0000 0.91400  0.90240  0.67310  Biso   1.000  H
  C143     1.0000 0.93720  0.82600  0.55100  Biso   1.000  C
  H103     1.0000 0.93570  0.77880  0.51600  Biso   1.000  H
  C144     1.0000 0.88090  0.71300  0.59000  Biso   1.000  C
  H104     1.0000 0.89050  0.65590  0.56730  Biso   1.000  H
  H105     1.0000 0.89320  0.69220  0.64110  Biso   1.000  H
  C145     1.0000 0.81280  0.73240  0.54370  Biso   1.000  C
  C146     1.0000 0.78080  0.74840  0.57700  Biso   1.000  C
  C147     1.0000 0.78120  0.73360  0.46630  Biso   1.000  C
  F37      1.0000 0.80861  0.74820  0.65282  Biso   1.000  F
  F38      1.0000 0.81041  0.71900  0.42874  Biso   1.000  F
  F39      1.0000 0.35063  0.87540  0.82708  Biso   1.000  F
  F40      1.0000 0.41146  0.94190  0.97042  Biso   1.000  F
  F41      1.0000 0.29673  0.24950  0.89640  Biso   1.000  F
  F42      1.0000 0.23807  0.18690  0.75170  Biso   1.000  F
  N43      1.0000 0.59505  0.48300  0.60510  Biso   1.000  N
  N44      1.0000 0.69442  0.47460  0.67630  Biso   1.000  N
  N45      1.0000 0.93900  0.70270  0.03910  Biso   1.000  N
  N46      1.0000 0.98799  0.84370  0.03990  Biso   1.000  N
  N47      1.0000 0.46225  0.42010  0.56410  Biso   1.000  N
  N48      1.0000 0.41446  0.30680  0.59320  Biso   1.000  N
  C148     1.0000 0.64670  0.51530  0.61410  Biso   1.000  C
  H106     1.0000 0.64930  0.56100  0.58110  Biso   1.000  H
  C149     1.0000 0.61190  0.41720  0.66420  Biso   1.000  C
  H107     1.0000 0.58530  0.38150  0.67340  Biso   1.000  H
  C150     1.0000 0.67290  0.41100  0.70830  Biso   1.000  C
  H108     1.0000 0.69550  0.37080  0.75190  Biso   1.000  H
  C151     1.0000 0.75840  0.49320  0.70300  Biso   1.000  C
  H109     1.0000 0.77630  0.42890  0.69870  Biso   1.000  H
  H110     1.0000 0.76130  0.54610  0.67150  Biso   1.000  H
  C152     1.0000 0.79266  0.52950  0.78500  Biso   1.000  C
  C153     1.0000 0.78050  0.62310  0.80540  Biso   1.000  C
  C154     1.0000 0.81040  0.65760  0.87880  Biso   1.000  C
  C155     1.0000 0.85640  0.59610  0.93820  Biso   1.000  C
  C156     1.0000 0.86860  0.50370  0.91690  Biso   1.000  C
  C157     1.0000 0.83740  0.46940  0.84270  Biso   1.000  C
  C158     1.0000 0.88940  0.63070  0.02000  Biso   1.000  C
  H111     1.0000 0.90530  0.56950  0.05250  Biso   1.000  H
  H112     1.0000 0.86100  0.66490  0.02980  Biso   1.000  H
  C159     1.0000 0.99890  0.68330  0.08460  Biso   1.000  C
  H113     1.0000 0.01670  0.62090  0.10980  Biso   1.000  H
  C160     1.0000 0.02750  0.77070  0.08640  Biso   1.000  C
  H114     1.0000 0.06920  0.78000  0.11580  Biso   1.000  H
  C161     1.0000 0.93540  0.79840  0.01290  Biso   1.000  C
  H115     1.0000 0.89890  0.83070  0.97840  Biso   1.000  H
  C162     1.0000 0.45430  0.46230  0.61730  Biso   1.000  C
  H116     1.0000 0.46700  0.52910  0.63780  Biso   1.000  H
  C163     1.0000 0.42470  0.39270  0.63740  Biso   1.000  C
  H117     1.0000 0.41400  0.40240  0.67310  Biso   1.000  H
  C164     1.0000 0.43720  0.32600  0.55100  Biso   1.000  C
  H118     1.0000 0.43570  0.27880  0.51600  Biso   1.000  H
  C165     1.0000 0.38090  0.21300  0.59000  Biso   1.000  C
  H119     1.0000 0.39050  0.15590  0.56730  Biso   1.000  H
  H120     1.0000 0.39320  0.19220  0.64110  Biso   1.000  H
  C166     1.0000 0.31280  0.23240  0.54370  Biso   1.000  C
  C167     1.0000 0.28080  0.24840  0.57700  Biso   1.000  C
  C168     1.0000 0.28120  0.23360  0.46630  Biso   1.000  C
  F43      1.0000 0.30861  0.24820  0.65282  Biso   1.000  F
  F44      1.0000 0.31041  0.21900  0.42874  Biso   1.000  F
  F45      1.0000 0.85063  0.37540  0.82708  Biso   1.000  F
  F46      1.0000 0.91146  0.44190  0.97042  Biso   1.000  F
  F47      1.0000 0.79673  0.74950  0.89640  Biso   1.000  F
  F48      1.0000 0.73807  0.68690  0.75170  Biso   1.000  F
  Mn1      1.0000 0.00000  0.00000  0.00000  Biso   1.000  Mn
  Mn2      1.0000 0.50000  0.50000  0.00000  Biso   1.000  Mn
  Mn3      1.0000 0.00000  0.00000  0.50000  Biso   1.000  Mn
  Mn4      1.0000 0.50000  0.50000  0.50000  Biso   1.000  Mn
