data_image0
_cell_length_a       13.6086
_cell_length_b       13.6086
_cell_length_c       15.2777
_cell_angle_alpha    90
_cell_angle_beta     90
_cell_angle_gamma    120

_symmetry_space_group_name_H-M    "P 1"
_symmetry_int_tables_number       1

loop_
  _symmetry_equiv_pos_as_xyz
  'x, y, z'

loop_
  _atom_site_label
  _atom_site_occupancy
  _atom_site_fract_x
  _atom_site_fract_y
  _atom_site_fract_z
  _atom_site_thermal_displace_type
  _atom_site_B_iso_or_equiv
  _atom_site_type_symbol
  Zn1      1.0000 0.97196  0.21547  0.08991  Biso   1.000  Zn
  P1       1.0000 0.77325  0.97987  0.10648  Biso   1.000  P
  O1       1.0000 0.70530  0.61560  0.14900  Biso   1.000  O
  O2       1.0000 0.11780  0.25670  0.13640  Biso   1.000  O
  O3       1.0000 0.97570  0.27330  0.97190  Biso   1.000  O
  O4       1.0000 0.90020  0.04720  0.07900  Biso   1.000  O
  Zn2      1.0000 0.63863  0.54880  0.42324  Biso   1.000  Zn
  P2       1.0000 0.43992  0.31320  0.43981  Biso   1.000  P
  O5       1.0000 0.37197  0.94893  0.48233  Biso   1.000  O
  O6       1.0000 0.78447  0.59003  0.46973  Biso   1.000  O
  O7       1.0000 0.64237  0.60663  0.30523  Biso   1.000  O
  O8       1.0000 0.56687  0.38053  0.41233  Biso   1.000  O
  Zn3      1.0000 0.30529  0.88214  0.75658  Biso   1.000  Zn
  P3       1.0000 0.10658  0.64654  0.77315  Biso   1.000  P
  O9       1.0000 0.03863  0.28227  0.81567  Biso   1.000  O
  O10      1.0000 0.45113  0.92337  0.80307  Biso   1.000  O
  O11      1.0000 0.30903  0.93997  0.63857  Biso   1.000  O
  O12      1.0000 0.23353  0.71387  0.74567  Biso   1.000  O
  Zn4      1.0000 0.78453  0.75649  0.08991  Biso   1.000  Zn
  P4       1.0000 0.02013  0.79338  0.10648  Biso   1.000  P
  O13      1.0000 0.38440  0.08970  0.14900  Biso   1.000  O
  O14      1.0000 0.74330  0.86110  0.13640  Biso   1.000  O
  O15      1.0000 0.72670  0.70240  0.97190  Biso   1.000  O
  O16      1.0000 0.95280  0.85300  0.07900  Biso   1.000  O
  Zn5      1.0000 0.45120  0.08982  0.42324  Biso   1.000  Zn
  P5       1.0000 0.68680  0.12671  0.43981  Biso   1.000  P
  O17      1.0000 0.05107  0.42303  0.48233  Biso   1.000  O
  O18      1.0000 0.40997  0.19443  0.46973  Biso   1.000  O
  O19      1.0000 0.39337  0.03573  0.30523  Biso   1.000  O
  O20      1.0000 0.61947  0.18633  0.41233  Biso   1.000  O
  Zn6      1.0000 0.11786  0.42316  0.75658  Biso   1.000  Zn
  P6       1.0000 0.35346  0.46005  0.77315  Biso   1.000  P
  O21      1.0000 0.71773  0.75637  0.81567  Biso   1.000  O
  O22      1.0000 0.07663  0.52777  0.80307  Biso   1.000  O
  O23      1.0000 0.06003  0.36907  0.63857  Biso   1.000  O
  O24      1.0000 0.28613  0.51967  0.74567  Biso   1.000  O
  Zn7      1.0000 0.24351  0.02804  0.08991  Biso   1.000  Zn
  P7       1.0000 0.20662  0.22675  0.10648  Biso   1.000  P
  O25      1.0000 0.91030  0.29470  0.14900  Biso   1.000  O
  O26      1.0000 0.13890  0.88220  0.13640  Biso   1.000  O
  O27      1.0000 0.29760  0.02430  0.97190  Biso   1.000  O
  O28      1.0000 0.14700  0.09980  0.07900  Biso   1.000  O
  Zn8      1.0000 0.91018  0.36137  0.42324  Biso   1.000  Zn
  P8       1.0000 0.87329  0.56008  0.43981  Biso   1.000  P
  O29      1.0000 0.57697  0.62803  0.48233  Biso   1.000  O
  O30      1.0000 0.80557  0.21553  0.46973  Biso   1.000  O
  O31      1.0000 0.96427  0.35763  0.30523  Biso   1.000  O
  O32      1.0000 0.81367  0.43313  0.41233  Biso   1.000  O
  Zn9      1.0000 0.57684  0.69471  0.75658  Biso   1.000  Zn
  P9       1.0000 0.53995  0.89342  0.77315  Biso   1.000  P
  O33      1.0000 0.24363  0.96137  0.81567  Biso   1.000  O
  O34      1.0000 0.47223  0.54887  0.80307  Biso   1.000  O
  O35      1.0000 0.63093  0.69097  0.63857  Biso   1.000  O
  O36      1.0000 0.48033  0.76647  0.74567  Biso   1.000  O
  Zn10     1.0000 0.02804  0.78453  0.91009  Biso   1.000  Zn
  P10      1.0000 0.22675  0.02013  0.89352  Biso   1.000  P
  O37      1.0000 0.29470  0.38440  0.85100  Biso   1.000  O
  O38      1.0000 0.88220  0.74330  0.86360  Biso   1.000  O
  O39      1.0000 0.02430  0.72670  0.02810  Biso   1.000  O
  O40      1.0000 0.09980  0.95280  0.92100  Biso   1.000  O
  Zn11     1.0000 0.69471  0.11786  0.24342  Biso   1.000  Zn
  P11      1.0000 0.89342  0.35346  0.22685  Biso   1.000  P
  O41      1.0000 0.96137  0.71773  0.18433  Biso   1.000  O
  O42      1.0000 0.54887  0.07663  0.19693  Biso   1.000  O
  O43      1.0000 0.69097  0.06003  0.36143  Biso   1.000  O
  O44      1.0000 0.76647  0.28613  0.25433  Biso   1.000  O
  Zn12     1.0000 0.36137  0.45120  0.57676  Biso   1.000  Zn
  P12      1.0000 0.56008  0.68680  0.56019  Biso   1.000  P
  O45      1.0000 0.62803  0.05107  0.51767  Biso   1.000  O
  O46      1.0000 0.21553  0.40997  0.53027  Biso   1.000  O
  O47      1.0000 0.35763  0.39337  0.69477  Biso   1.000  O
  O48      1.0000 0.43313  0.61947  0.58767  Biso   1.000  O
  Zn13     1.0000 0.21547  0.24351  0.91009  Biso   1.000  Zn
  P13      1.0000 0.97987  0.20662  0.89352  Biso   1.000  P
  O49      1.0000 0.61560  0.91030  0.85100  Biso   1.000  O
  O50      1.0000 0.25670  0.13890  0.86360  Biso   1.000  O
  O51      1.0000 0.27330  0.29760  0.02810  Biso   1.000  O
  O52      1.0000 0.04720  0.14700  0.92100  Biso   1.000  O
  Zn14     1.0000 0.88214  0.57684  0.24342  Biso   1.000  Zn
  P14      1.0000 0.64654  0.53995  0.22685  Biso   1.000  P
  O53      1.0000 0.28227  0.24363  0.18433  Biso   1.000  O
  O54      1.0000 0.92337  0.47223  0.19693  Biso   1.000  O
  O55      1.0000 0.93997  0.63093  0.36143  Biso   1.000  O
  O56      1.0000 0.71387  0.48033  0.25433  Biso   1.000  O
  Zn15     1.0000 0.54880  0.91018  0.57676  Biso   1.000  Zn
  P15      1.0000 0.31320  0.87329  0.56019  Biso   1.000  P
  O57      1.0000 0.94893  0.57697  0.51767  Biso   1.000  O
  O58      1.0000 0.59003  0.80557  0.53027  Biso   1.000  O
  O59      1.0000 0.60663  0.96427  0.69477  Biso   1.000  O
  O60      1.0000 0.38053  0.81367  0.58767  Biso   1.000  O
  Zn16     1.0000 0.75649  0.97196  0.91009  Biso   1.000  Zn
  P16      1.0000 0.79338  0.77325  0.89352  Biso   1.000  P
  O61      1.0000 0.08970  0.70530  0.85100  Biso   1.000  O
  O62      1.0000 0.86110  0.11780  0.86360  Biso   1.000  O
  O63      1.0000 0.70240  0.97570  0.02810  Biso   1.000  O
  O64      1.0000 0.85300  0.90020  0.92100  Biso   1.000  O
  Zn17     1.0000 0.42316  0.30529  0.24342  Biso   1.000  Zn
  P17      1.0000 0.46005  0.10658  0.22685  Biso   1.000  P
  O65      1.0000 0.75637  0.03863  0.18433  Biso   1.000  O
  O66      1.0000 0.52777  0.45113  0.19693  Biso   1.000  O
  O67      1.0000 0.36907  0.30903  0.36143  Biso   1.000  O
  O68      1.0000 0.51967  0.23353  0.25433  Biso   1.000  O
  Zn18     1.0000 0.08982  0.63863  0.57676  Biso   1.000  Zn
  P18      1.0000 0.12671  0.43992  0.56019  Biso   1.000  P
  O69      1.0000 0.42303  0.37197  0.51767  Biso   1.000  O
  O70      1.0000 0.19443  0.78447  0.53027  Biso   1.000  O
  O71      1.0000 0.03573  0.64237  0.69477  Biso   1.000  O
  O72      1.0000 0.18633  0.56687  0.58767  Biso   1.000  O
  Zn19     1.0000 0.00000  0.00000  0.00000  Biso   1.000  Zn
  Zn20     1.0000 0.66667  0.33333  0.33333  Biso   1.000  Zn
  Zn21     1.0000 0.33333  0.66667  0.66667  Biso   1.000  Zn
