data_image0
_cell_length_a       17.5705
_cell_length_b       18.571
_cell_length_c       13.3355
_cell_angle_alpha    90
_cell_angle_beta     90
_cell_angle_gamma    90

_symmetry_space_group_name_H-M    "P 1"
_symmetry_int_tables_number       1

loop_
  _symmetry_equiv_pos_as_xyz
  'x, y, z'

loop_
  _atom_site_label
  _atom_site_occupancy
  _atom_site_fract_x
  _atom_site_fract_y
  _atom_site_fract_z
  _atom_site_thermal_displace_type
  _atom_site_B_iso_or_equiv
  _atom_site_type_symbol
  O1       1.0000 0.13134  0.99228  0.10883  Biso   1.000  O
  O2       1.0000 0.01238  0.87461  0.99266  Biso   1.000  O
  O3       1.0000 0.90849  0.98340  0.90130  Biso   1.000  O
  O4       1.0000 0.01595  0.08692  0.19380  Biso   1.000  O
  N1       1.0000 0.18454  0.94226  0.09220  Biso   1.000  N
  N2       1.0000 0.96081  0.82292  0.98190  Biso   1.000  N
  N3       1.0000 0.91070  0.96309  0.80650  Biso   1.000  N
  N4       1.0000 0.03602  0.08558  0.28930  Biso   1.000  N
  C1       1.0000 0.25680  0.96360  0.07620  Biso   1.000  C
  H1       1.0000 0.26880  0.01340  0.07450  Biso   1.000  H
  C2       1.0000 0.31280  0.91340  0.06260  Biso   1.000  C
  H2       1.0000 0.36390  0.92890  0.05350  Biso   1.000  H
  C3       1.0000 0.29660  0.84100  0.06190  Biso   1.000  C
  C4       1.0000 0.22070  0.82100  0.07860  Biso   1.000  C
  H3       1.0000 0.20670  0.77150  0.07860  Biso   1.000  H
  C5       1.0000 0.16700  0.87270  0.09470  Biso   1.000  C
  H4       1.0000 0.11600  0.85870  0.10800  Biso   1.000  H
  C6       1.0000 0.98060  0.76170  0.93550  Biso   1.000  C
  H5       1.0000 0.03130  0.75580  0.91230  Biso   1.000  H
  C7       1.0000 0.92900  0.70770  0.92080  Biso   1.000  C
  H6       1.0000 0.94440  0.66440  0.88860  Biso   1.000  H
  C8       1.0000 0.35420  0.78440  0.04730  Biso   1.000  C
  C9       1.0000 0.33630  0.72140  0.99840  Biso   1.000  C
  H7       1.0000 0.28610  0.71480  0.97350  Biso   1.000  H
  C10      1.0000 0.88910  0.83200  0.01540  Biso   1.000  C
  H8       1.0000 0.87520  0.87540  0.04850  Biso   1.000  H
  C11      1.0000 0.96670  0.91970  0.77140  Biso   1.000  C
  H9       1.0000 0.00260  0.89970  0.81680  Biso   1.000  H
  C12      1.0000 0.97210  0.90420  0.67130  Biso   1.000  C
  H10      1.0000 0.01160  0.87350  0.64830  Biso   1.000  H
  C13      1.0000 0.92050  0.93270  0.60260  Biso   1.000  C
  C14      1.0000 0.86040  0.97340  0.64190  Biso   1.000  C
  H11      1.0000 0.82180  0.99120  0.59840  Biso   1.000  H
  C15      1.0000 0.85650  0.98800  0.74310  Biso   1.000  C
  H12      1.0000 0.81550  0.01580  0.76870  Biso   1.000  H
  C16      1.0000 0.00560  0.13343  0.35270  Biso   1.000  C
  H13      1.0000 0.97290  0.17010  0.32780  Biso   1.000  H
  C17      1.0000 0.02120  0.12990  0.45370  Biso   1.000  C
  H14      1.0000 0.99940  0.16450  0.49760  Biso   1.000  H
  C18      1.0000 0.93110  0.92380  0.49300  Biso   1.000  C
  C19      1.0000 0.89780  0.96980  0.42410  Biso   1.000  C
  H15      1.0000 0.86300  0.00550  0.44670  Biso   1.000  H
  C20      1.0000 0.08590  0.03520  0.32310  Biso   1.000  C
  H16      1.0000 0.10950  0.00320  0.27700  Biso   1.000  H
  O5       1.0000 0.86866  0.00772  0.10883  Biso   1.000  O
  O6       1.0000 0.98762  0.12539  0.99266  Biso   1.000  O
  O7       1.0000 0.09151  0.01660  0.90130  Biso   1.000  O
  O8       1.0000 0.98405  0.91308  0.19380  Biso   1.000  O
  N5       1.0000 0.81546  0.05774  0.09220  Biso   1.000  N
  N6       1.0000 0.03919  0.17708  0.98190  Biso   1.000  N
  N7       1.0000 0.08930  0.03691  0.80650  Biso   1.000  N
  N8       1.0000 0.96398  0.91442  0.28930  Biso   1.000  N
  C21      1.0000 0.74320  0.03640  0.07620  Biso   1.000  C
  H17      1.0000 0.73120  0.98660  0.07450  Biso   1.000  H
  C22      1.0000 0.68720  0.08660  0.06260  Biso   1.000  C
  H18      1.0000 0.63610  0.07110  0.05350  Biso   1.000  H
  C23      1.0000 0.70340  0.15900  0.06190  Biso   1.000  C
  C24      1.0000 0.77930  0.17900  0.07860  Biso   1.000  C
  H19      1.0000 0.79330  0.22850  0.07860  Biso   1.000  H
  C25      1.0000 0.83300  0.12730  0.09470  Biso   1.000  C
  H20      1.0000 0.88400  0.14130  0.10800  Biso   1.000  H
  C26      1.0000 0.01940  0.23830  0.93550  Biso   1.000  C
  H21      1.0000 0.96870  0.24420  0.91230  Biso   1.000  H
  C27      1.0000 0.07100  0.29230  0.92080  Biso   1.000  C
  H22      1.0000 0.05560  0.33560  0.88860  Biso   1.000  H
  C28      1.0000 0.64580  0.21560  0.04730  Biso   1.000  C
  C29      1.0000 0.66370  0.27860  0.99840  Biso   1.000  C
  H23      1.0000 0.71390  0.28520  0.97350  Biso   1.000  H
  C30      1.0000 0.11090  0.16800  0.01540  Biso   1.000  C
  H24      1.0000 0.12480  0.12460  0.04850  Biso   1.000  H
  C31      1.0000 0.03330  0.08030  0.77140  Biso   1.000  C
  H25      1.0000 0.99740  0.10030  0.81680  Biso   1.000  H
  C32      1.0000 0.02790  0.09580  0.67130  Biso   1.000  C
  H26      1.0000 0.98840  0.12650  0.64830  Biso   1.000  H
  C33      1.0000 0.07950  0.06730  0.60260  Biso   1.000  C
  C34      1.0000 0.13960  0.02660  0.64190  Biso   1.000  C
  H27      1.0000 0.17820  0.00880  0.59840  Biso   1.000  H
  C35      1.0000 0.14350  0.01200  0.74310  Biso   1.000  C
  H28      1.0000 0.18450  0.98420  0.76870  Biso   1.000  H
  C36      1.0000 0.99440  0.86657  0.35270  Biso   1.000  C
  H29      1.0000 0.02710  0.82990  0.32780  Biso   1.000  H
  C37      1.0000 0.97880  0.87010  0.45370  Biso   1.000  C
  H30      1.0000 0.00060  0.83550  0.49760  Biso   1.000  H
  C38      1.0000 0.06890  0.07620  0.49300  Biso   1.000  C
  C39      1.0000 0.10220  0.03020  0.42410  Biso   1.000  C
  H31      1.0000 0.13700  0.99450  0.44670  Biso   1.000  H
  C40      1.0000 0.91410  0.96480  0.32310  Biso   1.000  C
  H32      1.0000 0.89050  0.99680  0.27700  Biso   1.000  H
  O9       1.0000 0.36866  0.49228  0.89117  Biso   1.000  O
  O10      1.0000 0.48762  0.37461  0.00734  Biso   1.000  O
  O11      1.0000 0.59151  0.48340  0.09870  Biso   1.000  O
  O12      1.0000 0.48405  0.58692  0.80620  Biso   1.000  O
  N9       1.0000 0.31546  0.44226  0.90780  Biso   1.000  N
  N10      1.0000 0.53919  0.32292  0.01810  Biso   1.000  N
  N11      1.0000 0.58930  0.46309  0.19350  Biso   1.000  N
  N12      1.0000 0.46398  0.58558  0.71070  Biso   1.000  N
  C41      1.0000 0.24320  0.46360  0.92380  Biso   1.000  C
  H33      1.0000 0.23120  0.51340  0.92550  Biso   1.000  H
  C42      1.0000 0.18720  0.41340  0.93740  Biso   1.000  C
  H34      1.0000 0.13610  0.42890  0.94650  Biso   1.000  H
  C43      1.0000 0.20340  0.34100  0.93810  Biso   1.000  C
  C44      1.0000 0.27930  0.32100  0.92140  Biso   1.000  C
  H35      1.0000 0.29330  0.27150  0.92140  Biso   1.000  H
  C45      1.0000 0.33300  0.37270  0.90530  Biso   1.000  C
  H36      1.0000 0.38400  0.35870  0.89200  Biso   1.000  H
  C46      1.0000 0.51940  0.26170  0.06450  Biso   1.000  C
  H37      1.0000 0.46870  0.25580  0.08770  Biso   1.000  H
  C47      1.0000 0.57100  0.20770  0.07920  Biso   1.000  C
  H38      1.0000 0.55560  0.16440  0.11140  Biso   1.000  H
  C48      1.0000 0.14580  0.28440  0.95270  Biso   1.000  C
  C49      1.0000 0.16370  0.22140  0.00160  Biso   1.000  C
  H39      1.0000 0.21390  0.21480  0.02650  Biso   1.000  H
  C50      1.0000 0.61090  0.33200  0.98460  Biso   1.000  C
  H40      1.0000 0.62480  0.37540  0.95150  Biso   1.000  H
  C51      1.0000 0.53330  0.41970  0.22860  Biso   1.000  C
  H41      1.0000 0.49740  0.39970  0.18320  Biso   1.000  H
  C52      1.0000 0.52790  0.40420  0.32870  Biso   1.000  C
  H42      1.0000 0.48840  0.37350  0.35170  Biso   1.000  H
  C53      1.0000 0.57950  0.43270  0.39740  Biso   1.000  C
  C54      1.0000 0.63960  0.47340  0.35810  Biso   1.000  C
  H43      1.0000 0.67820  0.49120  0.40160  Biso   1.000  H
  C55      1.0000 0.64350  0.48800  0.25690  Biso   1.000  C
  H44      1.0000 0.68450  0.51580  0.23130  Biso   1.000  H
  C56      1.0000 0.49440  0.63343  0.64730  Biso   1.000  C
  H45      1.0000 0.52710  0.67010  0.67220  Biso   1.000  H
  C57      1.0000 0.47880  0.62990  0.54630  Biso   1.000  C
  H46      1.0000 0.50060  0.66450  0.50240  Biso   1.000  H
  C58      1.0000 0.56890  0.42380  0.50700  Biso   1.000  C
  C59      1.0000 0.60220  0.46980  0.57590  Biso   1.000  C
  H47      1.0000 0.63700  0.50550  0.55330  Biso   1.000  H
  C60      1.0000 0.41410  0.53520  0.67690  Biso   1.000  C
  H48      1.0000 0.39050  0.50320  0.72300  Biso   1.000  H
  O13      1.0000 0.63134  0.50772  0.89117  Biso   1.000  O
  O14      1.0000 0.51238  0.62539  0.00734  Biso   1.000  O
  O15      1.0000 0.40849  0.51660  0.09870  Biso   1.000  O
  O16      1.0000 0.51595  0.41308  0.80620  Biso   1.000  O
  N13      1.0000 0.68454  0.55774  0.90780  Biso   1.000  N
  N14      1.0000 0.46081  0.67708  0.01810  Biso   1.000  N
  N15      1.0000 0.41070  0.53691  0.19350  Biso   1.000  N
  N16      1.0000 0.53602  0.41442  0.71070  Biso   1.000  N
  C61      1.0000 0.75680  0.53640  0.92380  Biso   1.000  C
  H49      1.0000 0.76880  0.48660  0.92550  Biso   1.000  H
  C62      1.0000 0.81280  0.58660  0.93740  Biso   1.000  C
  H50      1.0000 0.86390  0.57110  0.94650  Biso   1.000  H
  C63      1.0000 0.79660  0.65900  0.93810  Biso   1.000  C
  C64      1.0000 0.72070  0.67900  0.92140  Biso   1.000  C
  H51      1.0000 0.70670  0.72850  0.92140  Biso   1.000  H
  C65      1.0000 0.66700  0.62730  0.90530  Biso   1.000  C
  H52      1.0000 0.61600  0.64130  0.89200  Biso   1.000  H
  C66      1.0000 0.48060  0.73830  0.06450  Biso   1.000  C
  H53      1.0000 0.53130  0.74420  0.08770  Biso   1.000  H
  C67      1.0000 0.42900  0.79230  0.07920  Biso   1.000  C
  H54      1.0000 0.44440  0.83560  0.11140  Biso   1.000  H
  C68      1.0000 0.85420  0.71560  0.95270  Biso   1.000  C
  C69      1.0000 0.83630  0.77860  0.00160  Biso   1.000  C
  H55      1.0000 0.78610  0.78520  0.02650  Biso   1.000  H
  C70      1.0000 0.38910  0.66800  0.98460  Biso   1.000  C
  H56      1.0000 0.37520  0.62460  0.95150  Biso   1.000  H
  C71      1.0000 0.46670  0.58030  0.22860  Biso   1.000  C
  H57      1.0000 0.50260  0.60030  0.18320  Biso   1.000  H
  C72      1.0000 0.47210  0.59580  0.32870  Biso   1.000  C
  H58      1.0000 0.51160  0.62650  0.35170  Biso   1.000  H
  C73      1.0000 0.42050  0.56730  0.39740  Biso   1.000  C
  C74      1.0000 0.36040  0.52660  0.35810  Biso   1.000  C
  H59      1.0000 0.32180  0.50880  0.40160  Biso   1.000  H
  C75      1.0000 0.35650  0.51200  0.25690  Biso   1.000  C
  H60      1.0000 0.31550  0.48420  0.23130  Biso   1.000  H
  C76      1.0000 0.50560  0.36657  0.64730  Biso   1.000  C
  H61      1.0000 0.47290  0.32990  0.67220  Biso   1.000  H
  C77      1.0000 0.52120  0.37010  0.54630  Biso   1.000  C
  H62      1.0000 0.49940  0.33550  0.50240  Biso   1.000  H
  C78      1.0000 0.43110  0.57620  0.50700  Biso   1.000  C
  C79      1.0000 0.39780  0.53020  0.57590  Biso   1.000  C
  H63      1.0000 0.36300  0.49450  0.55330  Biso   1.000  H
  C80      1.0000 0.58590  0.46480  0.67690  Biso   1.000  C
  H64      1.0000 0.60950  0.49680  0.72300  Biso   1.000  H
  La1      1.0000 0.00000  0.00000  0.04648  Biso   1.000  La
  La2      1.0000 0.50000  0.50000  0.95352  Biso   1.000  La
