data_IBOWIH_charged
_audit_creation_date              2014-07-02
_audit_creation_method            'Materials Studio'
_symmetry_space_group_name_H-M    'P1'
_symmetry_Int_Tables_number       1
_symmetry_cell_setting            triclinic
loop_
_symmetry_equiv_pos_as_xyz
  x,y,z
_cell_length_a                    13.3714
_cell_length_b                    13.3714
_cell_length_c                    41.4227
_cell_angle_alpha                 90.0000
_cell_angle_beta                  90.0000
_cell_angle_gamma                 120.0000
loop_
_atom_site_label
_atom_site_type_symbol
_atom_site_fract_x
_atom_site_fract_y
_atom_site_fract_z
_atom_site_U_iso_or_equiv
_atom_site_adp_type
_atom_site_occupancy
Zn1    Zn    0.35836   0.66574   0.25050   0.01267  Uiso   1.00
Zn2    Zn    0.30738   0.64164   0.91717   0.01267  Uiso   1.00
Zn3    Zn    0.33426   0.69262   0.58383   0.01267  Uiso   1.00
Zn4    Zn    0.69262   0.33426   0.74950   0.01267  Uiso   1.00
Zn5    Zn    0.66574   0.35836   0.08283   0.01267  Uiso   1.00
Zn6    Zn    0.64164   0.30738   0.41617   0.01267  Uiso   1.00
H1     H     0.22440   0.47540   0.22500   0.01267  Uiso   1.00
H2     H     0.33900   0.48030   0.22740   0.01267  Uiso   1.00
H3     H     0.35590   0.49190   0.17800   0.01267  Uiso   1.00
H4     H     0.46200   0.64600   0.13890   0.01267  Uiso   1.00
H5     H     0.58010   0.73790   0.10100   0.01267  Uiso   1.00
H6     H     0.70640   0.91290   0.07590   0.01267  Uiso   1.00
H7     H     0.68060   0.08580   0.15210   0.01267  Uiso   1.00
H8     H     0.55660   0.91110   0.17770   0.01267  Uiso   1.00
H9     H     0.84420   0.11740   0.08720   0.01267  Uiso   1.00
H10    H     0.91290   0.30070   0.06250   0.01267  Uiso   1.00
H11    H     0.86900   0.45900   0.05930   0.01267  Uiso   1.00
H12    H     0.79400   0.35700   0.04110   0.01267  Uiso   1.00
H13    H     0.19970   0.58180   0.17680   0.01267  Uiso   1.00
H14    H     0.24640   0.54930   0.14520   0.01267  Uiso   1.00
H15    H     0.02040   0.43970   0.19800   0.01267  Uiso   1.00
H16    H     0.86770   0.24990   0.20000   0.01267  Uiso   1.00
H17    H     0.88180   0.10370   0.17480   0.01267  Uiso   1.00
H18    H     0.04770   0.14500   0.14600   0.01267  Uiso   1.00
H19    H     0.20090   0.33410   0.14340   0.01267  Uiso   1.00
H20    H     0.89940   0.40990   0.12140   0.01267  Uiso   1.00
H21    H     0.97380   0.34700   0.11770   0.01267  Uiso   1.00
H22    H     0.15360   0.43960   0.08620   0.01267  Uiso   1.00
H23    H     0.31330   0.61280   0.06980   0.01267  Uiso   1.00
H24    H     0.30160   0.78120   0.06730   0.01267  Uiso   1.00
H25    H     0.13010   0.77590   0.08050   0.01267  Uiso   1.00
H26    H     0.97240   0.60370   0.09970   0.01267  Uiso   1.00
H27    H     0.53100   0.70800   0.28680   0.01267  Uiso   1.00
H28    H     0.52700   0.62710   0.26260   0.01267  Uiso   1.00
H29    H     0.42840   0.47740   0.29060   0.01267  Uiso   1.00
H30    H     0.27500   0.38520   0.33140   0.01267  Uiso   1.00
H31    H     0.09990   0.20990   0.32970   0.01267  Uiso   1.00
H32    H     0.09980   0.50990   0.32950   0.01267  Uiso   1.00
H33    H     0.51170   0.64980   0.34050   0.01267  Uiso   1.00
H34    H     0.45610   0.51490   0.34810   0.01267  Uiso   1.00
H35    H     0.71340   0.74900   0.34430   0.01267  Uiso   1.00
H36    H     0.89350   0.75950   0.33970   0.01267  Uiso   1.00
H37    H     0.90510   0.60370   0.31990   0.01267  Uiso   1.00
H38    H     0.73830   0.43540   0.30420   0.01267  Uiso   1.00
H39    H     0.55850   0.42430   0.30780   0.01267  Uiso   1.00
H40    H     0.25100   0.77560   0.89167   0.01267  Uiso   1.00
H41    H     0.14130   0.66100   0.89407   0.01267  Uiso   1.00
H42    H     0.13600   0.64410   0.84467   0.01267  Uiso   1.00
H43    H     0.18400   0.53800   0.80557   0.01267  Uiso   1.00
H44    H     0.15780   0.41990   0.76767   0.01267  Uiso   1.00
H45    H     0.20650   0.29360   0.74257   0.01267  Uiso   1.00
H46    H     0.40520   0.31940   0.81877   0.01267  Uiso   1.00
H47    H     0.35450   0.44340   0.84437   0.01267  Uiso   1.00
H48    H     0.27320   0.15580   0.75387   0.01267  Uiso   1.00
H49    H     0.38780   0.08710   0.72917   0.01267  Uiso   1.00
H50    H     0.59000   0.13100   0.72597   0.01267  Uiso   1.00
H51    H     0.56300   0.20600   0.70777   0.01267  Uiso   1.00
H52    H     0.38210   0.80030   0.84347   0.01267  Uiso   1.00
H53    H     0.30290   0.75360   0.81187   0.01267  Uiso   1.00
H54    H     0.41930   0.97960   0.86467   0.01267  Uiso   1.00
H55    H     0.38220   0.13230   0.86667   0.01267  Uiso   1.00
H56    H     0.22190   0.11820   0.84147   0.01267  Uiso   1.00
H57    H     0.09730   0.95230   0.81267   0.01267  Uiso   1.00
H58    H     0.13320   0.79910   0.81007   0.01267  Uiso   1.00
H59    H     0.51050   0.10060   0.78807   0.01267  Uiso   1.00
H60    H     0.37320   0.02620   0.78437   0.01267  Uiso   1.00
H61    H     0.28600   0.84640   0.75287   0.01267  Uiso   1.00
H62    H     0.29950   0.68670   0.73647   0.01267  Uiso   1.00
H63    H     0.47960   0.69840   0.73397   0.01267  Uiso   1.00
H64    H     0.64580   0.86990   0.74717   0.01267  Uiso   1.00
H65    H     0.63130   0.02760   0.76637   0.01267  Uiso   1.00
H66    H     0.17700   0.46900   0.95347   0.01267  Uiso   1.00
H67    H     0.10010   0.47300   0.92927   0.01267  Uiso   1.00
H68    H     0.04900   0.57160   0.95727   0.01267  Uiso   1.00
H69    H     0.11020   0.72500   0.99807   0.01267  Uiso   1.00
H70    H     0.11000   0.90010   0.99637   0.01267  Uiso   1.00
H71    H     0.41010   0.90020   0.99617   0.01267  Uiso   1.00
H72    H     0.13810   0.48830   0.00717   0.01267  Uiso   1.00
H73    H     0.05880   0.54390   0.01477   0.01267  Uiso   1.00
H74    H     0.03560   0.28660   0.01097   0.01267  Uiso   1.00
H75    H     0.86600   0.10650   0.00637   0.01267  Uiso   1.00
H76    H     0.69860   0.09490   0.98657   0.01267  Uiso   1.00
H77    H     0.69710   0.26170   0.97087   0.01267  Uiso   1.00
H78    H     0.86580   0.44150   0.97447   0.01267  Uiso   1.00
H79    H     0.52460   0.74900   0.55833   0.01267  Uiso   1.00
H80    H     0.51970   0.85870   0.56073   0.01267  Uiso   1.00
H81    H     0.50810   0.86400   0.51133   0.01267  Uiso   1.00
H82    H     0.35400   0.81600   0.47223   0.01267  Uiso   1.00
H83    H     0.26210   0.84220   0.43433   0.01267  Uiso   1.00
H84    H     0.08710   0.79350   0.40923   0.01267  Uiso   1.00
H85    H     0.91420   0.59480   0.48543   0.01267  Uiso   1.00
H86    H     0.08890   0.64550   0.51103   0.01267  Uiso   1.00
H87    H     0.88260   0.72680   0.42053   0.01267  Uiso   1.00
H88    H     0.69930   0.61220   0.39583   0.01267  Uiso   1.00
H89    H     0.54100   0.41000   0.39263   0.01267  Uiso   1.00
H90    H     0.64300   0.43700   0.37443   0.01267  Uiso   1.00
H91    H     0.41820   0.61790   0.51013   0.01267  Uiso   1.00
H92    H     0.45070   0.69710   0.47853   0.01267  Uiso   1.00
H93    H     0.56030   0.58070   0.53133   0.01267  Uiso   1.00
H94    H     0.75010   0.61780   0.53333   0.01267  Uiso   1.00
H95    H     0.89630   0.77810   0.50813   0.01267  Uiso   1.00
H96    H     0.85500   0.90270   0.47933   0.01267  Uiso   1.00
H97    H     0.66590   0.86680   0.47673   0.01267  Uiso   1.00
H98    H     0.59010   0.48950   0.45473   0.01267  Uiso   1.00
H99    H     0.65300   0.62680   0.45103   0.01267  Uiso   1.00
H100   H     0.56040   0.71400   0.41953   0.01267  Uiso   1.00
H101   H     0.38720   0.70050   0.40313   0.01267  Uiso   1.00
H102   H     0.21880   0.52040   0.40063   0.01267  Uiso   1.00
H103   H     0.22410   0.35420   0.41383   0.01267  Uiso   1.00
H104   H     0.39630   0.36870   0.43303   0.01267  Uiso   1.00
H105   H     0.29200   0.82300   0.62013   0.01267  Uiso   1.00
H106   H     0.37290   0.89990   0.59593   0.01267  Uiso   1.00
H107   H     0.52260   0.95100   0.62393   0.01267  Uiso   1.00
H108   H     0.61480   0.88980   0.66473   0.01267  Uiso   1.00
H109   H     0.79010   0.89000   0.66303   0.01267  Uiso   1.00
H110   H     0.49010   0.58990   0.66283   0.01267  Uiso   1.00
H111   H     0.35020   0.86190   0.67383   0.01267  Uiso   1.00
H112   H     0.48510   0.94120   0.68143   0.01267  Uiso   1.00
H113   H     0.25100   0.96440   0.67763   0.01267  Uiso   1.00
H114   H     0.24050   0.13400   0.67303   0.01267  Uiso   1.00
H115   H     0.39630   0.30140   0.65323   0.01267  Uiso   1.00
H116   H     0.56460   0.30290   0.63753   0.01267  Uiso   1.00
H117   H     0.57570   0.13420   0.64113   0.01267  Uiso   1.00
H118   H     0.74900   0.52460   0.77500   0.01267  Uiso   1.00
H119   H     0.85870   0.51970   0.77260   0.01267  Uiso   1.00
H120   H     0.86400   0.50810   0.82200   0.01267  Uiso   1.00
H121   H     0.81600   0.35400   0.86110   0.01267  Uiso   1.00
H122   H     0.84220   0.26210   0.89900   0.01267  Uiso   1.00
H123   H     0.79350   0.08710   0.92410   0.01267  Uiso   1.00
H124   H     0.59480   0.91420   0.84790   0.01267  Uiso   1.00
H125   H     0.64550   0.08890   0.82230   0.01267  Uiso   1.00
H126   H     0.72680   0.88260   0.91280   0.01267  Uiso   1.00
H127   H     0.61220   0.69930   0.93750   0.01267  Uiso   1.00
H128   H     0.41000   0.54100   0.94070   0.01267  Uiso   1.00
H129   H     0.43700   0.64300   0.95890   0.01267  Uiso   1.00
H130   H     0.61790   0.41820   0.82320   0.01267  Uiso   1.00
H131   H     0.69710   0.45070   0.85480   0.01267  Uiso   1.00
H132   H     0.58070   0.56030   0.80200   0.01267  Uiso   1.00
H133   H     0.61780   0.75010   0.80000   0.01267  Uiso   1.00
H134   H     0.77810   0.89630   0.82520   0.01267  Uiso   1.00
H135   H     0.90270   0.85500   0.85400   0.01267  Uiso   1.00
H136   H     0.86680   0.66590   0.85660   0.01267  Uiso   1.00
H137   H     0.48950   0.59010   0.87860   0.01267  Uiso   1.00
H138   H     0.62680   0.65300   0.88230   0.01267  Uiso   1.00
H139   H     0.71400   0.56040   0.91380   0.01267  Uiso   1.00
H140   H     0.70050   0.38720   0.93020   0.01267  Uiso   1.00
H141   H     0.52040   0.21880   0.93270   0.01267  Uiso   1.00
H142   H     0.35420   0.22410   0.91950   0.01267  Uiso   1.00
H143   H     0.36870   0.39630   0.90030   0.01267  Uiso   1.00
H144   H     0.82300   0.29200   0.71320   0.01267  Uiso   1.00
H145   H     0.89990   0.37290   0.73740   0.01267  Uiso   1.00
H146   H     0.95100   0.52260   0.70940   0.01267  Uiso   1.00
H147   H     0.88980   0.61480   0.66860   0.01267  Uiso   1.00
H148   H     0.89000   0.79010   0.67030   0.01267  Uiso   1.00
H149   H     0.58990   0.49010   0.67050   0.01267  Uiso   1.00
H150   H     0.86190   0.35020   0.65950   0.01267  Uiso   1.00
H151   H     0.94120   0.48510   0.65190   0.01267  Uiso   1.00
H152   H     0.96440   0.25100   0.65570   0.01267  Uiso   1.00
H153   H     0.13400   0.24050   0.66030   0.01267  Uiso   1.00
H154   H     0.30140   0.39630   0.68010   0.01267  Uiso   1.00
H155   H     0.30290   0.56460   0.69580   0.01267  Uiso   1.00
H156   H     0.13420   0.57570   0.69220   0.01267  Uiso   1.00
H157   H     0.47540   0.22440   0.10833   0.01267  Uiso   1.00
H158   H     0.48030   0.33900   0.10593   0.01267  Uiso   1.00
H159   H     0.49190   0.35590   0.15533   0.01267  Uiso   1.00
H160   H     0.64600   0.46200   0.19443   0.01267  Uiso   1.00
H161   H     0.73790   0.58010   0.23233   0.01267  Uiso   1.00
H162   H     0.91290   0.70640   0.25743   0.01267  Uiso   1.00
H163   H     0.08580   0.68060   0.18123   0.01267  Uiso   1.00
H164   H     0.91110   0.55660   0.15563   0.01267  Uiso   1.00
H165   H     0.11740   0.84420   0.24613   0.01267  Uiso   1.00
H166   H     0.30070   0.91290   0.27083   0.01267  Uiso   1.00
H167   H     0.45900   0.86900   0.27403   0.01267  Uiso   1.00
H168   H     0.35700   0.79400   0.29223   0.01267  Uiso   1.00
H169   H     0.58180   0.19970   0.15653   0.01267  Uiso   1.00
H170   H     0.54930   0.24640   0.18813   0.01267  Uiso   1.00
H171   H     0.43970   0.02040   0.13533   0.01267  Uiso   1.00
H172   H     0.24990   0.86770   0.13333   0.01267  Uiso   1.00
H173   H     0.10370   0.88180   0.15853   0.01267  Uiso   1.00
H174   H     0.14500   0.04770   0.18733   0.01267  Uiso   1.00
H175   H     0.33410   0.20090   0.18993   0.01267  Uiso   1.00
H176   H     0.40990   0.89940   0.21193   0.01267  Uiso   1.00
H177   H     0.34700   0.97380   0.21563   0.01267  Uiso   1.00
H178   H     0.43960   0.15360   0.24713   0.01267  Uiso   1.00
H179   H     0.61280   0.31330   0.26353   0.01267  Uiso   1.00
H180   H     0.78120   0.30160   0.26603   0.01267  Uiso   1.00
H181   H     0.77590   0.13010   0.25283   0.01267  Uiso   1.00
H182   H     0.60370   0.97240   0.23363   0.01267  Uiso   1.00
H183   H     0.70800   0.53100   0.04653   0.01267  Uiso   1.00
H184   H     0.62710   0.52700   0.07073   0.01267  Uiso   1.00
H185   H     0.47740   0.42840   0.04273   0.01267  Uiso   1.00
H186   H     0.38520   0.27500   0.00193   0.01267  Uiso   1.00
H187   H     0.20990   0.09990   0.00363   0.01267  Uiso   1.00
H188   H     0.50990   0.09980   0.00383   0.01267  Uiso   1.00
H189   H     0.64980   0.51170   0.99283   0.01267  Uiso   1.00
H190   H     0.51490   0.45610   0.98523   0.01267  Uiso   1.00
H191   H     0.74900   0.71340   0.98903   0.01267  Uiso   1.00
H192   H     0.75950   0.89350   0.99363   0.01267  Uiso   1.00
H193   H     0.60370   0.90510   0.01343   0.01267  Uiso   1.00
H194   H     0.43540   0.73830   0.02913   0.01267  Uiso   1.00
H195   H     0.42430   0.55850   0.02553   0.01267  Uiso   1.00
H196   H     0.77560   0.25100   0.44167   0.01267  Uiso   1.00
H197   H     0.66100   0.14130   0.43927   0.01267  Uiso   1.00
H198   H     0.64410   0.13600   0.48867   0.01267  Uiso   1.00
H199   H     0.53800   0.18400   0.52777   0.01267  Uiso   1.00
H200   H     0.41990   0.15780   0.56567   0.01267  Uiso   1.00
H201   H     0.29360   0.20650   0.59077   0.01267  Uiso   1.00
H202   H     0.31940   0.40520   0.51457   0.01267  Uiso   1.00
H203   H     0.44340   0.35450   0.48897   0.01267  Uiso   1.00
H204   H     0.15580   0.27320   0.57947   0.01267  Uiso   1.00
H205   H     0.08710   0.38780   0.60417   0.01267  Uiso   1.00
H206   H     0.13100   0.59000   0.60737   0.01267  Uiso   1.00
H207   H     0.20600   0.56300   0.62557   0.01267  Uiso   1.00
H208   H     0.80030   0.38210   0.48987   0.01267  Uiso   1.00
H209   H     0.75360   0.30290   0.52147   0.01267  Uiso   1.00
H210   H     0.97960   0.41930   0.46867   0.01267  Uiso   1.00
H211   H     0.13230   0.38220   0.46667   0.01267  Uiso   1.00
H212   H     0.11820   0.22190   0.49187   0.01267  Uiso   1.00
H213   H     0.95230   0.09730   0.52067   0.01267  Uiso   1.00
H214   H     0.79910   0.13320   0.52327   0.01267  Uiso   1.00
H215   H     0.10060   0.51050   0.54527   0.01267  Uiso   1.00
H216   H     0.02620   0.37320   0.54897   0.01267  Uiso   1.00
H217   H     0.84640   0.28600   0.58047   0.01267  Uiso   1.00
H218   H     0.68670   0.29950   0.59687   0.01267  Uiso   1.00
H219   H     0.69840   0.47960   0.59937   0.01267  Uiso   1.00
H220   H     0.86990   0.64580   0.58617   0.01267  Uiso   1.00
H221   H     0.02760   0.63130   0.56697   0.01267  Uiso   1.00
H222   H     0.46900   0.17700   0.37987   0.01267  Uiso   1.00
H223   H     0.47300   0.10010   0.40407   0.01267  Uiso   1.00
H224   H     0.57160   0.04900   0.37607   0.01267  Uiso   1.00
H225   H     0.72500   0.11020   0.33527   0.01267  Uiso   1.00
H226   H     0.90010   0.11000   0.33697   0.01267  Uiso   1.00
H227   H     0.90020   0.41010   0.33717   0.01267  Uiso   1.00
H228   H     0.48830   0.13810   0.32617   0.01267  Uiso   1.00
H229   H     0.54390   0.05880   0.31857   0.01267  Uiso   1.00
H230   H     0.28660   0.03560   0.32237   0.01267  Uiso   1.00
H231   H     0.10650   0.86600   0.32697   0.01267  Uiso   1.00
H232   H     0.09490   0.69860   0.34677   0.01267  Uiso   1.00
H233   H     0.26170   0.69710   0.36247   0.01267  Uiso   1.00
H234   H     0.44150   0.86580   0.35887   0.01267  Uiso   1.00
C1     C     0.33000   0.54460   0.18708   0.01267  Uiso   1.00
C2     C     0.42820   0.67010   0.18386   0.01267  Uiso   1.00
C3     C     0.55610   0.80730   0.14178   0.01267  Uiso   1.00
C4     C     0.60080   0.80870   0.11160   0.01267  Uiso   1.00
C5     C     0.67570   0.91270   0.09663   0.01267  Uiso   1.00
C6     C     0.70560   0.01570   0.11182   0.01267  Uiso   1.00
C7     C     0.66080   0.01500   0.14173   0.01267  Uiso   1.00
C8     C     0.58650   0.91090   0.15687   0.01267  Uiso   1.00
C9     C     0.76680   0.21030   0.09214   0.01267  Uiso   1.00
C10    C     0.86810   0.32070   0.07800   0.01267  Uiso   1.00
C11    C     0.22470   0.52880   0.16814   0.01267  Uiso   1.00
C12    C     0.12580   0.40630   0.17019   0.01267  Uiso   1.00
C13    C     0.02650   0.38030   0.18726   0.01267  Uiso   1.00
C14    C     0.93610   0.26730   0.18852   0.01267  Uiso   1.00
C15    C     0.94410   0.18090   0.17357   0.01267  Uiso   1.00
C16    C     0.04240   0.20520   0.15659   0.01267  Uiso   1.00
C17    C     0.13300   0.31750   0.15499   0.01267  Uiso   1.00
C18    C     0.94570   0.39280   0.10608   0.01267  Uiso   1.00
C19    C     0.04740   0.50430   0.09501   0.01267  Uiso   1.00
C20    C     0.14890   0.50820   0.08566   0.01267  Uiso   1.00
C21    C     0.24370   0.61100   0.07559   0.01267  Uiso   1.00
C22    C     0.23660   0.71080   0.07404   0.01267  Uiso   1.00
C23    C     0.13580   0.70810   0.08229   0.01267  Uiso   1.00
C24    C     0.04120   0.60480   0.09334   0.01267  Uiso   1.00
C25    C     0.42975   0.54655   0.30029   0.01267  Uiso   1.00
C26    C     0.30410   0.51600   0.30559   0.01267  Uiso   1.00
C27    C     0.11890   0.37000   0.32896   0.01267  Uiso   1.00
C28    C     0.05940   0.25130   0.33115   0.01267  Uiso   1.00
C29    C     0.05950   0.42800   0.33110   0.01267  Uiso   1.00
C30    C     0.50030   0.57570   0.33190   0.01267  Uiso   1.00
C31    C     0.61710   0.58530   0.32699   0.01267  Uiso   1.00
C32    C     0.71760   0.68480   0.33616   0.01267  Uiso   1.00
C33    C     0.82520   0.69110   0.33340   0.01267  Uiso   1.00
C34    C     0.83200   0.59910   0.32164   0.01267  Uiso   1.00
C35    C     0.73310   0.49920   0.31222   0.01267  Uiso   1.00
C36    C     0.62610   0.49240   0.31462   0.01267  Uiso   1.00
C37    C     0.21460   0.67000   0.85375   0.01267  Uiso   1.00
C38    C     0.24190   0.57180   0.85053   0.01267  Uiso   1.00
C39    C     0.25120   0.44390   0.80845   0.01267  Uiso   1.00
C40    C     0.20790   0.39920   0.77827   0.01267  Uiso   1.00
C41    C     0.23700   0.32430   0.76330   0.01267  Uiso   1.00
C42    C     0.31010   0.29440   0.77849   0.01267  Uiso   1.00
C43    C     0.35420   0.33920   0.80840   0.01267  Uiso   1.00
C44    C     0.32440   0.41350   0.82354   0.01267  Uiso   1.00
C45    C     0.44350   0.23320   0.75881   0.01267  Uiso   1.00
C46    C     0.45260   0.13190   0.74467   0.01267  Uiso   1.00
C47    C     0.30410   0.77530   0.83481   0.01267  Uiso   1.00
C48    C     0.28050   0.87420   0.83686   0.01267  Uiso   1.00
C49    C     0.35380   0.97350   0.85393   0.01267  Uiso   1.00
C50    C     0.33120   0.06390   0.85519   0.01267  Uiso   1.00
C51    C     0.23680   0.05590   0.84024   0.01267  Uiso   1.00
C52    C     0.16280   0.95760   0.82326   0.01267  Uiso   1.00
C53    C     0.18450   0.86700   0.82166   0.01267  Uiso   1.00
C54    C     0.44710   0.05430   0.77275   0.01267  Uiso   1.00
C55    C     0.45690   0.95260   0.76168   0.01267  Uiso   1.00
C56    C     0.35930   0.85110   0.75233   0.01267  Uiso   1.00
C57    C     0.36730   0.75630   0.74226   0.01267  Uiso   1.00
C58    C     0.47420   0.76340   0.74071   0.01267  Uiso   1.00
C59    C     0.57230   0.86420   0.74896   0.01267  Uiso   1.00
C60    C     0.56360   0.95880   0.76001   0.01267  Uiso   1.00
C61    C     0.11680   0.57025   0.96696   0.01267  Uiso   1.00
C62    C     0.21190   0.69590   0.97226   0.01267  Uiso   1.00
C63    C     0.25110   0.88110   0.99563   0.01267  Uiso   1.00
C64    C     0.19190   0.94060   0.99782   0.01267  Uiso   1.00
C65    C     0.36850   0.94050   0.99777   0.01267  Uiso   1.00
C66    C     0.07540   0.49970   0.99857   0.01267  Uiso   1.00
C67    C     0.96820   0.38290   0.99366   0.01267  Uiso   1.00
C68    C     0.96720   0.28240   0.00283   0.01267  Uiso   1.00
C69    C     0.86590   0.17480   0.00007   0.01267  Uiso   1.00
C70    C     0.76710   0.16800   0.98831   0.01267  Uiso   1.00
C71    C     0.76610   0.26690   0.97889   0.01267  Uiso   1.00
C72    C     0.86630   0.37390   0.98129   0.01267  Uiso   1.00
C73    C     0.45540   0.78540   0.52041   0.01267  Uiso   1.00
C74    C     0.32990   0.75810   0.51719   0.01267  Uiso   1.00
C75    C     0.19270   0.74880   0.47511   0.01267  Uiso   1.00
C76    C     0.19130   0.79210   0.44493   0.01267  Uiso   1.00
C77    C     0.08730   0.76300   0.42996   0.01267  Uiso   1.00
C78    C     0.98430   0.68990   0.44515   0.01267  Uiso   1.00
C79    C     0.98500   0.64580   0.47506   0.01267  Uiso   1.00
C80    C     0.08910   0.67560   0.49020   0.01267  Uiso   1.00
C81    C     0.78970   0.55650   0.42547   0.01267  Uiso   1.00
C82    C     0.67930   0.54740   0.41133   0.01267  Uiso   1.00
C83    C     0.47120   0.69590   0.50147   0.01267  Uiso   1.00
C84    C     0.59370   0.71950   0.50352   0.01267  Uiso   1.00
C85    C     0.61970   0.64620   0.52059   0.01267  Uiso   1.00
C86    C     0.73270   0.66880   0.52185   0.01267  Uiso   1.00
C87    C     0.81910   0.76320   0.50690   0.01267  Uiso   1.00
C88    C     0.79480   0.83720   0.48992   0.01267  Uiso   1.00
C89    C     0.68250   0.81550   0.48832   0.01267  Uiso   1.00
C90    C     0.60720   0.55290   0.43941   0.01267  Uiso   1.00
C91    C     0.49570   0.54310   0.42834   0.01267  Uiso   1.00
C92    C     0.49180   0.64070   0.41899   0.01267  Uiso   1.00
C93    C     0.38900   0.63270   0.40892   0.01267  Uiso   1.00
C94    C     0.28920   0.52580   0.40737   0.01267  Uiso   1.00
C95    C     0.29190   0.42770   0.41562   0.01267  Uiso   1.00
C96    C     0.39520   0.43640   0.42667   0.01267  Uiso   1.00
C97    C     0.45345   0.88320   0.63362   0.01267  Uiso   1.00
C98    C     0.48400   0.78810   0.63892   0.01267  Uiso   1.00
C99    C     0.63000   0.74890   0.66229   0.01267  Uiso   1.00
C100   C     0.74870   0.80810   0.66448   0.01267  Uiso   1.00
C101   C     0.57200   0.63150   0.66443   0.01267  Uiso   1.00
C102   C     0.42430   0.92460   0.66523   0.01267  Uiso   1.00
C103   C     0.41470   0.03180   0.66032   0.01267  Uiso   1.00
C104   C     0.31520   0.03280   0.66949   0.01267  Uiso   1.00
C105   C     0.30890   0.13410   0.66673   0.01267  Uiso   1.00
C106   C     0.40090   0.23290   0.65497   0.01267  Uiso   1.00
C107   C     0.50080   0.23390   0.64555   0.01267  Uiso   1.00
C108   C     0.50760   0.13370   0.64795   0.01267  Uiso   1.00
C109   C     0.78540   0.45540   0.81292   0.01267  Uiso   1.00
C110   C     0.75810   0.32990   0.81614   0.01267  Uiso   1.00
C111   C     0.74880   0.19270   0.85822   0.01267  Uiso   1.00
C112   C     0.79210   0.19130   0.88840   0.01267  Uiso   1.00
C113   C     0.76300   0.08730   0.90337   0.01267  Uiso   1.00
C114   C     0.68990   0.98430   0.88818   0.01267  Uiso   1.00
C115   C     0.64580   0.98500   0.85827   0.01267  Uiso   1.00
C116   C     0.67560   0.08910   0.84313   0.01267  Uiso   1.00
C117   C     0.55650   0.78970   0.90786   0.01267  Uiso   1.00
C118   C     0.54740   0.67930   0.92200   0.01267  Uiso   1.00
C119   C     0.69590   0.47120   0.83186   0.01267  Uiso   1.00
C120   C     0.71950   0.59370   0.82981   0.01267  Uiso   1.00
C121   C     0.64620   0.61970   0.81274   0.01267  Uiso   1.00
C122   C     0.66880   0.73270   0.81148   0.01267  Uiso   1.00
C123   C     0.76320   0.81910   0.82643   0.01267  Uiso   1.00
C124   C     0.83720   0.79480   0.84341   0.01267  Uiso   1.00
C125   C     0.81550   0.68250   0.84501   0.01267  Uiso   1.00
C126   C     0.55290   0.60720   0.89392   0.01267  Uiso   1.00
C127   C     0.54310   0.49570   0.90499   0.01267  Uiso   1.00
C128   C     0.64070   0.49180   0.91434   0.01267  Uiso   1.00
C129   C     0.63270   0.38900   0.92441   0.01267  Uiso   1.00
C130   C     0.52580   0.28920   0.92596   0.01267  Uiso   1.00
C131   C     0.42770   0.29190   0.91771   0.01267  Uiso   1.00
C132   C     0.43640   0.39520   0.90666   0.01267  Uiso   1.00
C133   C     0.88320   0.45345   0.69971   0.01267  Uiso   1.00
C134   C     0.78810   0.48400   0.69441   0.01267  Uiso   1.00
C135   C     0.74890   0.63000   0.67104   0.01267  Uiso   1.00
C136   C     0.80810   0.74870   0.66885   0.01267  Uiso   1.00
C137   C     0.63150   0.57200   0.66890   0.01267  Uiso   1.00
C138   C     0.92460   0.42430   0.66810   0.01267  Uiso   1.00
C139   C     0.03180   0.41470   0.67301   0.01267  Uiso   1.00
C140   C     0.03280   0.31520   0.66384   0.01267  Uiso   1.00
C141   C     0.13410   0.30890   0.66660   0.01267  Uiso   1.00
C142   C     0.23290   0.40090   0.67836   0.01267  Uiso   1.00
C143   C     0.23390   0.50080   0.68778   0.01267  Uiso   1.00
C144   C     0.13370   0.50760   0.68538   0.01267  Uiso   1.00
C145   C     0.54460   0.33000   0.14625   0.01267  Uiso   1.00
C146   C     0.67010   0.42820   0.14947   0.01267  Uiso   1.00
C147   C     0.80730   0.55610   0.19155   0.01267  Uiso   1.00
C148   C     0.80870   0.60080   0.22173   0.01267  Uiso   1.00
C149   C     0.91270   0.67570   0.23670   0.01267  Uiso   1.00
C150   C     0.01570   0.70560   0.22151   0.01267  Uiso   1.00
C151   C     0.01500   0.66080   0.19160   0.01267  Uiso   1.00
C152   C     0.91090   0.58650   0.17646   0.01267  Uiso   1.00
C153   C     0.21030   0.76680   0.24119   0.01267  Uiso   1.00
C154   C     0.32070   0.86810   0.25533   0.01267  Uiso   1.00
C155   C     0.52880   0.22470   0.16519   0.01267  Uiso   1.00
C156   C     0.40630   0.12580   0.16314   0.01267  Uiso   1.00
C157   C     0.38030   0.02650   0.14607   0.01267  Uiso   1.00
C158   C     0.26730   0.93610   0.14481   0.01267  Uiso   1.00
C159   C     0.18090   0.94410   0.15976   0.01267  Uiso   1.00
C160   C     0.20520   0.04240   0.17674   0.01267  Uiso   1.00
C161   C     0.31750   0.13300   0.17834   0.01267  Uiso   1.00
C162   C     0.39280   0.94570   0.22725   0.01267  Uiso   1.00
C163   C     0.50430   0.04740   0.23832   0.01267  Uiso   1.00
C164   C     0.50820   0.14890   0.24767   0.01267  Uiso   1.00
C165   C     0.61100   0.24370   0.25774   0.01267  Uiso   1.00
C166   C     0.71080   0.23660   0.25929   0.01267  Uiso   1.00
C167   C     0.70810   0.13580   0.25104   0.01267  Uiso   1.00
C168   C     0.60480   0.04120   0.23999   0.01267  Uiso   1.00
C169   C     0.54655   0.42975   0.03304   0.01267  Uiso   1.00
C170   C     0.51600   0.30410   0.02774   0.01267  Uiso   1.00
C171   C     0.37000   0.11890   0.00437   0.01267  Uiso   1.00
C172   C     0.25130   0.05940   0.00218   0.01267  Uiso   1.00
C173   C     0.42800   0.05950   0.00223   0.01267  Uiso   1.00
C174   C     0.57570   0.50030   0.00143   0.01267  Uiso   1.00
C175   C     0.58530   0.61710   0.00634   0.01267  Uiso   1.00
C176   C     0.68480   0.71760   0.99717   0.01267  Uiso   1.00
C177   C     0.69110   0.82520   0.99993   0.01267  Uiso   1.00
C178   C     0.59910   0.83200   0.01169   0.01267  Uiso   1.00
C179   C     0.49920   0.73310   0.02111   0.01267  Uiso   1.00
C180   C     0.49240   0.62610   0.01871   0.01267  Uiso   1.00
C181   C     0.67000   0.21460   0.47959   0.01267  Uiso   1.00
C182   C     0.57180   0.24190   0.48281   0.01267  Uiso   1.00
C183   C     0.44390   0.25120   0.52489   0.01267  Uiso   1.00
C184   C     0.39920   0.20790   0.55507   0.01267  Uiso   1.00
C185   C     0.32430   0.23700   0.57004   0.01267  Uiso   1.00
C186   C     0.29440   0.31010   0.55485   0.01267  Uiso   1.00
C187   C     0.33920   0.35420   0.52494   0.01267  Uiso   1.00
C188   C     0.41350   0.32440   0.50980   0.01267  Uiso   1.00
C189   C     0.23320   0.44350   0.57453   0.01267  Uiso   1.00
C190   C     0.13190   0.45260   0.58867   0.01267  Uiso   1.00
C191   C     0.77530   0.30410   0.49853   0.01267  Uiso   1.00
C192   C     0.87420   0.28050   0.49648   0.01267  Uiso   1.00
C193   C     0.97350   0.35380   0.47941   0.01267  Uiso   1.00
C194   C     0.06390   0.33120   0.47815   0.01267  Uiso   1.00
C195   C     0.05590   0.23680   0.49310   0.01267  Uiso   1.00
C196   C     0.95760   0.16280   0.51008   0.01267  Uiso   1.00
C197   C     0.86700   0.18450   0.51168   0.01267  Uiso   1.00
C198   C     0.05430   0.44710   0.56059   0.01267  Uiso   1.00
C199   C     0.95260   0.45690   0.57166   0.01267  Uiso   1.00
C200   C     0.85110   0.35930   0.58101   0.01267  Uiso   1.00
C201   C     0.75630   0.36730   0.59108   0.01267  Uiso   1.00
C202   C     0.76340   0.47420   0.59263   0.01267  Uiso   1.00
C203   C     0.86420   0.57230   0.58438   0.01267  Uiso   1.00
C204   C     0.95880   0.56360   0.57333   0.01267  Uiso   1.00
C205   C     0.57025   0.11680   0.36638   0.01267  Uiso   1.00
C206   C     0.69590   0.21190   0.36108   0.01267  Uiso   1.00
C207   C     0.88110   0.25110   0.33771   0.01267  Uiso   1.00
C208   C     0.94060   0.19190   0.33552   0.01267  Uiso   1.00
C209   C     0.94050   0.36850   0.33557   0.01267  Uiso   1.00
C210   C     0.49970   0.07540   0.33477   0.01267  Uiso   1.00
C211   C     0.38290   0.96820   0.33968   0.01267  Uiso   1.00
C212   C     0.28240   0.96720   0.33051   0.01267  Uiso   1.00
C213   C     0.17480   0.86590   0.33327   0.01267  Uiso   1.00
C214   C     0.16800   0.76710   0.34503   0.01267  Uiso   1.00
C215   C     0.26690   0.76610   0.35445   0.01267  Uiso   1.00
C216   C     0.37390   0.86630   0.35205   0.01267  Uiso   1.00
N1     N     0.30106   0.51732   0.22164   0.01267  Uiso   1.00
N2     N     0.47650   0.69760   0.15477   0.01267  Uiso   1.00
N3     N     0.78500   0.12155   0.09610   0.01267  Uiso   1.00
N4     N     0.81903   0.38323   0.06120   0.01267  Uiso   1.00
N5     N     0.48419   0.64177   0.27649   0.01267  Uiso   1.00
N6     N     0.24107   0.42504   0.32464   0.01267  Uiso   1.00
N7     N     0.21626   0.69894   0.88831   0.01267  Uiso   1.00
N8     N     0.22110   0.52350   0.82144   0.01267  Uiso   1.00
N9     N     0.33655   0.21500   0.76277   0.01267  Uiso   1.00
N10    N     0.56420   0.18097   0.72787   0.01267  Uiso   1.00
N11    N     0.15758   0.51581   0.94316   0.01267  Uiso   1.00
N12    N     0.18397   0.75893   0.99131   0.01267  Uiso   1.00
N13    N     0.48268   0.78374   0.55497   0.01267  Uiso   1.00
N14    N     0.30240   0.77890   0.48810   0.01267  Uiso   1.00
N15    N     0.87845   0.66345   0.42943   0.01267  Uiso   1.00
N16    N     0.61677   0.43580   0.39453   0.01267  Uiso   1.00
N17    N     0.35823   0.84242   0.60982   0.01267  Uiso   1.00
N18    N     0.57496   0.81603   0.65797   0.01267  Uiso   1.00
N19    N     0.78374   0.48268   0.77836   0.01267  Uiso   1.00
N20    N     0.77890   0.30240   0.84523   0.01267  Uiso   1.00
N21    N     0.66345   0.87845   0.90390   0.01267  Uiso   1.00
N22    N     0.43580   0.61677   0.93880   0.01267  Uiso   1.00
N23    N     0.84242   0.35823   0.72351   0.01267  Uiso   1.00
N24    N     0.81603   0.57496   0.67536   0.01267  Uiso   1.00
N25    N     0.51732   0.30106   0.11169   0.01267  Uiso   1.00
N26    N     0.69760   0.47650   0.17856   0.01267  Uiso   1.00
N27    N     0.12155   0.78500   0.23723   0.01267  Uiso   1.00
N28    N     0.38323   0.81903   0.27213   0.01267  Uiso   1.00
N29    N     0.64177   0.48419   0.05684   0.01267  Uiso   1.00
N30    N     0.42504   0.24107   0.00869   0.01267  Uiso   1.00
N31    N     0.69894   0.21626   0.44503   0.01267  Uiso   1.00
N32    N     0.52350   0.22110   0.51190   0.01267  Uiso   1.00
N33    N     0.21500   0.33655   0.57057   0.01267  Uiso   1.00
N34    N     0.18097   0.56420   0.60547   0.01267  Uiso   1.00
N35    N     0.51581   0.15758   0.39018   0.01267  Uiso   1.00
N36    N     0.75893   0.18397   0.34203   0.01267  Uiso   1.00
O1     O     0.45584   0.73975   0.20684   0.01267  Uiso   1.00
O2     O     0.67698   0.20880   0.10021   0.01267  Uiso   1.00
O3     O     0.26279   0.56847   0.29155   0.01267  Uiso   1.00
O4     O     0.28391   0.54416   0.87351   0.01267  Uiso   1.00
O5     O     0.53182   0.32302   0.76688   0.01267  Uiso   1.00
O6     O     0.30568   0.73721   0.95822   0.01267  Uiso   1.00
O7     O     0.26025   0.71609   0.54017   0.01267  Uiso   1.00
O8     O     0.79120   0.46818   0.43354   0.01267  Uiso   1.00
O9     O     0.43153   0.69432   0.62488   0.01267  Uiso   1.00
O10    O     0.71609   0.26025   0.79316   0.01267  Uiso   1.00
O11    O     0.46818   0.79120   0.89979   0.01267  Uiso   1.00
O12    O     0.69432   0.43153   0.70845   0.01267  Uiso   1.00
O13    O     0.73975   0.45584   0.12649   0.01267  Uiso   1.00
O14    O     0.20880   0.67698   0.23312   0.01267  Uiso   1.00
O15    O     0.56847   0.26279   0.04178   0.01267  Uiso   1.00
O16    O     0.54416   0.28391   0.45983   0.01267  Uiso   1.00
O17    O     0.32302   0.53182   0.56646   0.01267  Uiso   1.00
O18    O     0.73721   0.30568   0.37512   0.01267  Uiso   1.00
Br1    Br    0.34661   0.25782   0.35244   0.01267  Uiso   1.00
Br2    Br    0.48156   0.41794   0.22953   0.01267  Uiso   1.00
Br3    Br    0.91121   0.65339   0.01910   0.01267  Uiso   1.00
Br4    Br    0.93638   0.51844   0.89620   0.01267  Uiso   1.00
Br5    Br    0.74218   0.08879   0.68577   0.01267  Uiso   1.00
Br6    Br    0.58206   0.06362   0.56287   0.01267  Uiso   1.00
Br7    Br    0.08879   0.74218   0.64756   0.01267  Uiso   1.00
Br8    Br    0.06362   0.58206   0.77047   0.01267  Uiso   1.00
Br9    Br    0.25782   0.34661   0.98090   0.01267  Uiso   1.00
Br10   Br    0.41794   0.48156   0.10380   0.01267  Uiso   1.00
Br11   Br    0.65339   0.91121   0.31423   0.01267  Uiso   1.00
Br12   Br    0.51844   0.93638   0.43713   0.01267  Uiso   1.00
