data_image0
_cell_length_a       5.7266
_cell_length_b       9.9412
_cell_length_c       16.474
_cell_angle_alpha    90
_cell_angle_beta     90
_cell_angle_gamma    94.294

_symmetry_space_group_name_H-M    P 1
_symmetry_int_tables_number       1

loop_
  _symmetry_equiv_pos_as_xyz
  'x, y, z'

loop_
  _atom_site_label
  _atom_site_occupancy
  _atom_site_fract_x
  _atom_site_fract_y
  _atom_site_fract_z
  _atom_site_thermal_displace_type
  _atom_site_B_iso_or_equiv
  _atom_site_type_symbol
  Cu1      1.0000 0.24641  0.51161  0.56730  Biso   1.000  Cu
  Cu2      1.0000 0.75359  0.98839  0.06730  Biso   1.000  Cu
  Cu3      1.0000 0.75359  0.48839  0.43270  Biso   1.000  Cu
  Cu4      1.0000 0.24641  0.01161  0.93270  Biso   1.000  Cu
  H1       1.0000 0.56500  0.30300  0.59000  Biso   1.000  H
  H2       1.0000 0.74200  0.18500  0.68800  Biso   1.000  H
  H3       1.0000 0.30700  0.32400  0.84700  Biso   1.000  H
  H4       1.0000 0.13100  0.43700  0.74200  Biso   1.000  H
  H5       1.0000 0.43500  0.19700  0.09000  Biso   1.000  H
  H6       1.0000 0.25800  0.31500  0.18800  Biso   1.000  H
  H7       1.0000 0.69300  0.17600  0.34700  Biso   1.000  H
  H8       1.0000 0.86900  0.06300  0.24200  Biso   1.000  H
  H9       1.0000 0.43500  0.69700  0.41000  Biso   1.000  H
  H10      1.0000 0.25800  0.81500  0.31200  Biso   1.000  H
  H11      1.0000 0.69300  0.67600  0.15300  Biso   1.000  H
  H12      1.0000 0.86900  0.56300  0.25800  Biso   1.000  H
  H13      1.0000 0.56500  0.80300  0.91000  Biso   1.000  H
  H14      1.0000 0.74200  0.68500  0.81200  Biso   1.000  H
  H15      1.0000 0.30700  0.82400  0.65300  Biso   1.000  H
  H16      1.0000 0.13100  0.93700  0.75800  Biso   1.000  H
  C1       1.0000 0.51560  0.30190  0.64250  Biso   1.000  C
  C2       1.0000 0.62510  0.23220  0.70200  Biso   1.000  C
  C3       1.0000 0.54350  0.23720  0.78100  Biso   1.000  C
  C4       1.0000 0.35740  0.31250  0.79620  Biso   1.000  C
  C5       1.0000 0.25860  0.38030  0.73350  Biso   1.000  C
  C6       1.0000 0.66540  0.16740  0.84540  Biso   1.000  C
  C7       1.0000 0.48440  0.19810  0.14250  Biso   1.000  C
  C8       1.0000 0.37490  0.26780  0.20200  Biso   1.000  C
  C9       1.0000 0.45650  0.26280  0.28100  Biso   1.000  C
  C10      1.0000 0.64260  0.18750  0.29620  Biso   1.000  C
  C11      1.0000 0.74140  0.11970  0.23350  Biso   1.000  C
  C12      1.0000 0.33460  0.33260  0.34540  Biso   1.000  C
  C13      1.0000 0.48440  0.69810  0.35750  Biso   1.000  C
  C14      1.0000 0.37490  0.76780  0.29800  Biso   1.000  C
  C15      1.0000 0.45650  0.76280  0.21900  Biso   1.000  C
  C16      1.0000 0.64260  0.68750  0.20380  Biso   1.000  C
  C17      1.0000 0.74140  0.61970  0.26650  Biso   1.000  C
  C18      1.0000 0.33460  0.83260  0.15460  Biso   1.000  C
  C19      1.0000 0.51560  0.80190  0.85750  Biso   1.000  C
  C20      1.0000 0.62510  0.73220  0.79800  Biso   1.000  C
  C21      1.0000 0.54350  0.73720  0.71900  Biso   1.000  C
  C22      1.0000 0.35740  0.81250  0.70380  Biso   1.000  C
  C23      1.0000 0.25860  0.88030  0.76650  Biso   1.000  C
  C24      1.0000 0.66540  0.66740  0.65460  Biso   1.000  C
  N1       1.0000 0.33520  0.37620  0.65650  Biso   1.000  N
  N2       1.0000 0.57350  0.12510  0.91665  Biso   1.000  N
  N3       1.0000 0.75170  0.07130  0.95581  Biso   1.000  N
  N4       1.0000 0.93950  0.08290  0.90830  Biso   1.000  N
  N5       1.0000 0.88870  0.14110  0.83830  Biso   1.000  N
  N6       1.0000 0.66480  0.12380  0.15650  Biso   1.000  N
  N7       1.0000 0.42650  0.37490  0.41665  Biso   1.000  N
  N8       1.0000 0.24830  0.42870  0.45581  Biso   1.000  N
  N9       1.0000 0.06050  0.41710  0.40830  Biso   1.000  N
  N10      1.0000 0.11130  0.35890  0.33830  Biso   1.000  N
  N11      1.0000 0.66480  0.62380  0.34350  Biso   1.000  N
  N12      1.0000 0.42650  0.87490  0.08335  Biso   1.000  N
  N13      1.0000 0.24830  0.92870  0.04419  Biso   1.000  N
  N14      1.0000 0.06050  0.91710  0.09170  Biso   1.000  N
  N15      1.0000 0.11130  0.85890  0.16170  Biso   1.000  N
  N16      1.0000 0.33520  0.87620  0.84350  Biso   1.000  N
  N17      1.0000 0.57350  0.62510  0.58335  Biso   1.000  N
  N18      1.0000 0.75170  0.57130  0.54419  Biso   1.000  N
  N19      1.0000 0.93950  0.58290  0.59170  Biso   1.000  N
  N20      1.0000 0.88870  0.64110  0.66170  Biso   1.000  N
