data_image0
_cell_length_a       7.73
_cell_length_b       17.797
_cell_length_c       26.675
_cell_angle_alpha    93.466
_cell_angle_beta     90
_cell_angle_gamma    90

_symmetry_space_group_name_H-M    P 1
_symmetry_int_tables_number       1

loop_
  _symmetry_equiv_pos_as_xyz
  'x, y, z'

loop_
  _atom_site_label
  _atom_site_occupancy
  _atom_site_fract_x
  _atom_site_fract_y
  _atom_site_fract_z
  _atom_site_thermal_displace_type
  _atom_site_B_iso_or_equiv
  _atom_site_type_symbol
  Zn1      1.0000 0.43200  0.19657  0.02400  Biso   1.000  Zn
  Zn2      1.0000 0.97647  0.30341  0.96333  Biso   1.000  Zn
  Zn3      1.0000 0.93200  0.80343  0.47600  Biso   1.000  Zn
  Zn4      1.0000 0.47647  0.69659  0.53667  Biso   1.000  Zn
  Zn5      1.0000 0.56800  0.80343  0.97600  Biso   1.000  Zn
  Zn6      1.0000 0.02353  0.69659  0.03667  Biso   1.000  Zn
  Zn7      1.0000 0.06800  0.19657  0.52400  Biso   1.000  Zn
  Zn8      1.0000 0.52353  0.30341  0.46333  Biso   1.000  Zn
  H1       1.0000 0.27740  0.04260  0.98980  Biso   1.000  H
  H2       1.0000 0.64420  0.45280  0.06640  Biso   1.000  H
  H3       1.0000 0.32870  0.76800  0.09340  Biso   1.000  H
  H4       1.0000 0.14540  0.56640  0.11120  Biso   1.000  H
  H5       1.0000 0.39990  0.58180  0.16390  Biso   1.000  H
  H6       1.0000 0.64200  0.77640  0.09970  Biso   1.000  H
  H7       1.0000 0.88730  0.83020  0.13470  Biso   1.000  H
  H8       1.0000 0.79720  0.72680  0.26110  Biso   1.000  H
  H9       1.0000 0.54990  0.67370  0.22570  Biso   1.000  H
  H10      1.0000 0.12950  0.68420  0.23120  Biso   1.000  H
  H11      1.0000 0.26440  0.63090  0.29800  Biso   1.000  H
  H12      1.0000 0.25320  0.83010  0.37530  Biso   1.000  H
  H13      1.0000 0.11420  0.88240  0.30890  Biso   1.000  H
  H14      1.0000 0.28930  0.76390  0.44440  Biso   1.000  H
  H15      1.0000 0.46870  0.59500  0.35630  Biso   1.000  H
  H16      1.0000 0.56100  0.57790  0.44200  Biso   1.000  H
  H17      1.0000 0.84730  0.94560  0.21620  Biso   1.000  H
  H18      1.0000 0.93400  0.05550  0.18230  Biso   1.000  H
  H19      1.0000 0.40920  0.97280  0.16270  Biso   1.000  H
  H20      1.0000 0.32110  0.86010  0.19430  Biso   1.000  H
  H21      1.0000 0.10150  0.17630  0.18510  Biso   1.000  H
  H22      1.0000 0.37770  0.05310  0.08660  Biso   1.000  H
  H23      1.0000 0.21820  0.25850  0.12340  Biso   1.000  H
  H24      1.0000 0.77740  0.95740  0.51020  Biso   1.000  H
  H25      1.0000 0.14420  0.54720  0.43360  Biso   1.000  H
  H26      1.0000 0.82870  0.23200  0.40660  Biso   1.000  H
  H27      1.0000 0.64540  0.43360  0.38880  Biso   1.000  H
  H28      1.0000 0.89990  0.41820  0.33610  Biso   1.000  H
  H29      1.0000 0.14200  0.22360  0.40030  Biso   1.000  H
  H30      1.0000 0.38730  0.16980  0.36530  Biso   1.000  H
  H31      1.0000 0.29720  0.27320  0.23890  Biso   1.000  H
  H32      1.0000 0.04990  0.32630  0.27430  Biso   1.000  H
  H33      1.0000 0.62950  0.31580  0.26880  Biso   1.000  H
  H34      1.0000 0.76440  0.36910  0.20200  Biso   1.000  H
  H35      1.0000 0.75320  0.16990  0.12470  Biso   1.000  H
  H36      1.0000 0.61420  0.11760  0.19110  Biso   1.000  H
  H37      1.0000 0.78930  0.23610  0.05560  Biso   1.000  H
  H38      1.0000 0.96870  0.40500  0.14370  Biso   1.000  H
  H39      1.0000 0.06100  0.42210  0.05800  Biso   1.000  H
  H40      1.0000 0.34730  0.05440  0.28380  Biso   1.000  H
  H41      1.0000 0.43400  0.94450  0.31770  Biso   1.000  H
  H42      1.0000 0.90920  0.02720  0.33730  Biso   1.000  H
  H43      1.0000 0.82110  0.13990  0.30570  Biso   1.000  H
  H44      1.0000 0.60150  0.82370  0.31490  Biso   1.000  H
  H45      1.0000 0.87770  0.94690  0.41340  Biso   1.000  H
  H46      1.0000 0.71820  0.74150  0.37660  Biso   1.000  H
  H47      1.0000 0.72260  0.95740  0.01020  Biso   1.000  H
  H48      1.0000 0.35580  0.54720  0.93360  Biso   1.000  H
  H49      1.0000 0.67130  0.23200  0.90660  Biso   1.000  H
  H50      1.0000 0.85460  0.43360  0.88880  Biso   1.000  H
  H51      1.0000 0.60010  0.41820  0.83610  Biso   1.000  H
  H52      1.0000 0.35800  0.22360  0.90030  Biso   1.000  H
  H53      1.0000 0.11270  0.16980  0.86530  Biso   1.000  H
  H54      1.0000 0.20280  0.27320  0.73890  Biso   1.000  H
  H55      1.0000 0.45010  0.32630  0.77430  Biso   1.000  H
  H56      1.0000 0.87050  0.31580  0.76880  Biso   1.000  H
  H57      1.0000 0.73560  0.36910  0.70200  Biso   1.000  H
  H58      1.0000 0.74680  0.16990  0.62470  Biso   1.000  H
  H59      1.0000 0.88580  0.11760  0.69110  Biso   1.000  H
  H60      1.0000 0.71070  0.23610  0.55560  Biso   1.000  H
  H61      1.0000 0.53130  0.40500  0.64370  Biso   1.000  H
  H62      1.0000 0.43900  0.42210  0.55800  Biso   1.000  H
  H63      1.0000 0.15270  0.05440  0.78380  Biso   1.000  H
  H64      1.0000 0.06600  0.94450  0.81770  Biso   1.000  H
  H65      1.0000 0.59080  0.02720  0.83730  Biso   1.000  H
  H66      1.0000 0.67890  0.13990  0.80570  Biso   1.000  H
  H67      1.0000 0.89850  0.82370  0.81490  Biso   1.000  H
  H68      1.0000 0.62230  0.94690  0.91340  Biso   1.000  H
  H69      1.0000 0.78180  0.74150  0.87660  Biso   1.000  H
  H70      1.0000 0.22260  0.04260  0.48980  Biso   1.000  H
  H71      1.0000 0.85580  0.45280  0.56640  Biso   1.000  H
  H72      1.0000 0.17130  0.76800  0.59340  Biso   1.000  H
  H73      1.0000 0.35460  0.56640  0.61120  Biso   1.000  H
  H74      1.0000 0.10010  0.58180  0.66390  Biso   1.000  H
  H75      1.0000 0.85800  0.77640  0.59970  Biso   1.000  H
  H76      1.0000 0.61270  0.83020  0.63470  Biso   1.000  H
  H77      1.0000 0.70280  0.72680  0.76110  Biso   1.000  H
  H78      1.0000 0.95010  0.67370  0.72570  Biso   1.000  H
  H79      1.0000 0.37050  0.68420  0.73120  Biso   1.000  H
  H80      1.0000 0.23560  0.63090  0.79800  Biso   1.000  H
  H81      1.0000 0.24680  0.83010  0.87530  Biso   1.000  H
  H82      1.0000 0.38580  0.88240  0.80890  Biso   1.000  H
  H83      1.0000 0.21070  0.76390  0.94440  Biso   1.000  H
  H84      1.0000 0.03130  0.59500  0.85630  Biso   1.000  H
  H85      1.0000 0.93900  0.57790  0.94200  Biso   1.000  H
  H86      1.0000 0.65270  0.94560  0.71620  Biso   1.000  H
  H87      1.0000 0.56600  0.05550  0.68230  Biso   1.000  H
  H88      1.0000 0.09080  0.97280  0.66270  Biso   1.000  H
  H89      1.0000 0.17890  0.86010  0.69430  Biso   1.000  H
  H90      1.0000 0.39850  0.17630  0.68510  Biso   1.000  H
  H91      1.0000 0.12230  0.05310  0.58660  Biso   1.000  H
  H92      1.0000 0.28180  0.25850  0.62340  Biso   1.000  H
  C1       1.0000 0.02880  0.07431  0.98808  Biso   1.000  C
  C2       1.0000 0.16530  0.02515  0.99415  Biso   1.000  C
  C3       1.0000 0.85760  0.04880  0.99364  Biso   1.000  C
  C4       1.0000 0.07010  0.15339  0.97607  Biso   1.000  C
  C5       1.0000 0.69240  0.09406  0.98686  Biso   1.000  C
  C6       1.0000 0.45850  0.34411  0.02638  Biso   1.000  C
  C7       1.0000 0.47630  0.42454  0.01138  Biso   1.000  C
  C8       1.0000 0.25110  0.40934  0.94217  Biso   1.000  C
  C9       1.0000 0.38830  0.45367  0.97101  Biso   1.000  C
  C10      1.0000 0.58570  0.47169  0.03946  Biso   1.000  C
  C11      1.0000 0.31430  0.71980  0.10431  Biso   1.000  C
  C12      1.0000 0.21470  0.60920  0.11426  Biso   1.000  C
  C13      1.0000 0.35460  0.61730  0.14338  Biso   1.000  C
  C14      1.0000 0.57110  0.72069  0.15951  Biso   1.000  C
  C15      1.0000 0.67270  0.76690  0.13241  Biso   1.000  C
  C16      1.0000 0.81950  0.79900  0.15336  Biso   1.000  C
  C17      1.0000 0.86760  0.78540  0.20223  Biso   1.000  C
  C18      1.0000 0.76570  0.73750  0.22862  Biso   1.000  C
  C19      1.0000 0.61770  0.70550  0.20747  Biso   1.000  C
  C20      1.0000 0.10650  0.78740  0.26346  Biso   1.000  C
  C21      1.0000 0.15270  0.71370  0.26042  Biso   1.000  C
  C22      1.0000 0.23400  0.68150  0.30026  Biso   1.000  C
  C23      1.0000 0.26900  0.72560  0.34323  Biso   1.000  C
  C24      1.0000 0.22670  0.80040  0.34646  Biso   1.000  C
  C25      1.0000 0.14430  0.83170  0.30671  Biso   1.000  C
  C26      1.0000 0.34490  0.71960  0.43335  Biso   1.000  C
  C27      1.0000 0.44390  0.62680  0.38435  Biso   1.000  C
  C28      1.0000 0.49360  0.61740  0.43173  Biso   1.000  C
  C29      1.0000 0.07300  0.89020  0.20714  Biso   1.000  C
  C30      1.0000 0.95990  0.95000  0.20448  Biso   1.000  C
  C31      1.0000 0.01190  0.01610  0.18464  Biso   1.000  C
  C32      1.0000 0.17930  0.02340  0.16837  Biso   1.000  C
  C33      1.0000 0.29490  0.96670  0.17259  Biso   1.000  C
  C34      1.0000 0.24230  0.89920  0.19178  Biso   1.000  C
  C35      1.0000 0.17140  0.16170  0.15786  Biso   1.000  C
  C36      1.0000 0.32400  0.09420  0.10327  Biso   1.000  C
  C37      1.0000 0.23590  0.20680  0.12362  Biso   1.000  C
  C38      1.0000 0.52880  0.92569  0.51192  Biso   1.000  C
  C39      1.0000 0.66530  0.97485  0.50585  Biso   1.000  C
  C40      1.0000 0.35760  0.95120  0.50636  Biso   1.000  C
  C41      1.0000 0.57010  0.84661  0.52393  Biso   1.000  C
  C42      1.0000 0.19240  0.90594  0.51314  Biso   1.000  C
  C43      1.0000 0.95850  0.65589  0.47362  Biso   1.000  C
  C44      1.0000 0.97630  0.57546  0.48862  Biso   1.000  C
  C45      1.0000 0.75110  0.59066  0.55783  Biso   1.000  C
  C46      1.0000 0.88830  0.54633  0.52899  Biso   1.000  C
  C47      1.0000 0.08570  0.52831  0.46054  Biso   1.000  C
  C48      1.0000 0.81430  0.28020  0.39569  Biso   1.000  C
  C49      1.0000 0.71470  0.39080  0.38574  Biso   1.000  C
  C50      1.0000 0.85460  0.38270  0.35662  Biso   1.000  C
  C51      1.0000 0.07110  0.27931  0.34049  Biso   1.000  C
  C52      1.0000 0.17270  0.23310  0.36759  Biso   1.000  C
  C53      1.0000 0.31950  0.20100  0.34664  Biso   1.000  C
  C54      1.0000 0.36760  0.21460  0.29777  Biso   1.000  C
  C55      1.0000 0.26570  0.26250  0.27138  Biso   1.000  C
  C56      1.0000 0.11770  0.29450  0.29253  Biso   1.000  C
  C57      1.0000 0.60650  0.21260  0.23654  Biso   1.000  C
  C58      1.0000 0.65270  0.28630  0.23958  Biso   1.000  C
  C59      1.0000 0.73400  0.31850  0.19974  Biso   1.000  C
  C60      1.0000 0.76900  0.27440  0.15677  Biso   1.000  C
  C61      1.0000 0.72670  0.19960  0.15354  Biso   1.000  C
  C62      1.0000 0.64430  0.16830  0.19329  Biso   1.000  C
  C63      1.0000 0.84490  0.28040  0.06665  Biso   1.000  C
  C64      1.0000 0.94390  0.37320  0.11565  Biso   1.000  C
  C65      1.0000 0.99360  0.38260  0.06827  Biso   1.000  C
  C66      1.0000 0.57300  0.10980  0.29286  Biso   1.000  C
  C67      1.0000 0.45990  0.05000  0.29552  Biso   1.000  C
  C68      1.0000 0.51190  0.98390  0.31536  Biso   1.000  C
  C69      1.0000 0.67930  0.97660  0.33163  Biso   1.000  C
  C70      1.0000 0.79490  0.03330  0.32741  Biso   1.000  C
  C71      1.0000 0.74230  0.10080  0.30822  Biso   1.000  C
  C72      1.0000 0.67140  0.83830  0.34214  Biso   1.000  C
  C73      1.0000 0.82400  0.90580  0.39673  Biso   1.000  C
  C74      1.0000 0.73590  0.79320  0.37638  Biso   1.000  C
  C75      1.0000 0.97120  0.92569  0.01192  Biso   1.000  C
  C76      1.0000 0.83470  0.97485  0.00585  Biso   1.000  C
  C77      1.0000 0.14240  0.95120  0.00636  Biso   1.000  C
  C78      1.0000 0.92990  0.84661  0.02393  Biso   1.000  C
  C79      1.0000 0.30760  0.90594  0.01314  Biso   1.000  C
  C80      1.0000 0.54150  0.65589  0.97362  Biso   1.000  C
  C81      1.0000 0.52370  0.57546  0.98862  Biso   1.000  C
  C82      1.0000 0.74890  0.59066  0.05783  Biso   1.000  C
  C83      1.0000 0.61170  0.54633  0.02899  Biso   1.000  C
  C84      1.0000 0.41430  0.52831  0.96054  Biso   1.000  C
  C85      1.0000 0.68570  0.28020  0.89569  Biso   1.000  C
  C86      1.0000 0.78530  0.39080  0.88574  Biso   1.000  C
  C87      1.0000 0.64540  0.38270  0.85662  Biso   1.000  C
  C88      1.0000 0.42890  0.27931  0.84049  Biso   1.000  C
  C89      1.0000 0.32730  0.23310  0.86759  Biso   1.000  C
  C90      1.0000 0.18050  0.20100  0.84664  Biso   1.000  C
  C91      1.0000 0.13240  0.21460  0.79777  Biso   1.000  C
  C92      1.0000 0.23430  0.26250  0.77138  Biso   1.000  C
  C93      1.0000 0.38230  0.29450  0.79253  Biso   1.000  C
  C94      1.0000 0.89350  0.21260  0.73654  Biso   1.000  C
  C95      1.0000 0.84730  0.28630  0.73958  Biso   1.000  C
  C96      1.0000 0.76600  0.31850  0.69974  Biso   1.000  C
  C97      1.0000 0.73100  0.27440  0.65677  Biso   1.000  C
  C98      1.0000 0.77330  0.19960  0.65354  Biso   1.000  C
  C99      1.0000 0.85570  0.16830  0.69329  Biso   1.000  C
  C100     1.0000 0.65510  0.28040  0.56665  Biso   1.000  C
  C101     1.0000 0.55610  0.37320  0.61565  Biso   1.000  C
  C102     1.0000 0.50640  0.38260  0.56827  Biso   1.000  C
  C103     1.0000 0.92700  0.10980  0.79286  Biso   1.000  C
  C104     1.0000 0.04010  0.05000  0.79552  Biso   1.000  C
  C105     1.0000 0.98810  0.98390  0.81536  Biso   1.000  C
  C106     1.0000 0.82070  0.97660  0.83163  Biso   1.000  C
  C107     1.0000 0.70510  0.03330  0.82741  Biso   1.000  C
  C108     1.0000 0.75770  0.10080  0.80822  Biso   1.000  C
  C109     1.0000 0.82860  0.83830  0.84214  Biso   1.000  C
  C110     1.0000 0.67600  0.90580  0.89673  Biso   1.000  C
  C111     1.0000 0.76410  0.79320  0.87638  Biso   1.000  C
  C112     1.0000 0.47120  0.07431  0.48808  Biso   1.000  C
  C113     1.0000 0.33470  0.02515  0.49415  Biso   1.000  C
  C114     1.0000 0.64240  0.04880  0.49364  Biso   1.000  C
  C115     1.0000 0.42990  0.15339  0.47607  Biso   1.000  C
  C116     1.0000 0.80760  0.09406  0.48686  Biso   1.000  C
  C117     1.0000 0.04150  0.34411  0.52638  Biso   1.000  C
  C118     1.0000 0.02370  0.42454  0.51138  Biso   1.000  C
  C119     1.0000 0.24890  0.40934  0.44217  Biso   1.000  C
  C120     1.0000 0.11170  0.45367  0.47101  Biso   1.000  C
  C121     1.0000 0.91430  0.47169  0.53946  Biso   1.000  C
  C122     1.0000 0.18570  0.71980  0.60431  Biso   1.000  C
  C123     1.0000 0.28530  0.60920  0.61426  Biso   1.000  C
  C124     1.0000 0.14540  0.61730  0.64338  Biso   1.000  C
  C125     1.0000 0.92890  0.72069  0.65951  Biso   1.000  C
  C126     1.0000 0.82730  0.76690  0.63241  Biso   1.000  C
  C127     1.0000 0.68050  0.79900  0.65336  Biso   1.000  C
  C128     1.0000 0.63240  0.78540  0.70223  Biso   1.000  C
  C129     1.0000 0.73430  0.73750  0.72862  Biso   1.000  C
  C130     1.0000 0.88230  0.70550  0.70747  Biso   1.000  C
  C131     1.0000 0.39350  0.78740  0.76346  Biso   1.000  C
  C132     1.0000 0.34730  0.71370  0.76042  Biso   1.000  C
  C133     1.0000 0.26600  0.68150  0.80026  Biso   1.000  C
  C134     1.0000 0.23100  0.72560  0.84323  Biso   1.000  C
  C135     1.0000 0.27330  0.80040  0.84646  Biso   1.000  C
  C136     1.0000 0.35570  0.83170  0.80671  Biso   1.000  C
  C137     1.0000 0.15510  0.71960  0.93335  Biso   1.000  C
  C138     1.0000 0.05610  0.62680  0.88435  Biso   1.000  C
  C139     1.0000 0.00640  0.61740  0.93173  Biso   1.000  C
  C140     1.0000 0.42700  0.89020  0.70714  Biso   1.000  C
  C141     1.0000 0.54010  0.95000  0.70448  Biso   1.000  C
  C142     1.0000 0.48810  0.01610  0.68464  Biso   1.000  C
  C143     1.0000 0.32070  0.02340  0.66837  Biso   1.000  C
  C144     1.0000 0.20510  0.96670  0.67259  Biso   1.000  C
  C145     1.0000 0.25770  0.89920  0.69178  Biso   1.000  C
  C146     1.0000 0.32860  0.16170  0.65786  Biso   1.000  C
  C147     1.0000 0.17600  0.09420  0.60327  Biso   1.000  C
  C148     1.0000 0.26410  0.20680  0.62362  Biso   1.000  C
  N1       1.0000 0.01520  0.82064  0.22384  Biso   1.000  N
  N2       1.0000 0.18880  0.67376  0.08954  Biso   1.000  N
  N3       1.0000 0.41910  0.68787  0.13725  Biso   1.000  N
  N4       1.0000 0.34990  0.69207  0.38508  Biso   1.000  N
  N5       1.0000 0.42940  0.67529  0.46263  Biso   1.000  N
  N6       1.0000 0.22790  0.09078  0.14493  Biso   1.000  N
  N7       1.0000 0.33200  0.16448  0.08901  Biso   1.000  N
  N8       1.0000 0.51520  0.17936  0.27616  Biso   1.000  N
  N9       1.0000 0.68880  0.32624  0.41046  Biso   1.000  N
  N10      1.0000 0.91910  0.31213  0.36275  Biso   1.000  N
  N11      1.0000 0.84990  0.30793  0.11492  Biso   1.000  N
  N12      1.0000 0.92940  0.32471  0.03737  Biso   1.000  N
  N13      1.0000 0.72790  0.90922  0.35507  Biso   1.000  N
  N14      1.0000 0.83200  0.83552  0.41099  Biso   1.000  N
  N15      1.0000 0.98480  0.17936  0.77616  Biso   1.000  N
  N16      1.0000 0.81120  0.32624  0.91046  Biso   1.000  N
  N17      1.0000 0.58090  0.31213  0.86275  Biso   1.000  N
  N18      1.0000 0.65010  0.30793  0.61492  Biso   1.000  N
  N19      1.0000 0.57060  0.32471  0.53737  Biso   1.000  N
  N20      1.0000 0.77210  0.90922  0.85507  Biso   1.000  N
  N21      1.0000 0.66800  0.83552  0.91099  Biso   1.000  N
  N22      1.0000 0.48480  0.82064  0.72384  Biso   1.000  N
  N23      1.0000 0.31120  0.67376  0.58954  Biso   1.000  N
  N24      1.0000 0.08090  0.68787  0.63725  Biso   1.000  N
  N25      1.0000 0.15010  0.69207  0.88508  Biso   1.000  N
  N26      1.0000 0.07060  0.67529  0.96263  Biso   1.000  N
  N27      1.0000 0.27210  0.09078  0.64493  Biso   1.000  N
  N28      1.0000 0.16800  0.16448  0.58901  Biso   1.000  N
  O1       1.0000 0.22060  0.17766  0.98041  Biso   1.000  O
  O2       1.0000 0.94610  0.19270  0.96102  Biso   1.000  O
  O3       1.0000 0.61180  0.08465  0.94794  Biso   1.000  O
  O4       1.0000 0.64400  0.13469  0.02509  Biso   1.000  O
  O5       1.0000 0.50110  0.29090  0.99501  Biso   1.000  O
  O6       1.0000 0.41270  0.33290  0.06924  Biso   1.000  O
  O7       1.0000 0.18730  0.35719  0.96564  Biso   1.000  O
  O8       1.0000 0.20580  0.42652  0.90054  Biso   1.000  O
  O9       1.0000 0.72060  0.82234  0.51959  Biso   1.000  O
  O10      1.0000 0.44610  0.80730  0.53898  Biso   1.000  O
  O11      1.0000 0.11180  0.91535  0.55206  Biso   1.000  O
  O12      1.0000 0.14400  0.86531  0.47491  Biso   1.000  O
  O13      1.0000 0.00110  0.70910  0.50499  Biso   1.000  O
  O14      1.0000 0.91270  0.66710  0.43076  Biso   1.000  O
  O15      1.0000 0.68730  0.64281  0.53436  Biso   1.000  O
  O16      1.0000 0.70580  0.57348  0.59946  Biso   1.000  O
  O17      1.0000 0.77940  0.82234  0.01959  Biso   1.000  O
  O18      1.0000 0.05390  0.80730  0.03898  Biso   1.000  O
  O19      1.0000 0.38820  0.91535  0.05206  Biso   1.000  O
  O20      1.0000 0.35600  0.86531  0.97491  Biso   1.000  O
  O21      1.0000 0.49890  0.70910  0.00499  Biso   1.000  O
  O22      1.0000 0.58730  0.66710  0.93076  Biso   1.000  O
  O23      1.0000 0.81270  0.64281  0.03436  Biso   1.000  O
  O24      1.0000 0.79420  0.57348  0.09946  Biso   1.000  O
  O25      1.0000 0.27940  0.17766  0.48041  Biso   1.000  O
  O26      1.0000 0.55390  0.19270  0.46102  Biso   1.000  O
  O27      1.0000 0.88820  0.08465  0.44794  Biso   1.000  O
  O28      1.0000 0.85600  0.13469  0.52509  Biso   1.000  O
  O29      1.0000 0.99890  0.29090  0.49501  Biso   1.000  O
  O30      1.0000 0.08730  0.33290  0.56924  Biso   1.000  O
  O31      1.0000 0.31270  0.35719  0.46564  Biso   1.000  O
  O32      1.0000 0.29420  0.42652  0.40054  Biso   1.000  O
