data_ic025743v_s1_freeONLY
_audit_creation_date              2015-08-19
_audit_creation_method            'Materials Studio'
_symmetry_space_group_name_H-M    'P1'
_symmetry_Int_Tables_number       1
_symmetry_cell_setting            triclinic
loop_
_symmetry_equiv_pos_as_xyz
  x,y,z
_cell_length_a                    8.4440
_cell_length_b                    13.5060
_cell_length_c                    13.5800
_cell_angle_alpha                 103.8300
_cell_angle_beta                  90.0000
_cell_angle_gamma                 90.0000
loop_
_atom_site_label
_atom_site_type_symbol
_atom_site_fract_x
_atom_site_fract_y
_atom_site_fract_z
_atom_site_U_iso_or_equiv
_atom_site_adp_type
_atom_site_occupancy
Cu1    Cu    0.63729   0.78128   0.15652   0.01267  Uiso   1.00
Cu2    Cu    0.13729   0.71872   0.34348   0.01267  Uiso   1.00
Cu3    Cu    0.67059   0.64925   0.77041   0.01267  Uiso   1.00
Cu4    Cu    0.32941   0.35075   0.22959   0.01267  Uiso   1.00
Cu5    Cu    0.17059   0.85075   0.72959   0.01267  Uiso   1.00
Cu6    Cu    0.86271   0.28128   0.65652   0.01267  Uiso   1.00
Cu7    Cu    0.82941   0.14925   0.27041   0.01267  Uiso   1.00
Cu8    Cu    0.36271   0.21872   0.84348   0.01267  Uiso   1.00
C1     C     0.70490   0.93300   0.17140   0.01267  Uiso   1.00
C2     C     0.14910   0.79130   0.48690   0.01267  Uiso   1.00
C3     C     0.53460   0.28590   0.24700   0.01267  Uiso   1.00
C4     C     0.56440   0.21920   0.76750   0.01267  Uiso   1.00
C5     C     0.81900   0.72870   0.22580   0.01267  Uiso   1.00
C6     C     0.64910   0.70870   0.01310   0.01267  Uiso   1.00
C7     C     0.03460   0.21410   0.25300   0.01267  Uiso   1.00
C8     C     0.96540   0.78590   0.74700   0.01267  Uiso   1.00
C9     C     0.64890   0.24400   0.25430   0.01267  Uiso   1.00
C10    C     0.75590   0.01340   0.20550   0.01267  Uiso   1.00
C11    C     0.14890   0.25600   0.24570   0.01267  Uiso   1.00
C12    C     0.29510   0.06700   0.82860   0.01267  Uiso   1.00
C13    C     0.68100   0.22870   0.72580   0.01267  Uiso   1.00
C14    C     0.35090   0.29130   0.98690   0.01267  Uiso   1.00
C15    C     0.43560   0.78080   0.23250   0.01267  Uiso   1.00
C16    C     0.24410   0.98660   0.79450   0.01267  Uiso   1.00
C17    C     0.85110   0.74400   0.75430   0.01267  Uiso   1.00
C18    C     0.46540   0.71410   0.75300   0.01267  Uiso   1.00
C19    C     0.85090   0.20870   0.51310   0.01267  Uiso   1.00
C20    C     0.66340   0.67100   0.92860   0.01267  Uiso   1.00
C21    C     0.79510   0.43300   0.67140   0.01267  Uiso   1.00
C22    C     0.93560   0.71920   0.26750   0.01267  Uiso   1.00
C23    C     0.18100   0.27130   0.77420   0.01267  Uiso   1.00
C24    C     0.74410   0.51340   0.70550   0.01267  Uiso   1.00
C25    C     0.83660   0.17100   0.42860   0.01267  Uiso   1.00
C26    C     0.20490   0.56700   0.32860   0.01267  Uiso   1.00
C27    C     0.16340   0.82900   0.57140   0.01267  Uiso   1.00
C28    C     0.31900   0.77130   0.27420   0.01267  Uiso   1.00
C29    C     0.35110   0.75600   0.74570   0.01267  Uiso   1.00
C30    C     0.25590   0.48660   0.29450   0.01267  Uiso   1.00
C31    C     0.33660   0.32900   0.07140   0.01267  Uiso   1.00
C32    C     0.06440   0.28080   0.73250   0.01267  Uiso   1.00
