data_ic034943jsi20030807_040506_freeONLY
_audit_creation_date              2015-08-19
_audit_creation_method            'Materials Studio'
_symmetry_space_group_name_H-M    'P1'
_symmetry_Int_Tables_number       1
_symmetry_cell_setting            triclinic
loop_
_symmetry_equiv_pos_as_xyz
  x,y,z
_cell_length_a                    13.4208
_cell_length_b                    13.4208
_cell_length_c                    22.8027
_cell_angle_alpha                 101.9390
_cell_angle_beta                  101.9390
_cell_angle_gamma                 107.2810
loop_
_atom_site_label
_atom_site_type_symbol
_atom_site_fract_x
_atom_site_fract_y
_atom_site_fract_z
_atom_site_U_iso_or_equiv
_atom_site_adp_type
_atom_site_occupancy
Cu1    Cu    0.53225   0.30395   0.90356   0.01267  Uiso   1.00
Cu2    Cu    0.37131   0.09961   0.90356   0.01267  Uiso   1.00
Cu3    Cu    0.62869   0.90039   0.09644   0.01267  Uiso   1.00
Cu4    Cu    0.90039   0.62869   0.59644   0.01267  Uiso   1.00
Cu5    Cu    0.46775   0.69605   0.09644   0.01267  Uiso   1.00
Cu6    Cu    0.62500   0.37500   0.25000   0.01267  Uiso   1.00
Cu7    Cu    0.37500   0.62500   0.75000   0.01267  Uiso   1.00
Cu8    Cu    0.69605   0.46775   0.59644   0.01267  Uiso   1.00
Cu9    Cu    0.09961   0.37131   0.40356   0.01267  Uiso   1.00
Cu10   Cu    0.30395   0.53225   0.40356   0.01267  Uiso   1.00
H1     H     0.19200   0.40680   0.91640   0.01267  Uiso   1.00
H2     H     0.13970   0.05210   0.83700   0.01267  Uiso   1.00
H3     H     0.43780   0.14760   0.68880   0.01267  Uiso   1.00
H4     H     0.43540   0.07000   0.33800   0.01267  Uiso   1.00
H5     H     0.06870   0.63430   0.55320   0.01267  Uiso   1.00
H6     H     0.09740   0.23200   0.66200   0.01267  Uiso   1.00
H7     H     0.62170   0.49570   0.06200   0.01267  Uiso   1.00
H8     H     0.23400   0.18940   0.25780   0.01267  Uiso   1.00
H9     H     0.50430   0.37830   0.43800   0.01267  Uiso   1.00
H10    H     0.97500   0.91520   0.79600   0.01267  Uiso   1.00
H11    H     0.02380   0.56840   0.25780   0.01267  Uiso   1.00
H12    H     0.93000   0.56460   0.16200   0.01267  Uiso   1.00
H13    H     0.05210   0.13970   0.33700   0.01267  Uiso   1.00
H14    H     0.06630   0.44030   0.56200   0.01267  Uiso   1.00
H15    H     0.76880   0.25920   0.04740   0.01267  Uiso   1.00
H16    H     0.10260   0.72400   0.87220   0.01267  Uiso   1.00
H17    H     0.27600   0.89740   0.62780   0.01267  Uiso   1.00
H18    H     0.21670   0.54670   0.62160   0.01267  Uiso   1.00
H19    H     0.14760   0.43780   0.18880   0.01267  Uiso   1.00
H20    H     0.74080   0.23120   0.45260   0.01267  Uiso   1.00
H21    H     0.59510   0.42510   0.37840   0.01267  Uiso   1.00
H22    H     0.45330   0.78330   0.87840   0.01267  Uiso   1.00
H23    H     0.54670   0.21670   0.12160   0.01267  Uiso   1.00
H24    H     0.23200   0.09740   0.16200   0.01267  Uiso   1.00
H25    H     0.44030   0.06630   0.06200   0.01267  Uiso   1.00
H26    H     0.76960   0.64820   0.87220   0.01267  Uiso   1.00
H27    H     0.86030   0.94790   0.16300   0.01267  Uiso   1.00
H28    H     0.80800   0.59320   0.08360   0.01267  Uiso   1.00
H29    H     0.57490   0.40490   0.12160   0.01267  Uiso   1.00
H30    H     0.94790   0.86030   0.66300   0.01267  Uiso   1.00
H31    H     0.82100   0.38080   0.79600   0.01267  Uiso   1.00
H32    H     0.69730   0.28490   0.83700   0.01267  Uiso   1.00
H33    H     0.07000   0.43540   0.83800   0.01267  Uiso   1.00
H34    H     0.91520   0.97500   0.29600   0.01267  Uiso   1.00
H35    H     0.99040   0.27560   0.58360   0.01267  Uiso   1.00
H36    H     0.37830   0.50430   0.93800   0.01267  Uiso   1.00
H37    H     0.40490   0.57490   0.62160   0.01267  Uiso   1.00
H38    H     0.72400   0.10260   0.37220   0.01267  Uiso   1.00
H39    H     0.42510   0.59510   0.87840   0.01267  Uiso   1.00
H40    H     0.85550   0.38610   0.25380   0.01267  Uiso   1.00
H41    H     0.60170   0.63230   0.74620   0.01267  Uiso   1.00
H42    H     0.04120   0.25100   0.18880   0.01267  Uiso   1.00
H43    H     0.58110   0.51550   0.94680   0.01267  Uiso   1.00
H44    H     0.08480   0.02500   0.70400   0.01267  Uiso   1.00
H45    H     0.28820   0.27860   0.54740   0.01267  Uiso   1.00
H46    H     0.51550   0.58110   0.44680   0.01267  Uiso   1.00
H47    H     0.63230   0.60170   0.24620   0.01267  Uiso   1.00
H48    H     0.61920   0.17900   0.70400   0.01267  Uiso   1.00
H49    H     0.81060   0.76600   0.24220   0.01267  Uiso   1.00
H50    H     0.97620   0.43160   0.74220   0.01267  Uiso   1.00
H51    H     0.93130   0.36570   0.44680   0.01267  Uiso   1.00
H52    H     0.63430   0.06870   0.05320   0.01267  Uiso   1.00
H53    H     0.27860   0.28820   0.04740   0.01267  Uiso   1.00
H54    H     0.76800   0.90260   0.83800   0.01267  Uiso   1.00
H55    H     0.25100   0.04120   0.68880   0.01267  Uiso   1.00
H56    H     0.23120   0.74080   0.95260   0.01267  Uiso   1.00
H57    H     0.85240   0.56220   0.81120   0.01267  Uiso   1.00
H58    H     0.64820   0.76960   0.37220   0.01267  Uiso   1.00
H59    H     0.27560   0.99040   0.08360   0.01267  Uiso   1.00
H60    H     0.36770   0.39830   0.75380   0.01267  Uiso   1.00
H61    H     0.49570   0.62170   0.56200   0.01267  Uiso   1.00
H62    H     0.36570   0.93130   0.94680   0.01267  Uiso   1.00
H63    H     0.02500   0.08480   0.20400   0.01267  Uiso   1.00
H64    H     0.39830   0.36770   0.25380   0.01267  Uiso   1.00
H65    H     0.71510   0.30270   0.66300   0.01267  Uiso   1.00
H66    H     0.78330   0.45330   0.37840   0.01267  Uiso   1.00
H67    H     0.74900   0.95880   0.31120   0.01267  Uiso   1.00
H68    H     0.55970   0.93370   0.93800   0.01267  Uiso   1.00
H69    H     0.89740   0.27600   0.12780   0.01267  Uiso   1.00
H70    H     0.72140   0.71180   0.95260   0.01267  Uiso   1.00
H71    H     0.72440   0.00960   0.91640   0.01267  Uiso   1.00
H72    H     0.93370   0.55970   0.43800   0.01267  Uiso   1.00
H73    H     0.41890   0.48450   0.05320   0.01267  Uiso   1.00
H74    H     0.17900   0.61920   0.20400   0.01267  Uiso   1.00
H75    H     0.95880   0.74900   0.81120   0.01267  Uiso   1.00
H76    H     0.61390   0.14450   0.24620   0.01267  Uiso   1.00
H77    H     0.35180   0.23040   0.62780   0.01267  Uiso   1.00
H78    H     0.18940   0.23400   0.75780   0.01267  Uiso   1.00
H79    H     0.56460   0.93000   0.66200   0.01267  Uiso   1.00
H80    H     0.30270   0.71510   0.16300   0.01267  Uiso   1.00
H81    H     0.43160   0.97620   0.24220   0.01267  Uiso   1.00
H82    H     0.38610   0.85550   0.75380   0.01267  Uiso   1.00
H83    H     0.71180   0.72140   0.45260   0.01267  Uiso   1.00
H84    H     0.76600   0.81060   0.74220   0.01267  Uiso   1.00
H85    H     0.25920   0.76880   0.54740   0.01267  Uiso   1.00
H86    H     0.59320   0.80800   0.58360   0.01267  Uiso   1.00
H87    H     0.38080   0.82100   0.29600   0.01267  Uiso   1.00
H88    H     0.90260   0.76800   0.33800   0.01267  Uiso   1.00
H89    H     0.14450   0.61390   0.74620   0.01267  Uiso   1.00
H90    H     0.56220   0.85240   0.31120   0.01267  Uiso   1.00
H91    H     0.23040   0.35180   0.12780   0.01267  Uiso   1.00
H92    H     0.28490   0.69730   0.33700   0.01267  Uiso   1.00
H93    H     0.40680   0.19200   0.41640   0.01267  Uiso   1.00
H94    H     0.48450   0.41890   0.55320   0.01267  Uiso   1.00
H95    H     0.56840   0.02380   0.75780   0.01267  Uiso   1.00
H96    H     0.00960   0.72440   0.41640   0.01267  Uiso   1.00
C1     C     0.68739   0.51439   0.89418   0.01267  Uiso   1.00
C2     C     0.87979   0.20679   0.39418   0.01267  Uiso   1.00
C3     C     0.28710   0.64050   0.15500   0.01267  Uiso   1.00
C4     C     0.97540   0.19300   0.17040   0.01267  Uiso   1.00
C5     C     0.47960   0.19040   0.12920   0.01267  Uiso   1.00
C6     C     0.56229   0.63829   0.43758   0.01267  Uiso   1.00
C7     C     0.89060   0.20820   0.13400   0.01267  Uiso   1.00
C8     C     0.70530   0.64650   0.25960   0.01267  Uiso   1.00
C9     C     0.52040   0.80960   0.87080   0.01267  Uiso   1.00
C10    C     0.19500   0.47740   0.17040   0.01267  Uiso   1.00
C11    C     0.22010   0.37110   0.68760   0.01267  Uiso   1.00
C12    C     0.28218   0.37618   0.48616   0.01267  Uiso   1.00
C13    C     0.36171   0.43771   0.06242   0.01267  Uiso   1.00
C14    C     0.62890   0.77990   0.81240   0.01267  Uiso   1.00
C15    C     0.26270   0.27710   0.76940   0.01267  Uiso   1.00
C16    C     0.81650   0.46750   0.18760   0.01267  Uiso   1.00
C17    C     0.52260   0.80500   0.32960   0.01267  Uiso   1.00
C18    C     0.79321   0.12021   0.10582   0.01267  Uiso   1.00
C19    C     0.55430   0.11310   0.25960   0.01267  Uiso   1.00
C20    C     0.11310   0.55430   0.75960   0.01267  Uiso   1.00
C21    C     0.70130   0.87690   0.84600   0.01267  Uiso   1.00
C22    C     0.67620   0.94000   0.89340   0.01267  Uiso   1.00
C23    C     0.98550   0.13210   0.34500   0.01267  Uiso   1.00
C24    C     0.70071   0.12471   0.06242   0.01267  Uiso   1.00
C25    C     0.72290   0.73730   0.73060   0.01267  Uiso   1.00
C26    C     0.60998   0.20398   0.98616   0.01267  Uiso   1.00
C27    C     0.70330   0.20070   0.03540   0.01267  Uiso   1.00
C28    C     0.56120   0.35040   0.37080   0.01267  Uiso   1.00
C29    C     0.12021   0.79321   0.60582   0.01267  Uiso   1.00
C30    C     0.88690   0.44570   0.24040   0.01267  Uiso   1.00
C31    C     0.99230   0.50670   0.26940   0.01267  Uiso   1.00
C32    C     0.37618   0.28218   0.98616   0.01267  Uiso   1.00
C33    C     0.19040   0.47960   0.62920   0.01267  Uiso   1.00
C34    C     0.58460   0.21440   0.68040   0.01267  Uiso   1.00
C35    C     0.57890   0.89730   0.90540   0.01267  Uiso   1.00
C36    C     0.10270   0.42110   0.59460   0.01267  Uiso   1.00
C37    C     0.54660   0.78280   0.60660   0.01267  Uiso   1.00
C38    C     0.50810   0.32650   0.40540   0.01267  Uiso   1.00
C39    C     0.00770   0.49330   0.73060   0.01267  Uiso   1.00
C40    C     0.53250   0.18350   0.31240   0.01267  Uiso   1.00
C41    C     0.03400   0.90420   0.81960   0.01267  Uiso   1.00
C42    C     0.14470   0.46910   0.84600   0.01267  Uiso   1.00
C43    C     0.64960   0.43880   0.12920   0.01267  Uiso   1.00
C44    C     0.02460   0.80700   0.82960   0.01267  Uiso   1.00
C45    C     0.80960   0.52040   0.37080   0.01267  Uiso   1.00
C46    C     0.43880   0.64960   0.62920   0.01267  Uiso   1.00
C47    C     0.21440   0.58460   0.18040   0.01267  Uiso   1.00
C48    C     0.79180   0.10940   0.36600   0.01267  Uiso   1.00
C49    C     0.80700   0.02460   0.32960   0.01267  Uiso   1.00
C50    C     0.65924   0.74084   0.17988   0.01267  Uiso   1.00
C51    C     0.66790   0.66530   0.96460   0.01267  Uiso   1.00
C52    C     0.77990   0.62890   0.31240   0.01267  Uiso   1.00
C53    C     0.96600   0.09580   0.18040   0.01267  Uiso   1.00
C54    C     0.29670   0.79930   0.96460   0.01267  Uiso   1.00
C55    C     0.48561   0.31261   0.60582   0.01267  Uiso   1.00
C56    C     0.87690   0.70130   0.34600   0.01267  Uiso   1.00
C57    C     0.94000   0.67620   0.39340   0.01267  Uiso   1.00
C58    C     0.06096   0.47936   0.32012   0.01267  Uiso   1.00
C59    C     0.20679   0.87979   0.89418   0.01267  Uiso   1.00
C60    C     0.85530   0.53090   0.15400   0.01267  Uiso   1.00
C61    C     0.73730   0.72290   0.23060   0.01267  Uiso   1.00
C62    C     0.71290   0.35950   0.84500   0.01267  Uiso   1.00
C63    C     0.93904   0.52064   0.67988   0.01267  Uiso   1.00
C64    C     0.42580   0.24340   0.63400   0.01267  Uiso   1.00
C65    C     0.12310   0.29870   0.65400   0.01267  Uiso   1.00
C66    C     0.62382   0.71782   0.01384   0.01267  Uiso   1.00
C67    C     0.52064   0.93904   0.17988   0.01267  Uiso   1.00
C68    C     0.46910   0.14470   0.34600   0.01267  Uiso   1.00
C69    C     0.21720   0.45340   0.89340   0.01267  Uiso   1.00
C70    C     0.47740   0.19500   0.67040   0.01267  Uiso   1.00
C71    C     0.31261   0.48561   0.10582   0.01267  Uiso   1.00
C72    C     0.46750   0.81650   0.68760   0.01267  Uiso   1.00
C73    C     0.49330   0.00770   0.23060   0.01267  Uiso   1.00
C74    C     0.49190   0.67350   0.59460   0.01267  Uiso   1.00
C75    C     0.63829   0.56229   0.93758   0.01267  Uiso   1.00
C76    C     0.57420   0.75660   0.36600   0.01267  Uiso   1.00
C77    C     0.18350   0.53250   0.81240   0.01267  Uiso   1.00
C78    C     0.01450   0.86790   0.65500   0.01267  Uiso   1.00
C79    C     0.67350   0.49190   0.09460   0.01267  Uiso   1.00
C80    C     0.87529   0.29929   0.43758   0.01267  Uiso   1.00
C81    C     0.35040   0.56120   0.87080   0.01267  Uiso   1.00
C82    C     0.12471   0.70071   0.56242   0.01267  Uiso   1.00
C83    C     0.51439   0.68739   0.39418   0.01267  Uiso   1.00
C84    C     0.74084   0.65924   0.67988   0.01267  Uiso   1.00
C85    C     0.42110   0.10270   0.09460   0.01267  Uiso   1.00
C86    C     0.09580   0.96600   0.68040   0.01267  Uiso   1.00
C87    C     0.29870   0.12310   0.15400   0.01267  Uiso   1.00
C88    C     0.79930   0.29670   0.46460   0.01267  Uiso   1.00
C89    C     0.43771   0.36171   0.56242   0.01267  Uiso   1.00
C90    C     0.20820   0.89060   0.63400   0.01267  Uiso   1.00
C91    C     0.50670   0.99230   0.76940   0.01267  Uiso   1.00
C92    C     0.78560   0.41540   0.81960   0.01267  Uiso   1.00
C93    C     0.44570   0.88690   0.74040   0.01267  Uiso   1.00
C94    C     0.90420   0.03400   0.31960   0.01267  Uiso   1.00
C95    C     0.34076   0.25916   0.82012   0.01267  Uiso   1.00
C96    C     0.33470   0.33210   0.53540   0.01267  Uiso   1.00
C97    C     0.35350   0.29470   0.24040   0.01267  Uiso   1.00
C98    C     0.78280   0.54660   0.10660   0.01267  Uiso   1.00
C99    C     0.32380   0.06000   0.10660   0.01267  Uiso   1.00
C100   C     0.64050   0.28710   0.65500   0.01267  Uiso   1.00
C101   C     0.39002   0.79602   0.01384   0.01267  Uiso   1.00
C102   C     0.53090   0.85530   0.65400   0.01267  Uiso   1.00
C103   C     0.64650   0.70530   0.75960   0.01267  Uiso   1.00
C104   C     0.37110   0.22010   0.18760   0.01267  Uiso   1.00
C105   C     0.80500   0.52260   0.82960   0.01267  Uiso   1.00
C106   C     0.20070   0.70330   0.53540   0.01267  Uiso   1.00
C107   C     0.20398   0.60998   0.48616   0.01267  Uiso   1.00
C108   C     0.66530   0.66790   0.46460   0.01267  Uiso   1.00
C109   C     0.35950   0.71290   0.34500   0.01267  Uiso   1.00
C110   C     0.41540   0.78560   0.31960   0.01267  Uiso   1.00
C111   C     0.45340   0.21720   0.39340   0.01267  Uiso   1.00
C112   C     0.29929   0.87529   0.93758   0.01267  Uiso   1.00
C113   C     0.75660   0.57420   0.86600   0.01267  Uiso   1.00
C114   C     0.89730   0.57890   0.40540   0.01267  Uiso   1.00
C115   C     0.27710   0.26270   0.26940   0.01267  Uiso   1.00
C116   C     0.79602   0.39002   0.51384   0.01267  Uiso   1.00
C117   C     0.10940   0.79180   0.86600   0.01267  Uiso   1.00
C118   C     0.29470   0.35350   0.74040   0.01267  Uiso   1.00
C119   C     0.25916   0.34076   0.32012   0.01267  Uiso   1.00
C120   C     0.06000   0.32380   0.60660   0.01267  Uiso   1.00
C121   C     0.32650   0.50810   0.90540   0.01267  Uiso   1.00
C122   C     0.24340   0.42580   0.13400   0.01267  Uiso   1.00
C123   C     0.13210   0.98550   0.84500   0.01267  Uiso   1.00
C124   C     0.47936   0.06096   0.82012   0.01267  Uiso   1.00
C125   C     0.33210   0.33470   0.03540   0.01267  Uiso   1.00
C126   C     0.86790   0.01450   0.15500   0.01267  Uiso   1.00
C127   C     0.19300   0.97540   0.67040   0.01267  Uiso   1.00
C128   C     0.71782   0.62382   0.51384   0.01267  Uiso   1.00
N1     N     0.28840   0.58080   0.82280   0.01267  Uiso   1.00
N2     N     0.59495   0.33775   0.61930   0.01267  Uiso   1.00
N3     N     0.02435   0.78155   0.61930   0.01267  Uiso   1.00
N4     N     0.40505   0.66225   0.38070   0.01267  Uiso   1.00
N5     N     0.25800   0.46560   0.67720   0.01267  Uiso   1.00
N6     N     0.53440   0.74200   0.82280   0.01267  Uiso   1.00
N7     N     0.58080   0.28840   0.32280   0.01267  Uiso   1.00
N8     N     0.78155   0.02435   0.11930   0.01267  Uiso   1.00
N9     N     0.74200   0.53440   0.32280   0.01267  Uiso   1.00
N10    N     0.33775   0.59495   0.11930   0.01267  Uiso   1.00
N11    N     0.41920   0.71160   0.67720   0.01267  Uiso   1.00
N12    N     0.21845   0.97565   0.88070   0.01267  Uiso   1.00
N13    N     0.71160   0.41920   0.17720   0.01267  Uiso   1.00
N14    N     0.66225   0.40505   0.88070   0.01267  Uiso   1.00
N15    N     0.46560   0.25800   0.17720   0.01267  Uiso   1.00
N16    N     0.97565   0.21845   0.38070   0.01267  Uiso   1.00
O1     O     0.40702   0.01002   0.84184   0.01267  Uiso   1.00
O2     O     0.33182   0.43482   0.34184   0.01267  Uiso   1.00
O3     O     0.33187   0.18087   0.96634   0.01267  Uiso   1.00
O4     O     0.43482   0.33182   0.84184   0.01267  Uiso   1.00
O5     O     0.71453   0.36553   0.53366   0.01267  Uiso   1.00
O6     O     0.65613   0.54633   0.52966   0.01267  Uiso   1.00
O7     O     0.18087   0.33187   0.46634   0.01267  Uiso   1.00
O8     O     0.56518   0.66818   0.15816   0.01267  Uiso   1.00
O9     O     0.51667   0.12647   0.97034   0.01267  Uiso   1.00
O10    O     0.66818   0.56518   0.65816   0.01267  Uiso   1.00
O11    O     0.17661   0.30541   0.33582   0.01267  Uiso   1.00
O12    O     0.15921   0.53041   0.33582   0.01267  Uiso   1.00
O13    O     0.46959   0.84079   0.16418   0.01267  Uiso   1.00
O14    O     0.53041   0.15921   0.83582   0.01267  Uiso   1.00
O15    O     0.59298   0.98998   0.15816   0.01267  Uiso   1.00
O16    O     0.01002   0.40702   0.34184   0.01267  Uiso   1.00
O17    O     0.36553   0.71453   0.03366   0.01267  Uiso   1.00
O18    O     0.81913   0.66813   0.53366   0.01267  Uiso   1.00
O19    O     0.48333   0.87353   0.02966   0.01267  Uiso   1.00
O20    O     0.54633   0.65613   0.02966   0.01267  Uiso   1.00
O21    O     0.34387   0.45367   0.47034   0.01267  Uiso   1.00
O22    O     0.30541   0.17661   0.83582   0.01267  Uiso   1.00
O23    O     0.87353   0.48333   0.52966   0.01267  Uiso   1.00
O24    O     0.63447   0.28547   0.96634   0.01267  Uiso   1.00
O25    O     0.45367   0.34387   0.97034   0.01267  Uiso   1.00
O26    O     0.28547   0.63447   0.46634   0.01267  Uiso   1.00
O27    O     0.66813   0.81913   0.03366   0.01267  Uiso   1.00
O28    O     0.84079   0.46959   0.66418   0.01267  Uiso   1.00
O29    O     0.69459   0.82339   0.16418   0.01267  Uiso   1.00
O30    O     0.98998   0.59298   0.65816   0.01267  Uiso   1.00
O31    O     0.12647   0.51667   0.47034   0.01267  Uiso   1.00
O32    O     0.82339   0.69459   0.66418   0.01267  Uiso   1.00
