data_ic050064gsi20050115_040515_freeONLY
_audit_creation_date              2015-08-19
_audit_creation_method            'Materials Studio'
_symmetry_space_group_name_H-M    'P1'
_symmetry_Int_Tables_number       1
_symmetry_cell_setting            triclinic
loop_
_symmetry_equiv_pos_as_xyz
  x,y,z
_cell_length_a                    12.5310
_cell_length_b                    12.5310
_cell_length_c                    18.4760
_cell_angle_alpha                 90.0000
_cell_angle_beta                  90.0000
_cell_angle_gamma                 120.0000
loop_
_atom_site_label
_atom_site_type_symbol
_atom_site_fract_x
_atom_site_fract_y
_atom_site_fract_z
_atom_site_U_iso_or_equiv
_atom_site_adp_type
_atom_site_occupancy
Fe1    Fe    0.27300   0.49250   0.25000   0.01267  Uiso   1.00
Fe2    Fe    0.72700   0.21950   0.75000   0.01267  Uiso   1.00
Fe3    Fe    0.21950   0.72700   0.25000   0.01267  Uiso   1.00
Fe4    Fe    0.50750   0.78050   0.25000   0.01267  Uiso   1.00
Fe5    Fe    0.49250   0.27300   0.75000   0.01267  Uiso   1.00
Fe6    Fe    0.78050   0.50750   0.75000   0.01267  Uiso   1.00
H1     H     0.72480   0.67960   0.55450   0.01267  Uiso   1.00
H2     H     0.27520   0.95480   0.05450   0.01267  Uiso   1.00
H3     H     0.36160   0.39870   0.44020   0.01267  Uiso   1.00
H4     H     0.03710   0.63840   0.44020   0.01267  Uiso   1.00
H5     H     0.67960   0.72480   0.44550   0.01267  Uiso   1.00
H6     H     0.60130   0.96290   0.05980   0.01267  Uiso   1.00
H7     H     0.36790   0.32480   0.25000   0.01267  Uiso   1.00
H8     H     0.39870   0.36160   0.94020   0.01267  Uiso   1.00
H9     H     0.60130   0.96290   0.44020   0.01267  Uiso   1.00
H10    H     0.67960   0.72480   0.05450   0.01267  Uiso   1.00
H11    H     0.03710   0.63840   0.05980   0.01267  Uiso   1.00
H12    H     0.27520   0.95480   0.44550   0.01267  Uiso   1.00
H13    H     0.36160   0.39870   0.05980   0.01267  Uiso   1.00
H14    H     0.04310   0.67520   0.75000   0.01267  Uiso   1.00
H15    H     0.95480   0.27520   0.55450   0.01267  Uiso   1.00
H16    H     0.32040   0.04520   0.94550   0.01267  Uiso   1.00
H17    H     0.96290   0.60130   0.94020   0.01267  Uiso   1.00
H18    H     0.32480   0.36790   0.75000   0.01267  Uiso   1.00
H19    H     0.95480   0.27520   0.94550   0.01267  Uiso   1.00
H20    H     0.67520   0.04310   0.25000   0.01267  Uiso   1.00
H21    H     0.96290   0.60130   0.55980   0.01267  Uiso   1.00
H22    H     0.95690   0.63210   0.25000   0.01267  Uiso   1.00
H23    H     0.04520   0.32040   0.05450   0.01267  Uiso   1.00
H24    H     0.39870   0.36160   0.55980   0.01267  Uiso   1.00
H25    H     0.04520   0.32040   0.44550   0.01267  Uiso   1.00
H26    H     0.32040   0.04520   0.55450   0.01267  Uiso   1.00
H27    H     0.63210   0.95690   0.75000   0.01267  Uiso   1.00
H28    H     0.63840   0.03710   0.55980   0.01267  Uiso   1.00
H29    H     0.63840   0.03710   0.94020   0.01267  Uiso   1.00
H30    H     0.72480   0.67960   0.94550   0.01267  Uiso   1.00
C1     C     0.43140   0.94790   0.43150   0.01267  Uiso   1.00
C2     C     0.09100   0.19500   0.80800   0.01267  Uiso   1.00
C3     C     0.97600   0.54400   0.96470   0.01267  Uiso   1.00
C4     C     0.71600   0.98200   0.75000   0.01267  Uiso   1.00
C5     C     0.48400   0.59500   0.14230   0.01267  Uiso   1.00
C6     C     0.90900   0.10400   0.19200   0.01267  Uiso   1.00
C7     C     0.48350   0.05210   0.56850   0.01267  Uiso   1.00
C8     C     0.76700   0.64300   0.25000   0.01267  Uiso   1.00
C9     C     0.12400   0.35700   0.75000   0.01267  Uiso   1.00
C10    C     0.48350   0.05210   0.93150   0.01267  Uiso   1.00
C11    C     0.43200   0.45600   0.46470   0.01267  Uiso   1.00
C12    C     0.02590   0.37540   0.46750   0.01267  Uiso   1.00
C13    C     0.87600   0.23300   0.25000   0.01267  Uiso   1.00
C14    C     0.80500   0.89600   0.69200   0.01267  Uiso   1.00
C15    C     0.97600   0.54400   0.53530   0.01267  Uiso   1.00
C16    C     0.09100   0.19500   0.69200   0.01267  Uiso   1.00
C17    C     0.56800   0.02400   0.96470   0.01267  Uiso   1.00
C18    C     0.10400   0.90900   0.80800   0.01267  Uiso   1.00
C19    C     0.97410   0.34950   0.96750   0.01267  Uiso   1.00
C20    C     0.02400   0.56800   0.46470   0.01267  Uiso   1.00
C21    C     0.51650   0.56860   0.43150   0.01267  Uiso   1.00
C22    C     0.62460   0.65050   0.46750   0.01267  Uiso   1.00
C23    C     0.01800   0.73400   0.75000   0.01267  Uiso   1.00
C24    C     0.97410   0.34950   0.53250   0.01267  Uiso   1.00
C25    C     0.26600   0.28400   0.75000   0.01267  Uiso   1.00
C26    C     0.62460   0.65050   0.03250   0.01267  Uiso   1.00
C27    C     0.51650   0.56860   0.06850   0.01267  Uiso   1.00
C28    C     0.02400   0.56800   0.03530   0.01267  Uiso   1.00
C29    C     0.59500   0.48400   0.64230   0.01267  Uiso   1.00
C30    C     0.23300   0.87600   0.75000   0.01267  Uiso   1.00
C31    C     0.02590   0.37540   0.03250   0.01267  Uiso   1.00
C32    C     0.43200   0.45600   0.03530   0.01267  Uiso   1.00
C33    C     0.51600   0.11100   0.64230   0.01267  Uiso   1.00
C34    C     0.10400   0.90900   0.69200   0.01267  Uiso   1.00
C35    C     0.90900   0.10400   0.30800   0.01267  Uiso   1.00
C36    C     0.94790   0.43140   0.56850   0.01267  Uiso   1.00
C37    C     0.98200   0.71600   0.25000   0.01267  Uiso   1.00
C38    C     0.48400   0.59500   0.35770   0.01267  Uiso   1.00
C39    C     0.59500   0.48400   0.85770   0.01267  Uiso   1.00
C40    C     0.43140   0.94790   0.06850   0.01267  Uiso   1.00
C41    C     0.11100   0.51600   0.35770   0.01267  Uiso   1.00
C42    C     0.34950   0.97410   0.03250   0.01267  Uiso   1.00
C43    C     0.28400   0.26600   0.25000   0.01267  Uiso   1.00
C44    C     0.64300   0.76700   0.75000   0.01267  Uiso   1.00
C45    C     0.94790   0.43140   0.93150   0.01267  Uiso   1.00
C46    C     0.37540   0.02590   0.96750   0.01267  Uiso   1.00
C47    C     0.73400   0.01800   0.25000   0.01267  Uiso   1.00
C48    C     0.88900   0.40500   0.64230   0.01267  Uiso   1.00
C49    C     0.37540   0.02590   0.53250   0.01267  Uiso   1.00
C50    C     0.45600   0.43200   0.53530   0.01267  Uiso   1.00
C51    C     0.19500   0.09100   0.30800   0.01267  Uiso   1.00
C52    C     0.54400   0.97600   0.03530   0.01267  Uiso   1.00
C53    C     0.56800   0.02400   0.53530   0.01267  Uiso   1.00
C54    C     0.89600   0.80500   0.30800   0.01267  Uiso   1.00
C55    C     0.40500   0.88900   0.14230   0.01267  Uiso   1.00
C56    C     0.80500   0.89600   0.80800   0.01267  Uiso   1.00
C57    C     0.05210   0.48350   0.06850   0.01267  Uiso   1.00
C58    C     0.05210   0.48350   0.43150   0.01267  Uiso   1.00
C59    C     0.40500   0.88900   0.35770   0.01267  Uiso   1.00
C60    C     0.89600   0.80500   0.19200   0.01267  Uiso   1.00
C61    C     0.65050   0.62460   0.96750   0.01267  Uiso   1.00
C62    C     0.54400   0.97600   0.46470   0.01267  Uiso   1.00
C63    C     0.45600   0.43200   0.96470   0.01267  Uiso   1.00
C64    C     0.19500   0.09100   0.19200   0.01267  Uiso   1.00
C65    C     0.56860   0.51650   0.93150   0.01267  Uiso   1.00
C66    C     0.51600   0.11100   0.85770   0.01267  Uiso   1.00
C67    C     0.65050   0.62460   0.53250   0.01267  Uiso   1.00
C68    C     0.88900   0.40500   0.85770   0.01267  Uiso   1.00
C69    C     0.34950   0.97410   0.46750   0.01267  Uiso   1.00
C70    C     0.11100   0.51600   0.14230   0.01267  Uiso   1.00
C71    C     0.35700   0.12400   0.25000   0.01267  Uiso   1.00
C72    C     0.56860   0.51650   0.56850   0.01267  Uiso   1.00
N1     N     0.84500   0.10700   0.25000   0.01267  Uiso   1.00
N2     N     0.10700   0.84500   0.75000   0.01267  Uiso   1.00
N3     N     0.73800   0.89300   0.75000   0.01267  Uiso   1.00
N4     N     0.26200   0.15500   0.25000   0.01267  Uiso   1.00
N5     N     0.15500   0.26200   0.75000   0.01267  Uiso   1.00
N6     N     0.89300   0.73800   0.25000   0.01267  Uiso   1.00
O1     O     0.69180   0.91180   0.25000   0.01267  Uiso   1.00
O2     O     0.30190   0.84990   0.33080   0.01267  Uiso   1.00
O3     O     0.49470   0.88410   0.17190   0.01267  Uiso   1.00
O4     O     0.61060   0.11590   0.67190   0.01267  Uiso   1.00
O5     O     0.11590   0.61060   0.17190   0.01267  Uiso   1.00
O6     O     0.15010   0.45200   0.33080   0.01267  Uiso   1.00
O7     O     0.50530   0.38940   0.82810   0.01267  Uiso   1.00
O8     O     0.15010   0.45200   0.16920   0.01267  Uiso   1.00
O9     O     0.11590   0.61060   0.32810   0.01267  Uiso   1.00
O10    O     0.45200   0.15010   0.66920   0.01267  Uiso   1.00
O11    O     0.69810   0.54800   0.66920   0.01267  Uiso   1.00
O12    O     0.91180   0.69180   0.75000   0.01267  Uiso   1.00
O13    O     0.49470   0.88410   0.32810   0.01267  Uiso   1.00
O14    O     0.84990   0.30190   0.66920   0.01267  Uiso   1.00
O15    O     0.30190   0.84990   0.16920   0.01267  Uiso   1.00
O16    O     0.30820   0.22000   0.75000   0.01267  Uiso   1.00
O17    O     0.88410   0.49470   0.82810   0.01267  Uiso   1.00
O18    O     0.66667   0.33334   0.75000   0.01267  Uiso   1.00
O19    O     0.54800   0.69810   0.16920   0.01267  Uiso   1.00
O20    O     0.38940   0.50530   0.32810   0.01267  Uiso   1.00
O21    O     0.50530   0.38940   0.67190   0.01267  Uiso   1.00
O22    O     0.61060   0.11590   0.82810   0.01267  Uiso   1.00
O23    O     0.38940   0.50530   0.17190   0.01267  Uiso   1.00
O24    O     0.69810   0.54800   0.83080   0.01267  Uiso   1.00
O25    O     0.88410   0.49470   0.67190   0.01267  Uiso   1.00
O26    O     0.45200   0.15010   0.83080   0.01267  Uiso   1.00
O27    O     0.84990   0.30190   0.83080   0.01267  Uiso   1.00
O28    O     0.54800   0.69810   0.33080   0.01267  Uiso   1.00
O29    O     0.22000   0.30820   0.25000   0.01267  Uiso   1.00
O30    O     0.78000   0.08820   0.75000   0.01267  Uiso   1.00
O31    O     0.33333   0.66666   0.25000   0.01267  Uiso   1.00
O32    O     0.08820   0.78000   0.25000   0.01267  Uiso   1.00
