data_ic0520162si20051122_054836_freeONLY
_audit_creation_date              2015-08-19
_audit_creation_method            'Materials Studio'
_symmetry_space_group_name_H-M    'P1'
_symmetry_Int_Tables_number       1
_symmetry_cell_setting            triclinic
loop_
_symmetry_equiv_pos_as_xyz
  x,y,z
_cell_length_a                    13.2433
_cell_length_b                    26.3397
_cell_length_c                    26.3397
_cell_angle_alpha                 120.0000
_cell_angle_beta                  90.0000
_cell_angle_gamma                 90.0000
loop_
_atom_site_label
_atom_site_type_symbol
_atom_site_fract_x
_atom_site_fract_y
_atom_site_fract_z
_atom_site_U_iso_or_equiv
_atom_site_adp_type
_atom_site_occupancy
Cd1    Cd    0.00000   0.84112   0.00000   0.01267  Uiso   1.00
Cd2    Cd    0.75376   0.75104   0.50208   0.01267  Uiso   1.00
Cd3    Cd    0.24880   0.00000   0.24939   0.01267  Uiso   1.00
Cd4    Cd    0.34436   0.33333   0.66666   0.01267  Uiso   1.00
Cd5    Cd    0.75120   0.00000   0.24939   0.01267  Uiso   1.00
Cd6    Cd    0.75376   0.24897   0.75104   0.01267  Uiso   1.00
Cd7    Cd    0.75120   0.00000   0.75061   0.01267  Uiso   1.00
Cd8    Cd    0.24880   0.00000   0.75061   0.01267  Uiso   1.00
Cd9    Cd    0.00000   0.15888  -0.00000   0.01267  Uiso   1.00
Cd10   Cd    0.00000   0.00000   0.15888   0.01267  Uiso   1.00
Cd11   Cd    0.50000   0.00000   0.34182   0.01267  Uiso   1.00
Cd12   Cd    0.50000   0.34182   0.34182   0.01267  Uiso   1.00
Cd13   Cd    0.65564   0.33333   0.66666   0.01267  Uiso   1.00
Cd14   Cd    0.50000   0.65818  -0.00000   0.01267  Uiso   1.00
Cd15   Cd    0.50000   0.65818   0.65818   0.01267  Uiso   1.00
Cd16   Cd    0.75120   0.75061   0.00000   0.01267  Uiso   1.00
Cd17   Cd    0.24624   0.24897   0.75104   0.01267  Uiso   1.00
Cd18   Cd    0.24624   0.75104   0.50208   0.01267  Uiso   1.00
Cd19   Cd    0.75120   0.24939   0.24939   0.01267  Uiso   1.00
Cd20   Cd    0.75120   0.75061   0.75061   0.01267  Uiso   1.00
Cd21   Cd    0.75376   0.49793   0.24897   0.01267  Uiso   1.00
Cd22   Cd    0.24624   0.24897   0.49793   0.01267  Uiso   1.00
Cd23   Cd    0.00000   0.15888   0.15888   0.01267  Uiso   1.00
Cd24   Cd    0.75376   0.50207   0.75103   0.01267  Uiso   1.00
Cd25   Cd    0.24880   0.24939   0.24939   0.01267  Uiso   1.00
Cd26   Cd    0.24880   0.24939   0.00000   0.01267  Uiso   1.00
Cd27   Cd    0.50000   0.34182  -0.00000   0.01267  Uiso   1.00
Cd28   Cd    0.24880   0.75061   0.75061   0.01267  Uiso   1.00
Cd29   Cd    0.34436   0.66667   0.33334   0.01267  Uiso   1.00
Cd30   Cd    0.00000   0.00000   0.84112   0.01267  Uiso   1.00
Cd31   Cd    0.24624   0.49793   0.24897   0.01267  Uiso   1.00
Cd32   Cd    0.65564   0.66667   0.33334   0.01267  Uiso   1.00
Cd33   Cd    0.24880   0.75061   0.00000   0.01267  Uiso   1.00
Cd34   Cd    0.75120   0.24939   0.00000   0.01267  Uiso   1.00
Cd35   Cd    0.24624   0.50207   0.75103   0.01267  Uiso   1.00
Cd36   Cd    0.00000   0.84112   0.84112   0.01267  Uiso   1.00
Cd37   Cd    0.75376   0.24897   0.49793   0.01267  Uiso   1.00
Cd38   Cd    0.24624   0.75104   0.24897   0.01267  Uiso   1.00
Cd39   Cd    0.75376   0.75104   0.24897   0.01267  Uiso   1.00
Cd40   Cd    0.50000   0.00000   0.65818   0.01267  Uiso   1.00
H1     H     0.68040   0.86780   0.13220   0.01267  Uiso   1.00
H2     H     0.68040   0.26440   0.13220   0.01267  Uiso   1.00
H3     H     0.31960   0.13220   0.26440   0.01267  Uiso   1.00
H4     H     0.31960   0.73560   0.86780   0.01267  Uiso   1.00
H5     H     0.00000   0.72755   0.45510   0.01267  Uiso   1.00
H6     H     0.58050   0.67820   0.54360   0.01267  Uiso   1.00
H7     H     0.00000   0.45510   0.72755   0.01267  Uiso   1.00
H8     H     0.50000   0.45390   0.22695   0.01267  Uiso   1.00
H9     H     0.41950   0.67820   0.54360   0.01267  Uiso   1.00
H10    H     0.58050   0.32180   0.45640   0.01267  Uiso   1.00
H11    H     0.68040   0.73560   0.86780   0.01267  Uiso   1.00
H12    H     0.41950   0.54360   0.67820   0.01267  Uiso   1.00
H13    H     0.50000   0.77305   0.54610   0.01267  Uiso   1.00
H14    H     0.00000   0.54490   0.27245   0.01267  Uiso   1.00
H15    H     0.58050   0.86540   0.32180   0.01267  Uiso   1.00
H16    H     0.31960   0.86780   0.73560   0.01267  Uiso   1.00
H17    H     0.50000   0.22695   0.77305   0.01267  Uiso   1.00
H18    H     0.50000   0.77305   0.22695   0.01267  Uiso   1.00
H19    H     0.41950   0.86540   0.32180   0.01267  Uiso   1.00
H20    H     0.41950   0.32180   0.45640   0.01267  Uiso   1.00
H21    H     0.00000   0.27245   0.72755   0.01267  Uiso   1.00
H22    H     0.41950   0.45640   0.13460   0.01267  Uiso   1.00
H23    H     0.50000   0.22695   0.45390   0.01267  Uiso   1.00
H24    H     0.00000   0.72755   0.27245   0.01267  Uiso   1.00
H25    H     0.58050   0.54360   0.67820   0.01267  Uiso   1.00
H26    H     0.58050   0.45640   0.13460   0.01267  Uiso   1.00
H27    H     0.50000   0.54610   0.77305   0.01267  Uiso   1.00
H28    H     0.58050   0.13460   0.67820   0.01267  Uiso   1.00
H29    H     0.31960   0.86780   0.13220   0.01267  Uiso   1.00
H30    H     0.41950   0.67820   0.13460   0.01267  Uiso   1.00
H31    H     0.31960   0.26440   0.13220   0.01267  Uiso   1.00
H32    H     0.41950   0.54360   0.86540   0.01267  Uiso   1.00
H33    H     0.68040   0.13220   0.26440   0.01267  Uiso   1.00
H34    H     0.68040   0.13220   0.86780   0.01267  Uiso   1.00
H35    H     0.58050   0.86540   0.54360   0.01267  Uiso   1.00
H36    H     0.41950   0.86540   0.54360   0.01267  Uiso   1.00
H37    H     0.41950   0.13460   0.45640   0.01267  Uiso   1.00
H38    H     0.58050   0.32180   0.86540   0.01267  Uiso   1.00
H39    H     0.58050   0.54360   0.86540   0.01267  Uiso   1.00
H40    H     0.58050   0.67820   0.13460   0.01267  Uiso   1.00
H41    H     0.58050   0.13460   0.45640   0.01267  Uiso   1.00
H42    H     0.41950   0.32180   0.86540   0.01267  Uiso   1.00
H43    H     0.00000   0.27245   0.54490   0.01267  Uiso   1.00
H44    H     0.41950   0.13460   0.67820   0.01267  Uiso   1.00
H45    H     0.68040   0.86780   0.73560   0.01267  Uiso   1.00
H46    H     0.58050   0.45640   0.32180   0.01267  Uiso   1.00
H47    H     0.41950   0.45640   0.32180   0.01267  Uiso   1.00
H48    H     0.31960   0.13220   0.86780   0.01267  Uiso   1.00
C1     C     0.04910   0.00000   0.32650   0.01267  Uiso   1.00
C2     C     0.62970   0.30410   0.42620   0.01267  Uiso   1.00
C3     C     0.37030   0.30410   0.42620   0.01267  Uiso   1.00
C4     C     0.62970   0.57380   0.69590   0.01267  Uiso   1.00
C5     C     0.37030   0.12210   0.42620   0.01267  Uiso   1.00
C6     C     0.00000   0.74835   0.25165   0.01267  Uiso   1.00
C7     C     0.62970   0.87790   0.57380   0.01267  Uiso   1.00
C8     C     0.84160   0.56210   0.17560   0.01267  Uiso   1.00
C9     C     0.15840   0.17560   0.61350   0.01267  Uiso   1.00
C10    C     0.74240   0.12170   0.24340   0.01267  Uiso   1.00
C11    C     0.50000   0.24775   0.75225   0.01267  Uiso   1.00
C12    C     0.25760   0.12170   0.87830   0.01267  Uiso   1.00
C13    C     0.04910   0.67350   0.67350   0.01267  Uiso   1.00
C14    C     0.95090   0.00000   0.67350   0.01267  Uiso   1.00
C15    C     0.54860   0.17270   0.17270   0.01267  Uiso   1.00
C16    C     0.62970   0.30410   0.87790   0.01267  Uiso   1.00
C17    C     0.15840   0.61350   0.17560   0.01267  Uiso   1.00
C18    C     0.00000   0.50330   0.25165   0.01267  Uiso   1.00
C19    C     0.62970   0.12210   0.69590   0.01267  Uiso   1.00
C20    C     0.37030   0.69590   0.57380   0.01267  Uiso   1.00
C21    C     0.50000   0.75225   0.50450   0.01267  Uiso   1.00
C22    C     0.37030   0.57380   0.69590   0.01267  Uiso   1.00
C23    C     0.25760   0.12170   0.24340   0.01267  Uiso   1.00
C24    C     0.62970   0.87790   0.30410   0.01267  Uiso   1.00
C25    C     0.74240   0.12170   0.87830   0.01267  Uiso   1.00
C26    C     0.62970   0.12210   0.42620   0.01267  Uiso   1.00
C27    C     0.00000   0.49670   0.74835   0.01267  Uiso   1.00
C28    C     0.37030   0.87790   0.57380   0.01267  Uiso   1.00
C29    C     0.00000   0.25165   0.74835   0.01267  Uiso   1.00
C30    C     0.04910   0.00000   0.67350   0.01267  Uiso   1.00
C31    C     0.37030   0.42620   0.30410   0.01267  Uiso   1.00
C32    C     0.84160   0.17560   0.56210   0.01267  Uiso   1.00
C33    C     0.84160   0.61350   0.17560   0.01267  Uiso   1.00
C34    C     0.25760   0.24340   0.12170   0.01267  Uiso   1.00
C35    C     0.15840   0.56210   0.17560   0.01267  Uiso   1.00
C36    C     0.84160   0.43790   0.82440   0.01267  Uiso   1.00
C37    C     0.37030   0.30410   0.87790   0.01267  Uiso   1.00
C38    C     0.37030   0.12210   0.69590   0.01267  Uiso   1.00
C39    C     0.45140   0.17270   0.17270   0.01267  Uiso   1.00
C40    C     0.45140   0.82730   0.00000   0.01267  Uiso   1.00
C41    C     0.54860   0.17270   0.00000   0.01267  Uiso   1.00
C42    C     0.25760   0.87830   0.75660   0.01267  Uiso   1.00
C43    C     0.50000   0.50450   0.75225   0.01267  Uiso   1.00
C44    C     0.25760   0.87830   0.12170   0.01267  Uiso   1.00
C45    C     0.62970   0.57380   0.87790   0.01267  Uiso   1.00
C46    C     0.84160   0.61350   0.43790   0.01267  Uiso   1.00
C47    C     0.50000   0.49550   0.24775   0.01267  Uiso   1.00
C48    C     0.37030   0.87790   0.30410   0.01267  Uiso   1.00
C49    C     0.84160   0.17560   0.61350   0.01267  Uiso   1.00
C50    C     0.15840   0.43790   0.82440   0.01267  Uiso   1.00
C51    C     0.54860   0.82730   0.00000   0.01267  Uiso   1.00
C52    C     0.15840   0.61350   0.43790   0.01267  Uiso   1.00
C53    C     0.37030   0.69590   0.12210   0.01267  Uiso   1.00
C54    C     0.50000   0.75225   0.24775   0.01267  Uiso   1.00
C55    C     0.37030   0.57380   0.87790   0.01267  Uiso   1.00
C56    C     0.95090   0.00000   0.32650   0.01267  Uiso   1.00
C57    C     0.84160   0.82440   0.38650   0.01267  Uiso   1.00
C58    C     0.45140   0.82730   0.82730   0.01267  Uiso   1.00
C59    C     0.95090   0.67350  -0.00000   0.01267  Uiso   1.00
C60    C     0.74240   0.87830   0.12170   0.01267  Uiso   1.00
C61    C     0.62970   0.42620   0.12210   0.01267  Uiso   1.00
C62    C     0.15840   0.43790   0.61350   0.01267  Uiso   1.00
C63    C     0.04910   0.32650   0.32650   0.01267  Uiso   1.00
C64    C     0.84160   0.38650   0.82440   0.01267  Uiso   1.00
C65    C     0.15840   0.17560   0.56210   0.01267  Uiso   1.00
C66    C     0.54860   0.00000   0.17270   0.01267  Uiso   1.00
C67    C     0.25760   0.75660   0.87830   0.01267  Uiso   1.00
C68    C     0.15840   0.82440   0.38650   0.01267  Uiso   1.00
C69    C     0.62970   0.42620   0.30410   0.01267  Uiso   1.00
C70    C     0.84160   0.38650   0.56210   0.01267  Uiso   1.00
C71    C     0.54860   0.00000   0.82730   0.01267  Uiso   1.00
C72    C     0.15840   0.38650   0.56210   0.01267  Uiso   1.00
C73    C     0.45140   0.17270  -0.00000   0.01267  Uiso   1.00
C74    C     0.00000   0.25165   0.50330   0.01267  Uiso   1.00
C75    C     0.95090   0.67350   0.67350   0.01267  Uiso   1.00
C76    C     0.45140   0.00000   0.17270   0.01267  Uiso   1.00
C77    C     0.62970   0.69590   0.12210   0.01267  Uiso   1.00
C78    C     0.54860   0.82730   0.82730   0.01267  Uiso   1.00
C79    C     0.84160   0.82440   0.43790   0.01267  Uiso   1.00
C80    C     0.00000   0.74835   0.49670   0.01267  Uiso   1.00
C81    C     0.74240   0.87830   0.75660   0.01267  Uiso   1.00
C82    C     0.15840   0.82440   0.43790   0.01267  Uiso   1.00
C83    C     0.95090   0.32650   0.32650   0.01267  Uiso   1.00
C84    C     0.45140   0.00000   0.82730   0.01267  Uiso   1.00
C85    C     0.37030   0.42620   0.12210   0.01267  Uiso   1.00
C86    C     0.04910   0.32650   0.00000   0.01267  Uiso   1.00
C87    C     0.74240   0.75660   0.87830   0.01267  Uiso   1.00
C88    C     0.84160   0.43790   0.61350   0.01267  Uiso   1.00
C89    C     0.74240   0.24340   0.12170   0.01267  Uiso   1.00
C90    C     0.84160   0.56210   0.38650   0.01267  Uiso   1.00
C91    C     0.15840   0.38650   0.82440   0.01267  Uiso   1.00
C92    C     0.95090   0.32650   0.00000   0.01267  Uiso   1.00
C93    C     0.50000   0.24775   0.49550   0.01267  Uiso   1.00
C94    C     0.62970   0.69590   0.57380   0.01267  Uiso   1.00
C95    C     0.15840   0.56210   0.38650   0.01267  Uiso   1.00
C96    C     0.04910   0.67350  -0.00000   0.01267  Uiso   1.00
N1     N     0.87240   0.80170   0.87590   0.01267  Uiso   1.00
N2     N     0.04920   0.20715   0.41430   0.01267  Uiso   1.00
N3     N     0.75320   0.62470   0.24940   0.01267  Uiso   1.00
N4     N     0.95080   0.79285   0.58570   0.01267  Uiso   1.00
N5     N     0.21340   0.56970   0.34790   0.01267  Uiso   1.00
N6     N     0.41840   0.22090   0.00000   0.01267  Uiso   1.00
N7     N     0.71050   0.84770   0.27630   0.01267  Uiso   1.00
N8     N     0.24680   0.24940   0.62470   0.01267  Uiso   1.00
N9     N     0.62650   0.07170   0.37570   0.01267  Uiso   1.00
N10    N     0.20830   0.92770   0.77340   0.01267  Uiso   1.00
N11    N     0.87240   0.19830   0.07420   0.01267  Uiso   1.00
N12    N     0.58160  -0.00000   0.77910   0.01267  Uiso   1.00
N13    N     0.54960   0.70815   0.29185   0.01267  Uiso   1.00
N14    N     0.79170   0.84570   0.77340   0.01267  Uiso   1.00
N15    N     0.91880   0.53010   0.76505   0.01267  Uiso   1.00
N16    N     0.20830   0.77340   0.84570   0.01267  Uiso   1.00
N17    N     0.12760   0.80170   0.87590   0.01267  Uiso   1.00
N18    N     0.00000   0.74950   0.74950   0.01267  Uiso   1.00
N19    N     0.24510   0.87880   0.25590   0.01267  Uiso   1.00
N20    N     0.21340   0.65210   0.22180   0.01267  Uiso   1.00
N21    N     0.62650   0.30400   0.37570   0.01267  Uiso   1.00
N22    N     0.70640   0.92840   0.27260   0.01267  Uiso   1.00
N23    N     0.78660   0.22180   0.65210   0.01267  Uiso   1.00
N24    N     0.91860   0.27830   0.00000   0.01267  Uiso   1.00
N25    N     0.04920   0.79285   0.58570   0.01267  Uiso   1.00
N26    N     0.20830   0.84570   0.77340   0.01267  Uiso   1.00
N27    N     0.29360   0.65580   0.92840   0.01267  Uiso   1.00
N28    N     0.20830   0.07230   0.84570   0.01267  Uiso   1.00
N29    N     0.20830   0.07230   0.22660   0.01267  Uiso   1.00
N30    N     0.29360   0.34420   0.27260   0.01267  Uiso   1.00
N31    N     0.41760   0.73620   0.47240   0.01267  Uiso   1.00
N32    N     0.00000   0.25050   0.25050   0.01267  Uiso   1.00
N33    N     0.28950   0.42860   0.15230   0.01267  Uiso   1.00
N34    N     0.29360   0.65580   0.72740   0.01267  Uiso   1.00
N35    N     0.58240   0.73620   0.47240   0.01267  Uiso   1.00
N36    N     0.37350   0.69600   0.62430   0.01267  Uiso   1.00
N37    N     0.79170   0.22660   0.07230   0.01267  Uiso   1.00
N38    N     0.75490   0.87880   0.62290   0.01267  Uiso   1.00
N39    N     0.79170   0.22660   0.15430   0.01267  Uiso   1.00
N40    N     0.04920   0.79285   0.20715   0.01267  Uiso   1.00
N41    N     0.24680   0.62470   0.37530   0.01267  Uiso   1.00
N42    N     0.79170   0.84570   0.07230   0.01267  Uiso   1.00
N43    N     0.37350   0.62430   0.92830   0.01267  Uiso   1.00
N44    N     0.75490   0.87880   0.25590   0.01267  Uiso   1.00
N45    N     0.91860   0.27830   0.27830   0.01267  Uiso   1.00
N46    N     0.37350   0.07170   0.37570   0.01267  Uiso   1.00
N47    N     0.45040   0.29185   0.70815   0.01267  Uiso   1.00
N48    N     0.21340   0.22180   0.65210   0.01267  Uiso   1.00
N49    N     0.29360   0.34420   0.07160   0.01267  Uiso   1.00
N50    N     0.12760   0.87590   0.80170   0.01267  Uiso   1.00
N51    N     0.58240   0.26380   0.73620   0.01267  Uiso   1.00
N52    N     0.62650   0.30400   0.92830   0.01267  Uiso   1.00
N53    N     0.91860   0.72170   0.00000   0.01267  Uiso   1.00
N54    N     0.95080   0.41430   0.20715   0.01267  Uiso   1.00
N55    N     0.41840   0.22090   0.22090   0.01267  Uiso   1.00
N56    N     0.95080   0.20715   0.79285   0.01267  Uiso   1.00
N57    N     0.24680   0.37530   0.62470   0.01267  Uiso   1.00
N58    N     0.12760   0.92580   0.12410   0.01267  Uiso   1.00
N59    N     0.37350   0.92830   0.30400   0.01267  Uiso   1.00
N60    N     0.71050   0.27630   0.42860   0.01267  Uiso   1.00
N61    N     0.28950   0.42860   0.27630   0.01267  Uiso   1.00
N62    N     0.87240   0.12410   0.19830   0.01267  Uiso   1.00
N63    N     0.62650   0.92830   0.30400   0.01267  Uiso   1.00
N64    N     0.75490   0.25590   0.87880   0.01267  Uiso   1.00
N65    N     0.37350   0.30400   0.37570   0.01267  Uiso   1.00
N66    N     0.58160   0.00000   0.22090   0.01267  Uiso   1.00
N67    N     0.54960   0.41630   0.70815   0.01267  Uiso   1.00
N68    N     0.70640   0.34420   0.27260   0.01267  Uiso   1.00
N69    N     0.12760   0.87590   0.07420   0.01267  Uiso   1.00
N70    N     0.75490   0.37710   0.12120   0.01267  Uiso   1.00
N71    N     0.20830   0.92770   0.15430   0.01267  Uiso   1.00
N72    N     0.71050   0.27630   0.84770   0.01267  Uiso   1.00
N73    N     0.50000   0.74940   0.74940   0.01267  Uiso   1.00
N74    N     0.78660   0.77820   0.34790   0.01267  Uiso   1.00
N75    N     0.45040   0.41630   0.70815   0.01267  Uiso   1.00
N76    N     0.29360   0.27260   0.34420   0.01267  Uiso   1.00
N77    N     0.79170   0.07230   0.84570   0.01267  Uiso   1.00
N78    N     0.75320   0.62470   0.37530   0.01267  Uiso   1.00
N79    N     0.21340   0.34790   0.77820   0.01267  Uiso   1.00
N80    N     0.87240   0.12410   0.92580   0.01267  Uiso   1.00
N81    N     0.91880   0.76505   0.23495   0.01267  Uiso   1.00
N82    N     0.79170   0.77340   0.84570   0.01267  Uiso   1.00
N83    N     0.28950   0.72370   0.15230   0.01267  Uiso   1.00
N84    N     0.20830   0.22660   0.15430   0.01267  Uiso   1.00
N85    N     0.24680   0.62470   0.24940   0.01267  Uiso   1.00
N86    N     0.54960   0.58370   0.29185   0.01267  Uiso   1.00
N87    N     0.28950   0.84770   0.57140   0.01267  Uiso   1.00
N88    N     0.04920   0.41430   0.20715   0.01267  Uiso   1.00
N89    N     0.78660   0.77820   0.43030   0.01267  Uiso   1.00
N90    N     0.08140   0.27830   0.00000   0.01267  Uiso   1.00
N91    N     0.91860   0.00000   0.27830   0.01267  Uiso   1.00
N92    N     0.28950   0.15230   0.72370   0.01267  Uiso   1.00
N93    N     0.24510   0.37710   0.12120   0.01267  Uiso   1.00
N94    N     0.62650   0.62430   0.69600   0.01267  Uiso   1.00
N95    N     0.37350   0.30400   0.92830   0.01267  Uiso   1.00
N96    N     0.95080   0.20715   0.41430   0.01267  Uiso   1.00
N97    N     0.75490   0.12120   0.74410   0.01267  Uiso   1.00
N98    N     0.71050   0.57140   0.72370   0.01267  Uiso   1.00
N99    N     0.87240   0.07420   0.19830   0.01267  Uiso   1.00
N100   N     0.21340   0.43030   0.77820   0.01267  Uiso   1.00
N101   N     0.21340   0.22180   0.56970   0.01267  Uiso   1.00
N102   N     0.00000   0.00000   0.25050   0.01267  Uiso   1.00
N103   N     0.28950   0.84770   0.27630   0.01267  Uiso   1.00
N104   N     0.28950   0.57140   0.84770   0.01267  Uiso   1.00
N105   N     0.21340   0.34790   0.56970   0.01267  Uiso   1.00
N106   N     0.62650   0.69600   0.62430   0.01267  Uiso   1.00
N107   N     0.62650   0.92830   0.62430   0.01267  Uiso   1.00
N108   N     0.20830   0.22660   0.07230   0.01267  Uiso   1.00
N109   N     0.00000   0.00000   0.74950   0.01267  Uiso   1.00
N110   N     0.50000   0.25060   0.00000   0.01267  Uiso   1.00
N111   N     0.75490   0.74410   0.62290   0.01267  Uiso   1.00
N112   N     0.70640   0.92840   0.65580   0.01267  Uiso   1.00
N113   N     0.50000   0.00000   0.74940   0.01267  Uiso   1.00
N114   N     0.41760   0.26380   0.52760   0.01267  Uiso   1.00
N115   N     0.20830   0.77340   0.92770   0.01267  Uiso   1.00
N116   N     0.12760   0.19830   0.07420   0.01267  Uiso   1.00
N117   N     0.75320   0.37530   0.62470   0.01267  Uiso   1.00
N118   N     0.08120   0.23495   0.76505   0.01267  Uiso   1.00
N119   N     0.78660   0.43030   0.77820   0.01267  Uiso   1.00
N120   N     0.75320   0.75060   0.37530   0.01267  Uiso   1.00
N121   N     0.21340   0.56970   0.22180   0.01267  Uiso   1.00
N122   N     0.24510   0.12120   0.37710   0.01267  Uiso   1.00
N123   N     0.08140   0.00000   0.27830   0.01267  Uiso   1.00
N124   N     0.24510   0.87880   0.62290   0.01267  Uiso   1.00
N125   N     0.00000   0.74950   0.00000   0.01267  Uiso   1.00
N126   N     0.78660   0.56970   0.34790   0.01267  Uiso   1.00
N127   N     0.87240   0.19830   0.12410   0.01267  Uiso   1.00
N128   N     0.58240   0.26380   0.52760   0.01267  Uiso   1.00
N129   N     0.28950   0.57140   0.72370   0.01267  Uiso   1.00
N130   N     0.29360   0.92840   0.65580   0.01267  Uiso   1.00
N131   N     0.95080   0.58570   0.79285   0.01267  Uiso   1.00
N132   N     0.24510   0.74410   0.62290   0.01267  Uiso   1.00
N133   N     0.79170   0.92770   0.15430   0.01267  Uiso   1.00
N134   N     0.37350   0.62430   0.69600   0.01267  Uiso   1.00
N135   N     0.37350   0.07170   0.69600   0.01267  Uiso   1.00
N136   N     0.28950   0.72370   0.57140   0.01267  Uiso   1.00
N137   N     0.24510   0.62290   0.74410   0.01267  Uiso   1.00
N138   N     0.54960   0.29185   0.70815   0.01267  Uiso   1.00
N139   N     0.12760   0.12410   0.92580   0.01267  Uiso   1.00
N140   N     0.12760   0.12410   0.19830   0.01267  Uiso   1.00
N141   N     0.12760   0.80170   0.92580   0.01267  Uiso   1.00
N142   N     0.79170   0.07230   0.22660   0.01267  Uiso   1.00
N143   N     0.70640   0.34420   0.07160   0.01267  Uiso   1.00
N144   N     0.91860  -0.00000   0.72170   0.01267  Uiso   1.00
N145   N     0.29360   0.27260   0.92840   0.01267  Uiso   1.00
N146   N     0.71050   0.15230   0.72370   0.01267  Uiso   1.00
N147   N     0.24510   0.62290   0.87880   0.01267  Uiso   1.00
N148   N     0.71050   0.84770   0.57140   0.01267  Uiso   1.00
N149   N     0.87240   0.07420   0.87590   0.01267  Uiso   1.00
N150   N     0.62650   0.62430   0.92830   0.01267  Uiso   1.00
N151   N     0.41760   0.52760   0.26380   0.01267  Uiso   1.00
N152   N     0.78660   0.56970   0.22180   0.01267  Uiso   1.00
N153   N     0.37350   0.69600   0.07170   0.01267  Uiso   1.00
N154   N     0.91880   0.23495   0.46990   0.01267  Uiso   1.00
N155   N     0.41760   0.26380   0.73620   0.01267  Uiso   1.00
N156   N     0.79170   0.92770   0.77340   0.01267  Uiso   1.00
N157   N     0.87240   0.87590   0.07420   0.01267  Uiso   1.00
N158   N     0.08120   0.76505   0.53010   0.01267  Uiso   1.00
N159   N     0.91860   0.72170   0.72170   0.01267  Uiso   1.00
N160   N     0.58240   0.47240   0.73620   0.01267  Uiso   1.00
N161   N     0.28950   0.27630   0.84770   0.01267  Uiso   1.00
N162   N     0.75490   0.62290   0.74410   0.01267  Uiso   1.00
N163   N     0.08120   0.76505   0.23495   0.01267  Uiso   1.00
N164   N     0.45040   0.70815   0.29185   0.01267  Uiso   1.00
N165   N     0.75490   0.37710   0.25590   0.01267  Uiso   1.00
N166   N     0.71050   0.42860   0.27630   0.01267  Uiso   1.00
N167   N     0.87240   0.92580   0.80170   0.01267  Uiso   1.00
N168   N     0.70640   0.27260   0.34420   0.01267  Uiso   1.00
N169   N     0.87240   0.87590   0.80170   0.01267  Uiso   1.00
N170   N     0.54960   0.29185   0.58370   0.01267  Uiso   1.00
N171   N     0.41760   0.73620   0.26380   0.01267  Uiso   1.00
N172   N     0.91880   0.76505   0.53010   0.01267  Uiso   1.00
N173   N     0.87240   0.92580   0.12410   0.01267  Uiso   1.00
N174   N     0.78660   0.65210   0.22180   0.01267  Uiso   1.00
N175   N     0.08120   0.23495   0.46990   0.01267  Uiso   1.00
N176   N     0.21340   0.77820   0.34790   0.01267  Uiso   1.00
N177   N     0.70640   0.27260   0.92840   0.01267  Uiso   1.00
N178   N     0.08140  -0.00000   0.72170   0.01267  Uiso   1.00
N179   N     0.28950   0.27630   0.42860   0.01267  Uiso   1.00
N180   N     0.58160   0.22090   0.22090   0.01267  Uiso   1.00
N181   N     0.24510   0.74410   0.12120   0.01267  Uiso   1.00
N182   N     0.37350   0.92830   0.62430   0.01267  Uiso   1.00
N183   N     0.70640   0.65580   0.72740   0.01267  Uiso   1.00
N184   N     0.75320   0.37530   0.75060   0.01267  Uiso   1.00
N185   N     0.58240   0.52760   0.26380   0.01267  Uiso   1.00
N186   N     0.24510   0.25590   0.37710   0.01267  Uiso   1.00
N187   N     0.71050   0.72370   0.15230   0.01267  Uiso   1.00
N188   N     0.70640   0.72740   0.07160   0.01267  Uiso   1.00
N189   N     0.29360   0.92840   0.27260   0.01267  Uiso   1.00
N190   N     0.75320   0.24940   0.62470   0.01267  Uiso   1.00
N191   N     0.62650   0.69600   0.07170   0.01267  Uiso   1.00
N192   N     0.12760   0.92580   0.80170   0.01267  Uiso   1.00
N193   N     0.50000   0.25060   0.25060   0.01267  Uiso   1.00
N194   N     0.71050   0.72370   0.57140   0.01267  Uiso   1.00
N195   N     0.70640   0.07160   0.72740   0.01267  Uiso   1.00
N196   N     0.58160   0.77910   0.00000   0.01267  Uiso   1.00
N197   N     0.78660   0.65210   0.43030   0.01267  Uiso   1.00
N198   N     0.75490   0.12120   0.37710   0.01267  Uiso   1.00
N199   N     0.21340   0.77820   0.43030   0.01267  Uiso   1.00
N200   N     0.41840   0.77910   0.00000   0.01267  Uiso   1.00
N201   N     0.24510   0.12120   0.74410   0.01267  Uiso   1.00
N202   N     0.70640   0.65580   0.92840   0.01267  Uiso   1.00
N203   N     0.71050   0.42860   0.15230   0.01267  Uiso   1.00
N204   N     0.24510   0.25590   0.87880   0.01267  Uiso   1.00
N205   N     0.58240   0.73620   0.26380   0.01267  Uiso   1.00
N206   N     0.37350   0.37570   0.30400   0.01267  Uiso   1.00
N207   N     0.12760   0.19830   0.12410   0.01267  Uiso   1.00
N208   N     0.62650   0.07170   0.69600   0.01267  Uiso   1.00
N209   N     0.37350   0.37570   0.07170   0.01267  Uiso   1.00
N210   N     0.78660   0.34790   0.77820   0.01267  Uiso   1.00
N211   N     0.04920   0.58570   0.79285   0.01267  Uiso   1.00
N212   N     0.29360   0.07160   0.34420   0.01267  Uiso   1.00
N213   N     0.04920   0.20715   0.79285   0.01267  Uiso   1.00
N214   N     0.21340   0.65210   0.43030   0.01267  Uiso   1.00
N215   N     0.29360   0.07160   0.72740   0.01267  Uiso   1.00
N216   N     0.41760   0.47240   0.73620   0.01267  Uiso   1.00
N217   N     0.45040   0.70815   0.41630   0.01267  Uiso   1.00
N218   N     0.21340   0.43030   0.65210   0.01267  Uiso   1.00
N219   N     0.41840  -0.00000   0.77910   0.01267  Uiso   1.00
N220   N     0.29360   0.72740   0.07160   0.01267  Uiso   1.00
N221   N     0.24680   0.75060   0.37530   0.01267  Uiso   1.00
N222   N     0.75490   0.74410   0.12120   0.01267  Uiso   1.00
N223   N     0.12760   0.07420   0.87590   0.01267  Uiso   1.00
N224   N     0.08120   0.46990   0.23495   0.01267  Uiso   1.00
N225   N     0.08140   0.72170   0.72170   0.01267  Uiso   1.00
N226   N     0.71050   0.15230   0.42860   0.01267  Uiso   1.00
N227   N     0.78660   0.34790   0.56970   0.01267  Uiso   1.00
N228   N     0.87240   0.80170   0.92580   0.01267  Uiso   1.00
N229   N     0.54960   0.70815   0.41630   0.01267  Uiso   1.00
N230   N     0.08140   0.72170   0.00000   0.01267  Uiso   1.00
N231   N     0.50000   0.00000   0.25060   0.01267  Uiso   1.00
N232   N     0.20830   0.15430   0.22660   0.01267  Uiso   1.00
N233   N     0.91880   0.46990   0.23495   0.01267  Uiso   1.00
N234   N     0.08120   0.53010   0.76505   0.01267  Uiso   1.00
N235   N     0.41840   0.77910   0.77910   0.01267  Uiso   1.00
N236   N     0.78660   0.43030   0.65210   0.01267  Uiso   1.00
N237   N     0.79170   0.15430   0.92770   0.01267  Uiso   1.00
N238   N     0.08140   0.27830   0.27830   0.01267  Uiso   1.00
N239   N     0.62650   0.37570   0.30400   0.01267  Uiso   1.00
N240   N     0.29360   0.72740   0.65580   0.01267  Uiso   1.00
N241   N     0.58160   0.77910   0.77910   0.01267  Uiso   1.00
N242   N     0.78660   0.22180   0.56970   0.01267  Uiso   1.00
N243   N     0.75490   0.62290   0.87880   0.01267  Uiso   1.00
N244   N     0.45040   0.29185   0.58370   0.01267  Uiso   1.00
N245   N     0.00000   0.25050   0.00000   0.01267  Uiso   1.00
N246   N     0.75490   0.25590   0.37710   0.01267  Uiso   1.00
N247   N     0.62650   0.37570   0.07170   0.01267  Uiso   1.00
N248   N     0.71050   0.57140   0.84770   0.01267  Uiso   1.00
N249   N     0.79170   0.77340   0.92770   0.01267  Uiso   1.00
N250   N     0.50000   0.74940   0.00000   0.01267  Uiso   1.00
N251   N     0.24680   0.37530   0.75060   0.01267  Uiso   1.00
N252   N     0.70640   0.07160   0.34420   0.01267  Uiso   1.00
N253   N     0.20830   0.84570   0.07230   0.01267  Uiso   1.00
N254   N     0.20830   0.15430   0.92770   0.01267  Uiso   1.00
N255   N     0.91880   0.23495   0.76505   0.01267  Uiso   1.00
N256   N     0.45040   0.58370   0.29185   0.01267  Uiso   1.00
N257   N     0.12760   0.07420   0.19830   0.01267  Uiso   1.00
N258   N     0.41840   0.00000   0.22090   0.01267  Uiso   1.00
N259   N     0.79170   0.15430   0.22660   0.01267  Uiso   1.00
N260   N     0.24510   0.37710   0.25590   0.01267  Uiso   1.00
N261   N     0.70640   0.72740   0.65580   0.01267  Uiso   1.00
N262   N     0.58160   0.22090   0.00000   0.01267  Uiso   1.00
N263   N     0.28950   0.15230   0.42860   0.01267  Uiso   1.00
N264   N     0.95080   0.79285   0.20715   0.01267  Uiso   1.00
O1     O     0.50000   0.43100   0.43100   0.01267  Uiso   1.00
O2     O     0.50000   0.56900   0.00000   0.01267  Uiso   1.00
O3     O     0.00000   0.00000   0.93200   0.01267  Uiso   1.00
O4     O     0.50000   0.00000   0.43100   0.01267  Uiso   1.00
O5     O     0.00000   0.93200   0.93200   0.01267  Uiso   1.00
O6     O     0.50000   0.56900   0.56900   0.01267  Uiso   1.00
O7     O     0.00000   0.06800   0.00000   0.01267  Uiso   1.00
O8     O     0.50000   0.00000   0.56900   0.01267  Uiso   1.00
O9     O     0.50000   0.43100  -0.00000   0.01267  Uiso   1.00
O10    O     0.00000   0.93200   0.00000   0.01267  Uiso   1.00
O11    O     0.00000   0.00000   0.06800   0.01267  Uiso   1.00
O12    O     0.00000   0.06800   0.06800   0.01267  Uiso   1.00
