data_ic060771psi20060614_113937_freeONLY
_audit_creation_date              2015-08-19
_audit_creation_method            'Materials Studio'
_symmetry_space_group_name_H-M    'P1'
_symmetry_Int_Tables_number       1
_symmetry_cell_setting            triclinic
loop_
_symmetry_equiv_pos_as_xyz
  x,y,z
_cell_length_a                    7.0479
_cell_length_b                    15.3070
_cell_length_c                    17.5370
_cell_angle_alpha                 90.0000
_cell_angle_beta                  90.0000
_cell_angle_gamma                 90.0000
loop_
_atom_site_label
_atom_site_type_symbol
_atom_site_fract_x
_atom_site_fract_y
_atom_site_fract_z
_atom_site_U_iso_or_equiv
_atom_site_adp_type
_atom_site_occupancy
V1     V     0.75449   0.25000   0.75000   0.01267  Uiso   1.00
V2     V     0.25449   0.25000   0.25000   0.01267  Uiso   1.00
V3     V     0.50000   0.00000   0.50000   0.01267  Uiso   1.00
V4     V     0.74551   0.75000   0.75000   0.01267  Uiso   1.00
V5     V     0.00000   0.50000   0.00000   0.01267  Uiso   1.00
V6     V     0.50000   0.50000   0.00000   0.01267  Uiso   1.00
V7     V     0.24551   0.75000   0.25000   0.01267  Uiso   1.00
V8     V     0.00000   0.00000   0.50000   0.01267  Uiso   1.00
P1     P     0.24458   0.63521   0.09954   0.01267  Uiso   1.00
P2     P     0.75542   0.36479   0.90046   0.01267  Uiso   1.00
P3     P     0.24458   0.86479   0.40046   0.01267  Uiso   1.00
P4     P     0.25542   0.36479   0.09954   0.01267  Uiso   1.00
P5     P     0.74458   0.86479   0.59954   0.01267  Uiso   1.00
P6     P     0.74458   0.63521   0.90046   0.01267  Uiso   1.00
P7     P     0.25542   0.13521   0.40046   0.01267  Uiso   1.00
P8     P     0.75542   0.13521   0.59954   0.01267  Uiso   1.00
H1     H     0.55110   0.24990   0.57770   0.01267  Uiso   1.00
H2     H     0.94890   0.75010   0.57770   0.01267  Uiso   1.00
H3     H     0.66300   0.23100   0.28800   0.01267  Uiso   1.00
H4     H     0.25000   0.50000   0.90400   0.01267  Uiso   1.00
H5     H     0.05110   0.24990   0.42230   0.01267  Uiso   1.00
H6     H     0.66300   0.26900   0.21200   0.01267  Uiso   1.00
H7     H     0.75000   0.50000   0.09600   0.01267  Uiso   1.00
H8     H     0.31450   0.76230   0.49240   0.01267  Uiso   1.00
H9     H     0.75000   0.00000   0.40400   0.01267  Uiso   1.00
H10    H     0.68550   0.26230   0.99240   0.01267  Uiso   1.00
H11    H     0.94890   0.74990   0.92230   0.01267  Uiso   1.00
H12    H     0.16300   0.23100   0.71200   0.01267  Uiso   1.00
H13    H     0.33700   0.76900   0.71200   0.01267  Uiso   1.00
H14    H     0.05110   0.25010   0.07770   0.01267  Uiso   1.00
H15    H     0.81450   0.76230   0.50760   0.01267  Uiso   1.00
H16    H     0.18550   0.26230   0.00760   0.01267  Uiso   1.00
H17    H     0.83700   0.73100   0.21200   0.01267  Uiso   1.00
H18    H     0.81450   0.73770   0.99240   0.01267  Uiso   1.00
H19    H     0.44890   0.74990   0.07770   0.01267  Uiso   1.00
H20    H     0.31450   0.73770   0.00760   0.01267  Uiso   1.00
H21    H     0.68550   0.23770   0.50760   0.01267  Uiso   1.00
H22    H     0.55110   0.25010   0.92230   0.01267  Uiso   1.00
H23    H     0.44890   0.75010   0.42230   0.01267  Uiso   1.00
H24    H     0.16300   0.26900   0.78800   0.01267  Uiso   1.00
H25    H     0.33700   0.73100   0.78800   0.01267  Uiso   1.00
H26    H     0.83700   0.76900   0.28800   0.01267  Uiso   1.00
H27    H     0.18550   0.23770   0.49240   0.01267  Uiso   1.00
H28    H     0.25000   0.00000   0.59600   0.01267  Uiso   1.00
C1     C     0.79800   0.31700   0.58850   0.01267  Uiso   1.00
C2     C     0.70200   0.68300   0.58850   0.01267  Uiso   1.00
C3     C     0.70200   0.81700   0.91150   0.01267  Uiso   1.00
C4     C     0.29800   0.31700   0.41150   0.01267  Uiso   1.00
C5     C     0.29800   0.18300   0.08850   0.01267  Uiso   1.00
C6     C     0.18190   0.24010   0.43720   0.01267  Uiso   1.00
C7     C     0.31810   0.75990   0.43720   0.01267  Uiso   1.00
C8     C     0.18190   0.25990   0.06280   0.01267  Uiso   1.00
C9     C     0.20200   0.68300   0.41150   0.01267  Uiso   1.00
C10    C     0.81810   0.75990   0.56280   0.01267  Uiso   1.00
C11    C     0.31810   0.74010   0.06280   0.01267  Uiso   1.00
C12    C     0.81810   0.74010   0.93720   0.01267  Uiso   1.00
C13    C     0.68190   0.25990   0.93720   0.01267  Uiso   1.00
C14    C     0.68190   0.24010   0.56280   0.01267  Uiso   1.00
C15    C     0.79800   0.18300   0.91150   0.01267  Uiso   1.00
C16    C     0.20200   0.81700   0.08850   0.01267  Uiso   1.00
O1     O     0.56620   0.89253   0.55623   0.01267  Uiso   1.00
O2     O     0.79900   0.35381   0.81612   0.01267  Uiso   1.00
O3     O     0.25000   0.50000   0.95710   0.01267  Uiso   1.00
O4     O     0.02740   0.25000   0.25000   0.01267  Uiso   1.00
O5     O     0.93380   0.10747   0.55623   0.01267  Uiso   1.00
O6     O     0.56620   0.60747   0.94377   0.01267  Uiso   1.00
O7     O     0.47260   0.75000   0.25000   0.01267  Uiso   1.00
O8     O     0.68780   0.66990   0.66150   0.01267  Uiso   1.00
O9     O     0.91810   0.75000   0.25000   0.01267  Uiso   1.00
O10    O     0.41810   0.75000   0.75000   0.01267  Uiso   1.00
O11    O     0.87280   0.13410   0.95750   0.01267  Uiso   1.00
O12    O     0.31220   0.16990   0.16150   0.01267  Uiso   1.00
O13    O     0.87280   0.36590   0.54250   0.01267  Uiso   1.00
O14    O     0.37280   0.36590   0.45750   0.01267  Uiso   1.00
O15    O     0.70100   0.85381   0.68388   0.01267  Uiso   1.00
O16    O     0.08190   0.25000   0.75000   0.01267  Uiso   1.00
O17    O     0.29900   0.35381   0.18388   0.01267  Uiso   1.00
O18    O     0.93380   0.39253   0.94377   0.01267  Uiso   1.00
O19    O     0.29900   0.14619   0.31612   0.01267  Uiso   1.00
O20    O     0.20100   0.64619   0.18388   0.01267  Uiso   1.00
O21    O     0.81220   0.33010   0.66150   0.01267  Uiso   1.00
O22    O     0.43380   0.10747   0.44377   0.01267  Uiso   1.00
O23    O     0.12720   0.86590   0.04250   0.01267  Uiso   1.00
O24    O     0.79900   0.14619   0.68388   0.01267  Uiso   1.00
O25    O     0.68780   0.83010   0.83850   0.01267  Uiso   1.00
O26    O     0.20100   0.85381   0.31612   0.01267  Uiso   1.00
O27    O     0.37280   0.13410   0.04250   0.01267  Uiso   1.00
O28    O     0.12720   0.63410   0.45750   0.01267  Uiso   1.00
O29    O     0.62720   0.86590   0.95750   0.01267  Uiso   1.00
O30    O     0.59020   0.07294   0.58627   0.01267  Uiso   1.00
O31    O     0.40980   0.92706   0.41373   0.01267  Uiso   1.00
O32    O     0.25000   0.00000   0.54290   0.01267  Uiso   1.00
O33    O     0.58190   0.25000   0.25000   0.01267  Uiso   1.00
O34    O     0.06620   0.60747   0.05623   0.01267  Uiso   1.00
O35    O     0.75000   0.00000   0.45710   0.01267  Uiso   1.00
O36    O     0.40980   0.57294   0.08627   0.01267  Uiso   1.00
O37    O     0.97260   0.75000   0.75000   0.01267  Uiso   1.00
O38    O     0.18780   0.66990   0.33850   0.01267  Uiso   1.00
O39    O     0.70100   0.64619   0.81612   0.01267  Uiso   1.00
O40    O     0.59020   0.42706   0.91373   0.01267  Uiso   1.00
O41    O     0.90980   0.57294   0.91373   0.01267  Uiso   1.00
O42    O     0.09020   0.42706   0.08627   0.01267  Uiso   1.00
O43    O     0.52740   0.25000   0.75000   0.01267  Uiso   1.00
O44    O     0.31220   0.33010   0.33850   0.01267  Uiso   1.00
O45    O     0.06620   0.89253   0.44377   0.01267  Uiso   1.00
O46    O     0.09020   0.07294   0.41373   0.01267  Uiso   1.00
O47    O     0.75000   0.50000   0.04290   0.01267  Uiso   1.00
O48    O     0.81220   0.16990   0.83850   0.01267  Uiso   1.00
O49    O     0.90980   0.92706   0.58627   0.01267  Uiso   1.00
O50    O     0.18780   0.83010   0.16150   0.01267  Uiso   1.00
O51    O     0.43380   0.39253   0.05623   0.01267  Uiso   1.00
O52    O     0.62720   0.63410   0.54250   0.01267  Uiso   1.00
