data_ic100188w_si_002_freeONLY
_audit_creation_date              2015-08-19
_audit_creation_method            'Materials Studio'
_symmetry_space_group_name_H-M    'P1'
_symmetry_Int_Tables_number       1
_symmetry_cell_setting            triclinic
loop_
_symmetry_equiv_pos_as_xyz
  x,y,z
_cell_length_a                    15.3210
_cell_length_b                    15.3210
_cell_length_c                    15.3210
_cell_angle_alpha                 105.1970
_cell_angle_beta                  105.1970
_cell_angle_gamma                 105.1970
loop_
_atom_site_label
_atom_site_type_symbol
_atom_site_fract_x
_atom_site_fract_y
_atom_site_fract_z
_atom_site_U_iso_or_equiv
_atom_site_adp_type
_atom_site_occupancy
Ni1    Ni    0.20899   0.42544   0.87317   0.01267  Uiso   1.00
Ni2    Ni    0.07456   0.29101   0.62683   0.01267  Uiso   1.00
Ni3    Ni    0.87317   0.20899   0.42544   0.01267  Uiso   1.00
Ni4    Ni    0.79101   0.57456   0.12683   0.01267  Uiso   1.00
Ni5    Ni    0.92544   0.70899   0.37317   0.01267  Uiso   1.00
Ni6    Ni    0.57456   0.12683   0.79101   0.01267  Uiso   1.00
Ni7    Ni    0.12683   0.79101   0.57456   0.01267  Uiso   1.00
Ni8    Ni    0.70899   0.37317   0.92544   0.01267  Uiso   1.00
Ni9    Ni    0.29101   0.62683   0.07456   0.01267  Uiso   1.00
Ni10   Ni    0.37317   0.92544   0.70899   0.01267  Uiso   1.00
Ni11   Ni    0.42544   0.87317   0.20899   0.01267  Uiso   1.00
Ni12   Ni    0.62683   0.07456   0.29101   0.01267  Uiso   1.00
H1     H     0.17010   0.14020   0.54750   0.01267  Uiso   1.00
H2     H     0.04910   0.07940   0.79580   0.01267  Uiso   1.00
H3     H     0.79580   0.04910   0.07940   0.01267  Uiso   1.00
H4     H     0.87460   0.13010   0.84420   0.01267  Uiso   1.00
H5     H     0.15580   0.12540   0.86990   0.01267  Uiso   1.00
H6     H     0.57940   0.54910   0.29580   0.01267  Uiso   1.00
H7     H     0.54750   0.17010   0.14020   0.01267  Uiso   1.00
H8     H     0.36990   0.62540   0.65580   0.01267  Uiso   1.00
H9     H     0.32990   0.95250   0.35980   0.01267  Uiso   1.00
H10    H     0.62540   0.65580   0.36990   0.01267  Uiso   1.00
H11    H     0.42060   0.45090   0.70420   0.01267  Uiso   1.00
H12    H     0.04750   0.64020   0.67010   0.01267  Uiso   1.00
H13    H     0.86990   0.15580   0.12540   0.01267  Uiso   1.00
H14    H     0.85980   0.45250   0.82990   0.01267  Uiso   1.00
H15    H     0.12540   0.86990   0.15580   0.01267  Uiso   1.00
H16    H     0.35980   0.32990   0.95250   0.01267  Uiso   1.00
H17    H     0.92060   0.20420   0.95090   0.01267  Uiso   1.00
H18    H     0.37460   0.34420   0.63010   0.01267  Uiso   1.00
H19    H     0.95090   0.92060   0.20420   0.01267  Uiso   1.00
H20    H     0.54910   0.29580   0.57940   0.01267  Uiso   1.00
H21    H     0.65580   0.36990   0.62540   0.01267  Uiso   1.00
H22    H     0.29580   0.57940   0.54910   0.01267  Uiso   1.00
H23    H     0.07940   0.79580   0.04910   0.01267  Uiso   1.00
H24    H     0.63010   0.37460   0.34420   0.01267  Uiso   1.00
H25    H     0.45250   0.82990   0.85980   0.01267  Uiso   1.00
H26    H     0.45090   0.70420   0.42060   0.01267  Uiso   1.00
H27    H     0.64020   0.67010   0.04750   0.01267  Uiso   1.00
H28    H     0.34420   0.63010   0.37460   0.01267  Uiso   1.00
H29    H     0.70420   0.42060   0.45090   0.01267  Uiso   1.00
H30    H     0.13010   0.84420   0.87460   0.01267  Uiso   1.00
H31    H     0.20420   0.95090   0.92060   0.01267  Uiso   1.00
H32    H     0.82990   0.85980   0.45250   0.01267  Uiso   1.00
H33    H     0.95250   0.35980   0.32990   0.01267  Uiso   1.00
H34    H     0.84420   0.87460   0.13010   0.01267  Uiso   1.00
H35    H     0.14020   0.54750   0.17010   0.01267  Uiso   1.00
H36    H     0.67010   0.04750   0.64020   0.01267  Uiso   1.00
C1     C     0.87361   0.79357   0.21601   0.01267  Uiso   1.00
C2     C     0.95862   0.62602   0.04380   0.01267  Uiso   1.00
C3     C     0.12639   0.20643   0.78399   0.01267  Uiso   1.00
C4     C     0.10778   0.11908   0.50272   0.01267  Uiso   1.00
C5     C     0.45862   0.54380   0.12602   0.01267  Uiso   1.00
C6     C     0.38912   0.38416   0.69649   0.01267  Uiso   1.00
C7     C     0.80351   0.11584   0.11088   0.01267  Uiso   1.00
C8     C     0.29357   0.37361   0.71601   0.01267  Uiso   1.00
C9     C     0.11908   0.50272   0.10778   0.01267  Uiso   1.00
C10    C     0.79357   0.21601   0.87361   0.01267  Uiso   1.00
C11    C     0.11088   0.80351   0.11584   0.01267  Uiso   1.00
C12    C     0.50272   0.10778   0.11908   0.01267  Uiso   1.00
C13    C     0.49728   0.89222   0.88092   0.01267  Uiso   1.00
C14    C     0.60778   0.00272   0.61908   0.01267  Uiso   1.00
C15    C     0.12602   0.45862   0.54380   0.01267  Uiso   1.00
C16    C     0.88092   0.49728   0.89222   0.01267  Uiso   1.00
C17    C     0.30351   0.61088   0.61584   0.01267  Uiso   1.00
C18    C     0.89222   0.88092   0.49728   0.01267  Uiso   1.00
C19    C     0.88912   0.19649   0.88416   0.01267  Uiso   1.00
C20    C     0.11584   0.11088   0.80351   0.01267  Uiso   1.00
C21    C     0.00272   0.61908   0.60778   0.01267  Uiso   1.00
C22    C     0.69649   0.38912   0.38416   0.01267  Uiso   1.00
C23    C     0.61088   0.61584   0.30351   0.01267  Uiso   1.00
C24    C     0.61908   0.60778   0.00272   0.01267  Uiso   1.00
C25    C     0.21601   0.87361   0.79357   0.01267  Uiso   1.00
C26    C     0.62602   0.04380   0.95862   0.01267  Uiso   1.00
C27    C     0.87398   0.54138   0.45620   0.01267  Uiso   1.00
C28    C     0.62639   0.28399   0.70643   0.01267  Uiso   1.00
C29    C     0.71601   0.29357   0.37361   0.01267  Uiso   1.00
C30    C     0.54380   0.12602   0.45862   0.01267  Uiso   1.00
C31    C     0.38092   0.39222   0.99728   0.01267  Uiso   1.00
C32    C     0.45620   0.87398   0.54138   0.01267  Uiso   1.00
C33    C     0.19649   0.88416   0.88912   0.01267  Uiso   1.00
C34    C     0.70643   0.62639   0.28399   0.01267  Uiso   1.00
C35    C     0.04380   0.95862   0.62602   0.01267  Uiso   1.00
C36    C     0.04138   0.37398   0.95620   0.01267  Uiso   1.00
C37    C     0.78399   0.12639   0.20643   0.01267  Uiso   1.00
C38    C     0.39222   0.99728   0.38092   0.01267  Uiso   1.00
C39    C     0.37398   0.95620   0.04138   0.01267  Uiso   1.00
C40    C     0.38416   0.69649   0.38912   0.01267  Uiso   1.00
C41    C     0.37361   0.71601   0.29357   0.01267  Uiso   1.00
C42    C     0.61584   0.30351   0.61088   0.01267  Uiso   1.00
C43    C     0.99728   0.38092   0.39222   0.01267  Uiso   1.00
C44    C     0.88416   0.88912   0.19649   0.01267  Uiso   1.00
C45    C     0.20643   0.78399   0.12639   0.01267  Uiso   1.00
C46    C     0.54138   0.45620   0.87398   0.01267  Uiso   1.00
C47    C     0.95620   0.04138   0.37398   0.01267  Uiso   1.00
C48    C     0.28399   0.70643   0.62639   0.01267  Uiso   1.00
S1     S     0.98912   0.59180   0.94213   0.01267  Uiso   1.00
S2     S     0.15073   0.02951   0.72297   0.01267  Uiso   1.00
S3     S     0.72297   0.15073   0.02951   0.01267  Uiso   1.00
S4     S     0.52951   0.65073   0.22297   0.01267  Uiso   1.00
S5     S     0.34927   0.77703   0.47049   0.01267  Uiso   1.00
S6     S     0.09180   0.48912   0.44213   0.01267  Uiso   1.00
S7     S     0.77703   0.47049   0.34927   0.01267  Uiso   1.00
S8     S     0.51088   0.55787   0.90820   0.01267  Uiso   1.00
S9     S     0.84927   0.97049   0.27703   0.01267  Uiso   1.00
S10    S     0.40820   0.05787   0.01088   0.01267  Uiso   1.00
S11    S     0.02951   0.72297   0.15073   0.01267  Uiso   1.00
S12    S     0.90820   0.51088   0.55787   0.01267  Uiso   1.00
S13    S     0.22297   0.52951   0.65073   0.01267  Uiso   1.00
S14    S     0.55787   0.90820   0.51088   0.01267  Uiso   1.00
S15    S     0.48912   0.44213   0.09180   0.01267  Uiso   1.00
S16    S     0.44213   0.09180   0.48912   0.01267  Uiso   1.00
S17    S     0.65073   0.22297   0.52951   0.01267  Uiso   1.00
S18    S     0.05787   0.01088   0.40820   0.01267  Uiso   1.00
S19    S     0.59180   0.94213   0.98912   0.01267  Uiso   1.00
S20    S     0.47049   0.34927   0.77703   0.01267  Uiso   1.00
S21    S     0.94213   0.98912   0.59180   0.01267  Uiso   1.00
S22    S     0.27703   0.84927   0.97049   0.01267  Uiso   1.00
S23    S     0.97049   0.27703   0.84927   0.01267  Uiso   1.00
S24    S     0.01088   0.40820   0.05787   0.01267  Uiso   1.00
N1     N     0.52540   0.75770   0.02910   0.01267  Uiso   1.00
N2     N     0.09751   0.40249   0.75000   0.01267  Uiso   1.00
N3     N     0.70480   0.37680   0.11480   0.01267  Uiso   1.00
N4     N     0.99297   0.33070   0.44822   0.01267  Uiso   1.00
N5     N     0.54855   0.25000   0.95145   0.01267  Uiso   1.00
N6     N     0.87680   0.20480   0.61480   0.01267  Uiso   1.00
N7     N     0.87544   0.56880   0.03666   0.01267  Uiso   1.00
N8     N     0.66930   0.55178   0.00703   0.01267  Uiso   1.00
N9     N     0.65190   0.83220   0.16460   0.01267  Uiso   1.00
N10    N     0.55178   0.00703   0.66930   0.01267  Uiso   1.00
N11    N     0.37544   0.53666   0.06880   0.01267  Uiso   1.00
N12    N     0.00703   0.66930   0.55178   0.01267  Uiso   1.00
N13    N     0.75000   0.04855   0.45145   0.01267  Uiso   1.00
N14    N     0.43120   0.96334   0.12456   0.01267  Uiso   1.00
N15    N     0.29520   0.62320   0.88520   0.01267  Uiso   1.00
N16    N     0.50703   0.05178   0.16930   0.01267  Uiso   1.00
N17    N     0.33070   0.44822   0.99297   0.01267  Uiso   1.00
N18    N     0.42333   0.07667   0.75000   0.01267  Uiso   1.00
N19    N     0.33220   0.15190   0.66460   0.01267  Uiso   1.00
N20    N     0.84810   0.33540   0.66780   0.01267  Uiso   1.00
N21    N     0.44822   0.99297   0.33070   0.01267  Uiso   1.00
N22    N     0.95145   0.54855   0.25000   0.01267  Uiso   1.00
N23    N     0.16460   0.65190   0.83220   0.01267  Uiso   1.00
N24    N     0.20480   0.61480   0.87680   0.01267  Uiso   1.00
N25    N     0.07667   0.75000   0.42333   0.01267  Uiso   1.00
N26    N     0.83540   0.34810   0.16780   0.01267  Uiso   1.00
N27    N     0.59751   0.25000   0.90249   0.01267  Uiso   1.00
N28    N     0.62456   0.46334   0.93120   0.01267  Uiso   1.00
N29    N     0.03666   0.87544   0.56880   0.01267  Uiso   1.00
N30    N     0.25000   0.57667   0.92333   0.01267  Uiso   1.00
N31    N     0.12456   0.43120   0.96334   0.01267  Uiso   1.00
N32    N     0.25000   0.90249   0.59751   0.01267  Uiso   1.00
N33    N     0.06880   0.37544   0.53666   0.01267  Uiso   1.00
N34    N     0.75770   0.02910   0.52540   0.01267  Uiso   1.00
N35    N     0.83220   0.16460   0.65190   0.01267  Uiso   1.00
N36    N     0.49297   0.94822   0.83070   0.01267  Uiso   1.00
N37    N     0.92333   0.25000   0.57667   0.01267  Uiso   1.00
N38    N     0.38520   0.12320   0.79520   0.01267  Uiso   1.00
N39    N     0.88520   0.29520   0.62320   0.01267  Uiso   1.00
N40    N     0.94822   0.83070   0.49297   0.01267  Uiso   1.00
N41    N     0.75000   0.09751   0.40249   0.01267  Uiso   1.00
N42    N     0.66780   0.84810   0.33540   0.01267  Uiso   1.00
N43    N     0.97090   0.47460   0.24230   0.01267  Uiso   1.00
N44    N     0.16780   0.83540   0.34810   0.01267  Uiso   1.00
N45    N     0.74230   0.97460   0.47090   0.01267  Uiso   1.00
N46    N     0.66460   0.33220   0.15190   0.01267  Uiso   1.00
N47    N     0.12320   0.79520   0.38520   0.01267  Uiso   1.00
N48    N     0.83070   0.49297   0.94822   0.01267  Uiso   1.00
N49    N     0.05178   0.16930   0.50703   0.01267  Uiso   1.00
N50    N     0.75000   0.42333   0.07667   0.01267  Uiso   1.00
N51    N     0.53666   0.06880   0.37544   0.01267  Uiso   1.00
N52    N     0.47460   0.24230   0.97090   0.01267  Uiso   1.00
N53    N     0.37680   0.11480   0.70480   0.01267  Uiso   1.00
N54    N     0.11480   0.70480   0.37680   0.01267  Uiso   1.00
N55    N     0.02910   0.52540   0.75770   0.01267  Uiso   1.00
N56    N     0.25000   0.95145   0.54855   0.01267  Uiso   1.00
N57    N     0.93120   0.62456   0.46334   0.01267  Uiso   1.00
N58    N     0.56880   0.03666   0.87544   0.01267  Uiso   1.00
N59    N     0.45145   0.75000   0.04855   0.01267  Uiso   1.00
N60    N     0.16930   0.50703   0.05178   0.01267  Uiso   1.00
N61    N     0.02540   0.52910   0.25770   0.01267  Uiso   1.00
N62    N     0.96334   0.12456   0.43120   0.01267  Uiso   1.00
N63    N     0.79520   0.38520   0.12320   0.01267  Uiso   1.00
N64    N     0.61480   0.87680   0.20480   0.01267  Uiso   1.00
N65    N     0.62320   0.88520   0.29520   0.01267  Uiso   1.00
N66    N     0.34810   0.16780   0.83540   0.01267  Uiso   1.00
N67    N     0.04855   0.45145   0.75000   0.01267  Uiso   1.00
N68    N     0.90249   0.59751   0.25000   0.01267  Uiso   1.00
N69    N     0.40249   0.75000   0.09751   0.01267  Uiso   1.00
N70    N     0.57667   0.92333   0.25000   0.01267  Uiso   1.00
N71    N     0.47090   0.74230   0.97460   0.01267  Uiso   1.00
N72    N     0.97460   0.47090   0.74230   0.01267  Uiso   1.00
N73    N     0.33540   0.66780   0.84810   0.01267  Uiso   1.00
N74    N     0.15190   0.66460   0.33220   0.01267  Uiso   1.00
N75    N     0.46334   0.93120   0.62456   0.01267  Uiso   1.00
N76    N     0.24230   0.97090   0.47460   0.01267  Uiso   1.00
N77    N     0.52910   0.25770   0.02540   0.01267  Uiso   1.00
N78    N     0.25770   0.02540   0.52910   0.01267  Uiso   1.00
O1     O     0.85488   0.17948   0.28252   0.01267  Uiso   1.00
O2     O     0.78252   0.67948   0.35488   0.01267  Uiso   1.00
O3     O     0.80237   0.29977   0.91995   0.01267  Uiso   1.00
O4     O     0.21748   0.32052   0.64512   0.01267  Uiso   1.00
O5     O     0.20023   0.69763   0.58005   0.01267  Uiso   1.00
O6     O     0.17948   0.28252   0.85488   0.01267  Uiso   1.00
O7     O     0.28252   0.85488   0.17948   0.01267  Uiso   1.00
O8     O     0.08005   0.19763   0.70023   0.01267  Uiso   1.00
O9     O     0.82052   0.71748   0.14512   0.01267  Uiso   1.00
O10    O     0.41995   0.79977   0.30237   0.01267  Uiso   1.00
O11    O     0.29977   0.91995   0.80237   0.01267  Uiso   1.00
O12    O     0.35488   0.78252   0.67948   0.01267  Uiso   1.00
O13    O     0.30237   0.41995   0.79977   0.01267  Uiso   1.00
O14    O     0.71748   0.14512   0.82052   0.01267  Uiso   1.00
O15    O     0.69763   0.58005   0.20023   0.01267  Uiso   1.00
O16    O     0.32052   0.64512   0.21748   0.01267  Uiso   1.00
O17    O     0.58005   0.20023   0.69763   0.01267  Uiso   1.00
O18    O     0.67948   0.35488   0.78252   0.01267  Uiso   1.00
O19    O     0.79977   0.30237   0.41995   0.01267  Uiso   1.00
O20    O     0.70023   0.08005   0.19763   0.01267  Uiso   1.00
O21    O     0.14512   0.82052   0.71748   0.01267  Uiso   1.00
O22    O     0.64512   0.21748   0.32052   0.01267  Uiso   1.00
O23    O     0.91995   0.80237   0.29977   0.01267  Uiso   1.00
O24    O     0.19763   0.70023   0.08005   0.01267  Uiso   1.00
