data_ic202769e_si_002_freeONLY
_audit_creation_date              2015-08-19
_audit_creation_method            'Materials Studio'
_symmetry_space_group_name_H-M    'P1'
_symmetry_Int_Tables_number       1
_symmetry_cell_setting            triclinic
loop_
_symmetry_equiv_pos_as_xyz
  x,y,z
_cell_length_a                    9.9729
_cell_length_b                    10.2775
_cell_length_c                    23.6950
_cell_angle_alpha                 90.0000
_cell_angle_beta                  90.0000
_cell_angle_gamma                 90.0000
loop_
_atom_site_label
_atom_site_type_symbol
_atom_site_fract_x
_atom_site_fract_y
_atom_site_fract_z
_atom_site_U_iso_or_equiv
_atom_site_adp_type
_atom_site_occupancy
Co1    Co    0.98757   0.70892   0.21377   0.01267  Uiso   1.00
Co2    Co    0.51243   0.20892   0.71377   0.01267  Uiso   1.00
Co3    Co    0.01243   0.29108   0.78623   0.01267  Uiso   1.00
Co4    Co    0.48757   0.79108   0.28623   0.01267  Uiso   1.00
Co5    Co    0.51243   0.70892   0.78623   0.01267  Uiso   1.00
Co6    Co    0.01243   0.79108   0.71377   0.01267  Uiso   1.00
Co7    Co    0.98757   0.20892   0.28623   0.01267  Uiso   1.00
Co8    Co    0.48757   0.29108   0.21377   0.01267  Uiso   1.00
H1     H     0.02930   0.32970   0.99800   0.01267  Uiso   1.00
H2     H     0.72650   0.60030   0.16200   0.01267  Uiso   1.00
H3     H     0.38690   0.75590   0.13400   0.01267  Uiso   1.00
H4     H     0.88690   0.74410   0.36600   0.01267  Uiso   1.00
H5     H     0.53870   0.89130   0.13300   0.01267  Uiso   1.00
H6     H     0.37670   0.92000   0.57640   0.01267  Uiso   1.00
H7     H     0.57490   0.88210   0.65690   0.01267  Uiso   1.00
H8     H     0.47070   0.32970   0.00200   0.01267  Uiso   1.00
H9     H     0.33500   0.61350   0.67230   0.01267  Uiso   1.00
H10    H     0.38690   0.25590   0.36600   0.01267  Uiso   1.00
H11    H     0.97070   0.67030   0.00200   0.01267  Uiso   1.00
H12    H     0.43570   0.69060   0.91080   0.01267  Uiso   1.00
H13    H     0.22650   0.89970   0.33800   0.01267  Uiso   1.00
H14    H     0.06430   0.19060   0.41080   0.01267  Uiso   1.00
H15    H     0.16500   0.11350   0.17230   0.01267  Uiso   1.00
H16    H     0.12330   0.42000   0.07640   0.01267  Uiso   1.00
H17    H     0.37670   0.42000   0.92360   0.01267  Uiso   1.00
H18    H     0.53870   0.39130   0.36700   0.01267  Uiso   1.00
H19    H     0.56430   0.30940   0.08920   0.01267  Uiso   1.00
H20    H     0.93570   0.80940   0.58920   0.01267  Uiso   1.00
H21    H     0.03870   0.60870   0.36700   0.01267  Uiso   1.00
H22    H     0.56430   0.80940   0.41080   0.01267  Uiso   1.00
H23    H     0.27350   0.89970   0.66200   0.01267  Uiso   1.00
H24    H     0.61310   0.24410   0.86600   0.01267  Uiso   1.00
H25    H     0.22650   0.39970   0.16200   0.01267  Uiso   1.00
H26    H     0.06430   0.69060   0.08920   0.01267  Uiso   1.00
H27    H     0.66500   0.88650   0.17230   0.01267  Uiso   1.00
H28    H     0.33500   0.11350   0.82770   0.01267  Uiso   1.00
H29    H     0.42510   0.11790   0.34310   0.01267  Uiso   1.00
H30    H     0.52930   0.17030   0.50200   0.01267  Uiso   1.00
H31    H     0.02930   0.82970   0.50200   0.01267  Uiso   1.00
H32    H     0.07490   0.61790   0.84310   0.01267  Uiso   1.00
H33    H     0.03870   0.10870   0.13300   0.01267  Uiso   1.00
H34    H     0.27350   0.39970   0.83800   0.01267  Uiso   1.00
H35    H     0.43570   0.19060   0.58920   0.01267  Uiso   1.00
H36    H     0.77350   0.10030   0.66200   0.01267  Uiso   1.00
H37    H     0.83500   0.38650   0.67230   0.01267  Uiso   1.00
H38    H     0.42510   0.61790   0.15690   0.01267  Uiso   1.00
H39    H     0.11310   0.75590   0.86600   0.01267  Uiso   1.00
H40    H     0.57490   0.38210   0.84310   0.01267  Uiso   1.00
H41    H     0.77350   0.60030   0.83800   0.01267  Uiso   1.00
H42    H     0.52930   0.67030   0.99800   0.01267  Uiso   1.00
H43    H     0.88690   0.24410   0.13400   0.01267  Uiso   1.00
H44    H     0.62330   0.08000   0.42360   0.01267  Uiso   1.00
H45    H     0.47070   0.82970   0.49800   0.01267  Uiso   1.00
H46    H     0.46130   0.60870   0.63300   0.01267  Uiso   1.00
H47    H     0.61310   0.74410   0.63400   0.01267  Uiso   1.00
H48    H     0.62330   0.58000   0.07640   0.01267  Uiso   1.00
H49    H     0.66500   0.38650   0.32770   0.01267  Uiso   1.00
H50    H     0.12330   0.92000   0.42360   0.01267  Uiso   1.00
H51    H     0.92510   0.38210   0.15690   0.01267  Uiso   1.00
H52    H     0.16500   0.61350   0.32770   0.01267  Uiso   1.00
H53    H     0.11310   0.25590   0.63400   0.01267  Uiso   1.00
H54    H     0.72650   0.10030   0.33800   0.01267  Uiso   1.00
H55    H     0.96130   0.39130   0.63300   0.01267  Uiso   1.00
H56    H     0.46130   0.10870   0.86700   0.01267  Uiso   1.00
H57    H     0.87670   0.58000   0.92360   0.01267  Uiso   1.00
H58    H     0.83500   0.88650   0.82770   0.01267  Uiso   1.00
H59    H     0.87670   0.08000   0.57640   0.01267  Uiso   1.00
H60    H     0.97070   0.17030   0.49800   0.01267  Uiso   1.00
H61    H     0.96130   0.89130   0.86700   0.01267  Uiso   1.00
H62    H     0.93570   0.30940   0.91080   0.01267  Uiso   1.00
H63    H     0.92510   0.88210   0.34310   0.01267  Uiso   1.00
H64    H     0.07490   0.11790   0.65690   0.01267  Uiso   1.00
C1     C     0.98660   0.99830   0.79445   0.01267  Uiso   1.00
C2     C     0.91810   0.15740   0.46604   0.01267  Uiso   1.00
C3     C     0.52620   0.16960   0.58648   0.01267  Uiso   1.00
C4     C     0.48660   0.00170   0.79445   0.01267  Uiso   1.00
C5     C     0.47380   0.33040   0.08648   0.01267  Uiso   1.00
C6     C     0.21440   0.20890   0.70587   0.01267  Uiso   1.00
C7     C     0.08190   0.84260   0.53396   0.01267  Uiso   1.00
C8     C     0.51340   0.99830   0.20555   0.01267  Uiso   1.00
C9     C     0.27560   0.38310   0.12946   0.01267  Uiso   1.00
C10    C     0.51340   0.49830   0.29445   0.01267  Uiso   1.00
C11    C     0.58190   0.15740   0.53396   0.01267  Uiso   1.00
C12    C     0.97380   0.16960   0.41352   0.01267  Uiso   1.00
C13    C     0.09310   0.70700   0.83205   0.01267  Uiso   1.00
C14    C     0.78680   0.10380   0.57788   0.01267  Uiso   1.00
C15    C     0.28680   0.39620   0.92212   0.01267  Uiso   1.00
C16    C     0.91810   0.65740   0.03396   0.01267  Uiso   1.00
C17    C     0.78680   0.60380   0.92212   0.01267  Uiso   1.00
C18    C     0.40690   0.70700   0.16795   0.01267  Uiso   1.00
C19    C     0.43220   0.11660   0.82809   0.01267  Uiso   1.00
C20    C     0.01340   0.00170   0.20555   0.01267  Uiso   1.00
C21    C     0.47380   0.83040   0.41352   0.01267  Uiso   1.00
C22    C     0.93220   0.88340   0.82809   0.01267  Uiso   1.00
C23    C     0.21710   0.37420   0.97196   0.01267  Uiso   1.00
C24    C     0.21710   0.87420   0.52804   0.01267  Uiso   1.00
C25    C     0.27560   0.88310   0.37054   0.01267  Uiso   1.00
C26    C     0.71440   0.79110   0.70587   0.01267  Uiso   1.00
C27    C     0.78560   0.29110   0.20587   0.01267  Uiso   1.00
C28    C     0.71320   0.10380   0.42212   0.01267  Uiso   1.00
C29    C     0.56780   0.38340   0.32809   0.01267  Uiso   1.00
C30    C     0.59310   0.29300   0.83205   0.01267  Uiso   1.00
C31    C     0.21320   0.89620   0.42212   0.01267  Uiso   1.00
C32    C     0.78560   0.79110   0.29413   0.01267  Uiso   1.00
C33    C     0.09310   0.20700   0.66795   0.01267  Uiso   1.00
C34    C     0.21320   0.39620   0.07788   0.01267  Uiso   1.00
C35    C     0.41810   0.34260   0.03396   0.01267  Uiso   1.00
C36    C     0.28680   0.89620   0.57788   0.01267  Uiso   1.00
C37    C     0.28560   0.20890   0.29413   0.01267  Uiso   1.00
C38    C     0.40690   0.20700   0.33205   0.01267  Uiso   1.00
C39    C     0.22440   0.38310   0.87054   0.01267  Uiso   1.00
C40    C     0.28560   0.70890   0.20587   0.01267  Uiso   1.00
C41    C     0.06780   0.61660   0.32809   0.01267  Uiso   1.00
C42    C     0.52620   0.66960   0.91352   0.01267  Uiso   1.00
C43    C     0.77560   0.61690   0.12946   0.01267  Uiso   1.00
C44    C     0.41810   0.84260   0.46604   0.01267  Uiso   1.00
C45    C     0.02620   0.33040   0.91352   0.01267  Uiso   1.00
C46    C     0.06780   0.11660   0.17191   0.01267  Uiso   1.00
C47    C     0.22440   0.88310   0.62946   0.01267  Uiso   1.00
C48    C     0.71710   0.12580   0.52804   0.01267  Uiso   1.00
C49    C     0.93220   0.38340   0.67191   0.01267  Uiso   1.00
C50    C     0.08190   0.34260   0.96604   0.01267  Uiso   1.00
C51    C     0.78290   0.12580   0.47196   0.01267  Uiso   1.00
C52    C     0.72440   0.11690   0.62946   0.01267  Uiso   1.00
C53    C     0.71320   0.60380   0.07788   0.01267  Uiso   1.00
C54    C     0.97380   0.66960   0.08648   0.01267  Uiso   1.00
C55    C     0.58190   0.65740   0.96604   0.01267  Uiso   1.00
C56    C     0.02620   0.83040   0.58648   0.01267  Uiso   1.00
C57    C     0.77560   0.11690   0.37054   0.01267  Uiso   1.00
C58    C     0.48660   0.50170   0.70555   0.01267  Uiso   1.00
C59    C     0.59310   0.79300   0.66795   0.01267  Uiso   1.00
C60    C     0.43220   0.61660   0.67191   0.01267  Uiso   1.00
C61    C     0.28290   0.87420   0.47196   0.01267  Uiso   1.00
C62    C     0.72440   0.61690   0.87054   0.01267  Uiso   1.00
C63    C     0.90690   0.29300   0.16795   0.01267  Uiso   1.00
C64    C     0.98660   0.49830   0.70555   0.01267  Uiso   1.00
C65    C     0.21440   0.70890   0.79413   0.01267  Uiso   1.00
C66    C     0.71710   0.62580   0.97196   0.01267  Uiso   1.00
C67    C     0.71440   0.29110   0.79413   0.01267  Uiso   1.00
C68    C     0.90690   0.79300   0.33205   0.01267  Uiso   1.00
C69    C     0.28290   0.37420   0.02804   0.01267  Uiso   1.00
C70    C     0.56780   0.88340   0.17191   0.01267  Uiso   1.00
C71    C     0.01340   0.50170   0.29445   0.01267  Uiso   1.00
C72    C     0.78290   0.62580   0.02804   0.01267  Uiso   1.00
N1     N     0.40360   0.84760   0.36554   0.01267  Uiso   1.00
N2     N     0.90360   0.15240   0.36554   0.01267  Uiso   1.00
N3     N     0.09640   0.34760   0.86554   0.01267  Uiso   1.00
N4     N     0.59640   0.65240   0.86554   0.01267  Uiso   1.00
N5     N     0.09640   0.84760   0.63446   0.01267  Uiso   1.00
N6     N     0.90360   0.65240   0.13446   0.01267  Uiso   1.00
N7     N     0.40360   0.34760   0.13446   0.01267  Uiso   1.00
N8     N     0.59640   0.15240   0.63446   0.01267  Uiso   1.00
O1     O     0.19990   0.74640   0.74398   0.01267  Uiso   1.00
O2     O     0.97240   0.02230   0.25455   0.01267  Uiso   1.00
O3     O     0.32020   0.17040   0.68389   0.01267  Uiso   1.00
O4     O     0.02490   0.73960   0.30644   0.01267  Uiso   1.00
O5     O     0.98170   0.10640   0.81883   0.01267  Uiso   1.00
O6     O     0.97510   0.26040   0.69356   0.01267  Uiso   1.00
O7     O     0.47510   0.73960   0.69356   0.01267  Uiso   1.00
O8     O     0.52760   0.02230   0.74545   0.01267  Uiso   1.00
O9     O     0.97510   0.76040   0.80644   0.01267  Uiso   1.00
O10    O     0.69990   0.25360   0.74398   0.01267  Uiso   1.00
O11    O     0.52490   0.76040   0.19356   0.01267  Uiso   1.00
O12    O     0.47240   0.47770   0.24545   0.01267  Uiso   1.00
O13    O     0.02760   0.97770   0.74545   0.01267  Uiso   1.00
O14    O     0.48170   0.39360   0.68117   0.01267  Uiso   1.00
O15    O     0.51830   0.60640   0.31883   0.01267  Uiso   1.00
O16    O     0.67980   0.82960   0.31611   0.01267  Uiso   1.00
O17    O     0.02490   0.23960   0.19356   0.01267  Uiso   1.00
O18    O     0.48170   0.89360   0.81883   0.01267  Uiso   1.00
O19    O     0.51830   0.10640   0.18117   0.01267  Uiso   1.00
O20    O     0.32020   0.67040   0.81611   0.01267  Uiso   1.00
O21    O     0.69990   0.75360   0.75602   0.01267  Uiso   1.00
O22    O     0.01830   0.39360   0.31883   0.01267  Uiso   1.00
O23    O     0.02760   0.47770   0.75455   0.01267  Uiso   1.00
O24    O     0.82020   0.82960   0.68389   0.01267  Uiso   1.00
O25    O     0.67980   0.32960   0.18389   0.01267  Uiso   1.00
O26    O     0.80010   0.75360   0.24398   0.01267  Uiso   1.00
O27    O     0.19990   0.24640   0.75602   0.01267  Uiso   1.00
O28    O     0.30010   0.74640   0.25602   0.01267  Uiso   1.00
O29    O     0.98170   0.60640   0.68117   0.01267  Uiso   1.00
O30    O     0.30010   0.24640   0.24398   0.01267  Uiso   1.00
O31    O     0.17980   0.67040   0.18389   0.01267  Uiso   1.00
O32    O     0.52490   0.26040   0.30644   0.01267  Uiso   1.00
O33    O     0.97240   0.52230   0.24545   0.01267  Uiso   1.00
O34    O     0.80010   0.25360   0.25602   0.01267  Uiso   1.00
O35    O     0.17980   0.17040   0.31611   0.01267  Uiso   1.00
O36    O     0.01830   0.89360   0.18117   0.01267  Uiso   1.00
O37    O     0.47510   0.23960   0.80644   0.01267  Uiso   1.00
O38    O     0.52760   0.52230   0.75455   0.01267  Uiso   1.00
O39    O     0.47240   0.97770   0.25455   0.01267  Uiso   1.00
O40    O     0.82020   0.32960   0.81611   0.01267  Uiso   1.00
