data_ic202626c_si_002_freeONLY
_audit_creation_date              2015-08-19
_audit_creation_method            'Materials Studio'
_symmetry_space_group_name_H-M    'P1'
_symmetry_Int_Tables_number       1
_symmetry_cell_setting            triclinic
loop_
_symmetry_equiv_pos_as_xyz
  x,y,z
_cell_length_a                    8.1901
_cell_length_b                    8.9629
_cell_length_c                    20.1869
_cell_angle_alpha                 90.0000
_cell_angle_beta                  90.0000
_cell_angle_gamma                 90.8456
loop_
_atom_site_label
_atom_site_type_symbol
_atom_site_fract_x
_atom_site_fract_y
_atom_site_fract_z
_atom_site_U_iso_or_equiv
_atom_site_adp_type
_atom_site_occupancy
Fe1    Fe    0.50000   0.50000   0.50000   0.01267  Uiso   1.00
Fe2    Fe    0.00000   0.00000   0.00000   0.01267  Uiso   1.00
H1     H     0.89590   0.64710   0.49810   0.01267  Uiso   1.00
H2     H     0.98940   0.80100   0.13450   0.01267  Uiso   1.00
H3     H     0.52830   0.67390   0.35630   0.01267  Uiso   1.00
H4     H     0.48940   0.30100   0.36550   0.01267  Uiso   1.00
H5     H     0.03290   0.67000   0.64720   0.01267  Uiso   1.00
H6     H     0.81840   0.46040   0.99900   0.01267  Uiso   1.00
H7     H     0.02830   0.17390   0.14370   0.01267  Uiso   1.00
H8     H     0.39590   0.14710   0.00190   0.01267  Uiso   1.00
H9     H     0.01060   0.19900   0.86550   0.01267  Uiso   1.00
H10    H     0.97170   0.82610   0.85630   0.01267  Uiso   1.00
H11    H     0.31840   0.96040   0.50100   0.01267  Uiso   1.00
H12    H     0.94410   0.37470   0.66590   0.01267  Uiso   1.00
H13    H     0.53290   0.17000   0.85280   0.01267  Uiso   1.00
H14    H     0.44410   0.87470   0.83410   0.01267  Uiso   1.00
H15    H     0.47170   0.32610   0.64370   0.01267  Uiso   1.00
H16    H     0.60410   0.85290   0.99810   0.01267  Uiso   1.00
H17    H     0.46710   0.83000   0.14720   0.01267  Uiso   1.00
H18    H     0.05590   0.62530   0.33410   0.01267  Uiso   1.00
H19    H     0.51060   0.69900   0.63450   0.01267  Uiso   1.00
H20    H     0.18160   0.53960   0.00100   0.01267  Uiso   1.00
H21    H     0.68160   0.03960   0.49900   0.01267  Uiso   1.00
H22    H     0.96710   0.33000   0.35280   0.01267  Uiso   1.00
H23    H     0.10410   0.35290   0.50190   0.01267  Uiso   1.00
H24    H     0.55590   0.12530   0.16590   0.01267  Uiso   1.00
C1     C     0.16030   0.62270   0.35210   0.01267  Uiso   1.00
C2     C     0.18300   0.27930   0.50220   0.01267  Uiso   1.00
C3     C     0.81700   0.72070   0.49780   0.01267  Uiso   1.00
C4     C     0.36070   0.83730   0.13150   0.01267  Uiso   1.00
C5     C     0.63930   0.16270   0.86850   0.01267  Uiso   1.00
C6     C     0.66030   0.12270   0.14790   0.01267  Uiso   1.00
C7     C     0.19880   0.43730   0.00160   0.01267  Uiso   1.00
C8     C     0.30120   0.06270   0.50160   0.01267  Uiso   1.00
C9     C     0.31700   0.22070   0.00220   0.01267  Uiso   1.00
C10    C     0.80120   0.56270   0.99840   0.01267  Uiso   1.00
C11    C     0.83970   0.37730   0.64790   0.01267  Uiso   1.00
C12    C     0.40140   0.67940   0.62480   0.01267  Uiso   1.00
C13    C     0.90140   0.17940   0.87520   0.01267  Uiso   1.00
C14    C     0.59860   0.32060   0.37520   0.01267  Uiso   1.00
C15    C     0.91920   0.14910   0.13640   0.01267  Uiso   1.00
C16    C     0.69880   0.93730   0.49840   0.01267  Uiso   1.00
C17    C     0.58080   0.35090   0.63640   0.01267  Uiso   1.00
C18    C     0.86070   0.33730   0.36850   0.01267  Uiso   1.00
C19    C     0.09860   0.82060   0.12480   0.01267  Uiso   1.00
C20    C     0.33970   0.87730   0.85210   0.01267  Uiso   1.00
C21    C     0.68300   0.77930   0.99780   0.01267  Uiso   1.00
C22    C     0.41920   0.64910   0.36360   0.01267  Uiso   1.00
C23    C     0.08080   0.85090   0.86360   0.01267  Uiso   1.00
C24    C     0.13930   0.66270   0.63150   0.01267  Uiso   1.00
N1     N     0.15220   0.88790   0.07220   0.01267  Uiso   1.00
N2     N     0.19800   0.72430   0.22700   0.01267  Uiso   1.00
N3     N     0.80200   0.27570   0.77300   0.01267  Uiso   1.00
N4     N     0.32610   0.72480   0.25610   0.01267  Uiso   1.00
N5     N     0.65960   0.69720   0.49660   0.01267  Uiso   1.00
N6     N     0.91560   0.66680   0.99710   0.01267  Uiso   1.00
N7     N     0.69370   0.07650   0.08880   0.01267  Uiso   1.00
N8     N     0.67390   0.27520   0.74390   0.01267  Uiso   1.00
N9     N     0.80630   0.42350   0.58880   0.01267  Uiso   1.00
N10    N     0.41560   0.16680   0.50290   0.01267  Uiso   1.00
N11    N     0.84040   0.80280   0.99660   0.01267  Uiso   1.00
N12    N     0.20270   0.83340   0.82010   0.01267  Uiso   1.00
N13    N     0.49680   0.56930   0.00000   0.01267  Uiso   1.00
N14    N     0.84780   0.11210   0.92780   0.01267  Uiso   1.00
N15    N     0.17390   0.77520   0.75610   0.01267  Uiso   1.00
N16    N     0.85980   0.09190   0.08230   0.01267  Uiso   1.00
N17    N     0.58440   0.83320   0.49710   0.01267  Uiso   1.00
N18    N     0.34680   0.36990   0.00120   0.01267  Uiso   1.00
N19    N     0.84680   0.86990   0.49880   0.01267  Uiso   1.00
N20    N     0.72670   0.28340   0.33670   0.01267  Uiso   1.00
N21    N     0.30630   0.92350   0.91120   0.01267  Uiso   1.00
N22    N     0.99680   0.06930   0.50000   0.01267  Uiso   1.00
N23    N     0.29730   0.66660   0.32010   0.01267  Uiso   1.00
N24    N     0.82610   0.22480   0.24390   0.01267  Uiso   1.00
N25    N     0.17920   0.60000   0.57630   0.01267  Uiso   1.00
N26    N     0.35980   0.59190   0.41770   0.01267  Uiso   1.00
N27    N     0.70270   0.33340   0.67990   0.01267  Uiso   1.00
N28    N     0.32080   0.90000   0.07630   0.01267  Uiso   1.00
N29    N     0.34780   0.61210   0.57220   0.01267  Uiso   1.00
N30    N     0.14020   0.90810   0.91770   0.01267  Uiso   1.00
N31    N     0.50320   0.43070   0.00000   0.01267  Uiso   1.00
N32    N     0.15960   0.19720   0.00340   0.01267  Uiso   1.00
N33    N     0.00320   0.93070   0.50000   0.01267  Uiso   1.00
N34    N     0.82080   0.40000   0.42370   0.01267  Uiso   1.00
N35    N     0.64020   0.40810   0.58230   0.01267  Uiso   1.00
N36    N     0.65320   0.63010   0.99880   0.01267  Uiso   1.00
N37    N     0.08440   0.33320   0.00290   0.01267  Uiso   1.00
N38    N     0.34040   0.30280   0.50340   0.01267  Uiso   1.00
N39    N     0.30200   0.77570   0.72700   0.01267  Uiso   1.00
N40    N     0.19370   0.57650   0.41120   0.01267  Uiso   1.00
N41    N     0.79730   0.16660   0.17990   0.01267  Uiso   1.00
N42    N     0.27330   0.71660   0.66330   0.01267  Uiso   1.00
N43    N     0.67920   0.10000   0.92370   0.01267  Uiso   1.00
N44    N     0.22670   0.78340   0.16330   0.01267  Uiso   1.00
N45    N     0.65220   0.38790   0.42780   0.01267  Uiso   1.00
N46    N     0.77330   0.21660   0.83670   0.01267  Uiso   1.00
N47    N     0.15320   0.13010   0.50120   0.01267  Uiso   1.00
N48    N     0.69800   0.22430   0.27300   0.01267  Uiso   1.00
