data_ic402692p_si_002_freeONLY
_audit_creation_date              2015-08-19
_audit_creation_method            'Materials Studio'
_symmetry_space_group_name_H-M    'P1'
_symmetry_Int_Tables_number       1
_symmetry_cell_setting            triclinic
loop_
_symmetry_equiv_pos_as_xyz
  x,y,z
_cell_length_a                    16.7890
_cell_length_b                    17.1578
_cell_length_c                    23.3749
_cell_angle_alpha                 79.8801
_cell_angle_beta                  68.9532
_cell_angle_gamma                 60.7085
loop_
_atom_site_label
_atom_site_type_symbol
_atom_site_fract_x
_atom_site_fract_y
_atom_site_fract_z
_atom_site_U_iso_or_equiv
_atom_site_adp_type
_atom_site_occupancy
Zn1    Zn    0.16235   0.72518   0.18976   0.01267  Uiso   1.00
Zn2    Zn    0.18130   0.59114   0.10828   0.01267  Uiso   1.00
Zn3    Zn    0.95576   0.20696   0.92724   0.01267  Uiso   1.00
Zn4    Zn    0.63753   0.77482   0.68976   0.01267  Uiso   1.00
Zn5    Zn    0.34659   0.50000   0.50000   0.01267  Uiso   1.00
Zn6    Zn    0.63300   0.70696   0.57276   0.01267  Uiso   1.00
Zn7    Zn    0.03958   0.09114   0.39172   0.01267  Uiso   1.00
Zn8    Zn    0.07729   0.27482   0.81024   0.01267  Uiso   1.00
Zn9    Zn    0.11815   0.19274   0.44384   0.01267  Uiso   1.00
Zn10   Zn    0.52244   0.90886   0.60828   0.01267  Uiso   1.00
Zn11   Zn    0.75473   0.80726   0.55616   0.01267  Uiso   1.00
Zn12   Zn    0.06089   0.30726   0.94384   0.01267  Uiso   1.00
Zn13   Zn    0.59659   0.00000   0.00000   0.01267  Uiso   1.00
Zn14   Zn    0.31199   0.69274   0.05616   0.01267  Uiso   1.00
Zn15   Zn    0.88072   0.40886   0.89172   0.01267  Uiso   1.00
Zn16   Zn    0.91272   0.29304   0.42724   0.01267  Uiso   1.00
Zn17   Zn    0.08996   0.79304   0.07276   0.01267  Uiso   1.00
Zn18   Zn    0.10211   0.22518   0.31024   0.01267  Uiso   1.00
H1     H     0.86530   0.80080   0.03040   0.01267  Uiso   1.00
H2     H     0.02120   0.51460   0.25680   0.01267  Uiso   1.00
H3     H     0.44240   0.84400   0.09660   0.01267  Uiso   1.00
H4     H     0.01170   0.04100   0.07340   0.01267  Uiso   1.00
H5     H     0.50700   0.15220   0.53140   0.01267  Uiso   1.00
H6     H     0.91040   0.73120   0.35980   0.01267  Uiso   1.00
H7     H     0.31950   0.96500   0.51300   0.01267  Uiso   1.00
H8     H     0.83510   0.54100   0.42660   0.01267  Uiso   1.00
H9     H     0.21930   0.37440   0.25140   0.01267  Uiso   1.00
H10    H     0.39160   0.76880   0.85980   0.01267  Uiso   1.00
H11    H     0.60060   0.98160   0.77580   0.01267  Uiso   1.00
H12    H     0.02800   0.01460   0.24320   0.01267  Uiso   1.00
H13    H     0.80270   0.45900   0.57340   0.01267  Uiso   1.00
H14    H     0.58250   0.46500   0.98700   0.01267  Uiso   1.00
H15    H     0.78840   0.65220   0.96860   0.01267  Uiso   1.00
H16    H     0.12610   0.95900   0.92660   0.01267  Uiso   1.00
H17    H     0.34370   0.12560   0.75140   0.01267  Uiso   1.00
H18    H     0.40920   0.34780   0.03140   0.01267  Uiso   1.00
H19    H     0.38300   0.15600   0.90340   0.01267  Uiso   1.00
H20    H     0.00140   0.26880   0.64020   0.01267  Uiso   1.00
H21    H     0.79260   0.48540   0.74320   0.01267  Uiso   1.00
H22    H     0.69650   0.19920   0.96960   0.01267  Uiso   1.00
H23    H     0.33220   0.51840   0.27580   0.01267  Uiso   1.00
H24    H     0.03640   0.65600   0.59660   0.01267  Uiso   1.00
H25    H     0.12640   0.48160   0.72420   0.01267  Uiso   1.00
H26    H     0.64570   0.30080   0.46960   0.01267  Uiso   1.00
H27    H     0.22070   0.87440   0.24860   0.01267  Uiso   1.00
H28    H     0.03450   0.53500   0.01300   0.01267  Uiso   1.00
H29    H     0.19060   0.84780   0.46860   0.01267  Uiso   1.00
H30    H     0.28580   0.98540   0.75680   0.01267  Uiso   1.00
H31    H     0.41610   0.69920   0.53040   0.01267  Uiso   1.00
H32    H     0.02020   0.23120   0.14020   0.01267  Uiso   1.00
H33    H     0.28900   0.34400   0.40340   0.01267  Uiso   1.00
H34    H     0.79750   0.03500   0.48700   0.01267  Uiso   1.00
H35    H     0.84510   0.62560   0.74860   0.01267  Uiso   1.00
H36    H     0.35800   0.01840   0.22420   0.01267  Uiso   1.00
C1     C     0.37380   0.75460   0.51900   0.01267  Uiso   1.00
C2     C     0.94450   0.32220   0.64580   0.01267  Uiso   1.00
C3     C     0.82020   0.45260   0.70740   0.01267  Uiso   1.00
C4     C     0.35020   0.97540   0.21080   0.01267  Uiso   1.00
C5     C     0.40720   0.12960   0.86540   0.01267  Uiso   1.00
C6     C     0.20100   0.54180   0.61820   0.01267  Uiso   1.00
C7     C     0.34942   0.87060   0.79776   0.01267  Uiso   1.00
C8     C     0.31100   0.47540   0.28920   0.01267  Uiso   1.00
C9     C     0.47070   0.34300   0.01840   0.01267  Uiso   1.00
C10    C     0.01778   0.12940   0.20224   0.01267  Uiso   1.00
C11    C     0.20140   0.01460   0.29960   0.01267  Uiso   1.00
C12    C     0.83210   0.65700   0.98160   0.01267  Uiso   1.00
C13    C     0.02560   0.16320   0.25540   0.01267  Uiso   1.00
C14    C     0.98020   0.54740   0.29260   0.01267  Uiso   1.00
C15    C     0.02740   0.67500   0.05040   0.01267  Uiso   1.00
C16    C     0.95090   0.30600   0.53880   0.01267  Uiso   1.00
C17    C     0.87840   0.74540   0.01900   0.01267  Uiso   1.00
C18    C     0.98490   0.54280   0.74380   0.01267  Uiso   1.00
C19    C     0.36100   0.45820   0.38180   0.01267  Uiso   1.00
C20    C     0.97980   0.58640   0.00920   0.01267  Uiso   1.00
C21    C     0.07560   0.52460   0.71080   0.01267  Uiso   1.00
C22    C     0.02280   0.04740   0.20740   0.01267  Uiso   1.00
C23    C     0.65390   0.98940   0.53100   0.01267  Uiso   1.00
C24    C     0.70780   0.58020   0.65900   0.01267  Uiso   1.00
C25    C     0.03100   0.66320   0.24460   0.01267  Uiso   1.00
C26    C     0.11680   0.08020   0.84100   0.01267  Uiso   1.00
C27    C     0.64740   0.24540   0.48100   0.01267  Uiso   1.00
C28    C     0.65250   0.33400   0.97540   0.01267  Uiso   1.00
C29    C     0.00690   0.19400   0.03880   0.01267  Uiso   1.00
C30    C     0.91250   0.67780   0.35420   0.01267  Uiso   1.00
C31    C     0.65290   0.08080   0.51300   0.01267  Uiso   1.00
C32    C     0.86970   0.56340   0.39380   0.01267  Uiso   1.00
C33    C     0.92810   0.51200   0.34160   0.01267  Uiso   1.00
C34    C     0.93490   0.48940   0.96900   0.01267  Uiso   1.00
C35    C     0.24450   0.21960   0.85000   0.01267  Uiso   1.00
C36    C     0.17430   0.01060   0.46900   0.01267  Uiso   1.00
C37    C     0.54930   0.26300   0.00440   0.01267  Uiso   1.00
C38    C     0.53770   0.17920   0.01140   0.01267  Uiso   1.00
C39    C     0.97002   0.62940   0.29776   0.01267  Uiso   1.00
C40    C     0.27760   0.95260   0.79260   0.01267  Uiso   1.00
C41    C     0.24820   0.34820   0.32960   0.01267  Uiso   1.00
C42    C     0.82780   0.17500   0.44960   0.01267  Uiso   1.00
C43    C     0.03800   0.91980   0.15900   0.01267  Uiso   1.00
C44    C     0.25340   0.85700   0.89980   0.01267  Uiso   1.00
C45    C     0.73900   0.08640   0.49080   0.01267  Uiso   1.00
C46    C     0.21410   0.28040   0.35000   0.01267  Uiso   1.00
C47    C     0.44420   0.83680   0.74460   0.01267  Uiso   1.00
C48    C     0.01670   0.17780   0.14580   0.01267  Uiso   1.00
C49    C     0.01970   0.01200   0.15840   0.01267  Uiso   1.00
C50    C     0.81670   0.73700   0.99560   0.01267  Uiso   1.00
C51    C     0.27150   0.45720   0.25620   0.01267  Uiso   1.00
C52    C     0.82690   0.43660   0.60620   0.01267  Uiso   1.00
C53    C     0.51560   0.98540   0.70040   0.01267  Uiso   1.00
C54    C     0.02260   0.62960   0.63460   0.01267  Uiso   1.00
C55    C     0.48370   0.41920   0.01300   0.01267  Uiso   1.00
C56    C     0.34640   0.15180   0.82960   0.01267  Uiso   1.00
C57    C     0.73650   0.16600   0.47540   0.01267  Uiso   1.00
C58    C     0.23970   0.80600   0.96120   0.01267  Uiso   1.00
C59    C     0.31410   0.78040   0.15000   0.01267  Uiso   1.00
C60    C     0.18310   0.93660   0.89380   0.01267  Uiso   1.00
C61    C     0.26840   0.89000   0.22420   0.01267  Uiso   1.00
C62    C     0.40220   0.87040   0.13460   0.01267  Uiso   1.00
C63    C     0.39330   0.51060   0.03100   0.01267  Uiso   1.00
C64    C     0.90320   0.35700   0.60020   0.01267  Uiso   1.00
C65    C     0.49280   0.95820   0.11820   0.01267  Uiso   1.00
C66    C     0.37790   0.83400   0.52460   0.01267  Uiso   1.00
C67    C     0.72830   0.82080   0.98860   0.01267  Uiso   1.00
C68    C     0.79570   0.69400   0.46120   0.01267  Uiso   1.00
C69    C     0.29910   0.67920   0.48860   0.01267  Uiso   1.00
C70    C     0.56920   0.04180   0.88180   0.01267  Uiso   1.00
C71    C     0.01020   0.14300   0.10020   0.01267  Uiso   1.00
C72    C     0.24260   0.39000   0.27580   0.01267  Uiso   1.00
C73    C     0.32010   0.43060   0.34340   0.01267  Uiso   1.00
C74    C     0.96190   0.66600   0.02460   0.01267  Uiso   1.00
C75    C     0.57540   0.41360   0.99080   0.01267  Uiso   1.00
C76    C     0.30370   0.76300   0.49560   0.01267  Uiso   1.00
C77    C     0.19010   0.98800   0.84160   0.01267  Uiso   1.00
C78    C     0.41350   0.93060   0.15660   0.01267  Uiso   1.00
C79    C     0.92600   0.65180   0.67040   0.01267  Uiso   1.00
C80    C     0.50070   0.06940   0.84340   0.01267  Uiso   1.00
C81    C     0.78170   0.48800   0.65840   0.01267  Uiso   1.00
C82    C     0.64280   0.25460   0.98100   0.01267  Uiso   1.00
C83    C     0.94700   0.41980   0.34100   0.01267  Uiso   1.00
C84    C     0.96600   0.48540   0.79960   0.01267  Uiso   1.00
C85    C     0.25100   0.51460   0.20040   0.01267  Uiso   1.00
C86    C     0.09410   0.56940   0.65660   0.01267  Uiso   1.00
C87    C     0.93880   0.33680   0.75540   0.01267  Uiso   1.00
C88    C     0.75280   0.32500   0.94960   0.01267  Uiso   1.00
C89    C     0.45240   0.82500   0.55040   0.01267  Uiso   1.00
C90    C     0.23910   0.84300   0.48160   0.01267  Uiso   1.00
C91    C     0.34030   0.82220   0.85420   0.01267  Uiso   1.00
C92    C     0.01350   0.06340   0.10620   0.01267  Uiso   1.00
C93    C     0.90840   0.61000   0.72420   0.01267  Uiso   1.00
C94    C     0.32780   0.84820   0.17040   0.01267  Uiso   1.00
C95    C     0.56370   0.15700   0.51840   0.01267  Uiso   1.00
C96    C     0.91590   0.58080   0.98700   0.01267  Uiso   1.00
C97    C     0.31620   0.91360   0.50920   0.01267  Uiso   1.00
C98    C     0.28680   0.37040   0.36540   0.01267  Uiso   1.00
C99    C     0.27770   0.95720   0.24380   0.01267  Uiso   1.00
C100   C     0.38260   0.11000   0.77580   0.01267  Uiso   1.00
C101   C     0.24670   0.91920   0.48700   0.01267  Uiso   1.00
C102   C     0.46690   0.32080   0.51140   0.01267  Uiso   1.00
C103   C     0.84450   0.71960   0.65000   0.01267  Uiso   1.00
C104   C     0.86040   0.64300   0.39980   0.01267  Uiso   1.00
C105   C     0.89718   0.37060   0.70224   0.01267  Uiso   1.00
C106   C     0.53640   0.02460   0.78920   0.01267  Uiso   1.00
C107   C     0.56230   0.23700   0.50440   0.01267  Uiso   1.00
C108   C     0.47870   0.04280   0.75620   0.01267  Uiso   1.00
O1     O     0.50790   0.96800   0.06140   0.01267  Uiso   1.00
O2     O     0.03280   0.42420   0.81240   0.01267  Uiso   1.00
O3     O     0.31316   0.51780   0.04168   0.01267  Uiso   1.00
O4     O     0.90632   0.10520   0.43956   0.01267  Uiso   1.00
O5     O     0.81597   0.25400   0.44206   0.01267  Uiso   1.00
O6     O     0.02203   0.42820   0.96474   0.01267  Uiso   1.00
O7     O     0.20023   0.07180   0.46474   0.01267  Uiso   1.00
O8     O     0.15191   0.83140   0.99298   0.01267  Uiso   1.00
O9     O     0.54160   0.96360   0.14320   0.01267  Uiso   1.00
O10    O     0.07626   0.86380   0.19728   0.01267  Uiso   1.00
O11    O     0.25520   0.53640   0.64320   0.01267  Uiso   1.00
O12    O     0.21810   0.49140   0.16800   0.01267  Uiso   1.00
O13    O     0.20451   0.25580   0.80898   0.01267  Uiso   1.00
O14    O     0.69006   0.63620   0.69728   0.01267  Uiso   1.00
O15    O     0.87750   0.50860   0.83200   0.01267  Uiso   1.00
O16    O     0.64840   0.03640   0.85680   0.01267  Uiso   1.00
O17    O     0.52197   0.79700   0.75966   0.01267  Uiso   1.00
O18    O     0.10484   0.01780   0.45832   0.01267  Uiso   1.00
O19    O     0.73677   0.92820   0.53526   0.01267  Uiso   1.00
O20    O     0.00949   0.90160   0.12142   0.01267  Uiso   1.00
O21    O     0.26929   0.74420   0.19102   0.01267  Uiso   1.00
O22    O     0.03251   0.09840   0.87858   0.01267  Uiso   1.00
O23    O     0.19142   0.25980   0.40636   0.01267  Uiso   1.00
O24    O     0.81997   0.24600   0.94206   0.01267  Uiso   1.00
O25    O     0.45800   0.18740   0.01880   0.01267  Uiso   1.00
O26    O     0.45950   0.00860   0.66800   0.01267  Uiso   1.00
O27    O     0.85758   0.74020   0.59364   0.01267  Uiso   1.00
O28    O     0.66420   0.81260   0.98120   0.01267  Uiso   1.00
O29    O     0.20700   0.07580   0.31240   0.01267  Uiso   1.00
O30    O     0.51203   0.74600   0.55794   0.01267  Uiso   1.00
O31    O     0.76152   0.39480   0.93956   0.01267  Uiso   1.00
O32    O     0.41497   0.57180   0.03526   0.01267  Uiso   1.00
O33    O     0.87264   0.48220   0.95832   0.01267  Uiso   1.00
O34    O     0.03232   0.25240   0.02836   0.01267  Uiso   1.00
O35    O     0.89489   0.33140   0.50702   0.01267  Uiso   1.00
O36    O     0.09588   0.60520   0.06044   0.01267  Uiso   1.00
O37    O     0.22590   0.53200   0.56140   0.01267  Uiso   1.00
O38    O     0.44269   0.84900   0.69082   0.01267  Uiso   1.00
O39    O     0.31308   0.74760   0.97164   0.01267  Uiso   1.00
O40    O     0.63995   0.79720   0.60450   0.01267  Uiso   1.00
O41    O     0.00803   0.75400   0.05794   0.01267  Uiso   1.00
O42    O     0.06897   0.70300   0.25966   0.01267  Uiso   1.00
O43    O     0.58096   0.98220   0.54168   0.01267  Uiso   1.00
O44    O     0.53730   0.03200   0.93860   0.01267  Uiso   1.00
O45    O     0.03163   0.29700   0.74034   0.01267  Uiso   1.00
O46    O     0.22680   0.68740   0.48120   0.01267  Uiso   1.00
O47    O     0.61331   0.10480   0.00318   0.01267  Uiso   1.00
O48    O     0.88351   0.34900   0.80918   0.01267  Uiso   1.00
O49    O     0.59520   0.92420   0.68760   0.01267  Uiso   1.00
O50    O     0.43480   0.46360   0.35680   0.01267  Uiso   1.00
O51    O     0.31930   0.46800   0.43860   0.01267  Uiso   1.00
O52    O     0.72129   0.89520   0.99682   0.01267  Uiso   1.00
O53    O     0.13734   0.13620   0.80272   0.01267  Uiso   1.00
O54    O     0.36649   0.60480   0.49682   0.01267  Uiso   1.00
O55    O     0.88091   0.40160   0.37858   0.01267  Uiso   1.00
O56    O     0.13610   0.99140   0.33200   0.01267  Uiso   1.00
O57    O     0.81068   0.75240   0.47164   0.01267  Uiso   1.00
O58    O     0.76349   0.75580   0.69102   0.01267  Uiso   1.00
O59    O     0.04165   0.20280   0.39550   0.01267  Uiso   1.00
O60    O     0.46811   0.39520   0.50318   0.01267  Uiso   1.00
O61    O     0.02354   0.36380   0.30272   0.01267  Uiso   1.00
O62    O     0.45108   0.89480   0.56044   0.01267  Uiso   1.00
O63    O     0.04169   0.65100   0.19082   0.01267  Uiso   1.00
O64    O     0.98251   0.15100   0.30918   0.01267  Uiso   1.00
O65    O     0.39540   0.31260   0.51880   0.01267  Uiso   1.00
O66    O     0.20122   0.24020   0.90636   0.01267  Uiso   1.00
O67    O     0.18715   0.70280   0.10450   0.01267  Uiso   1.00
O68    O     0.66109   0.59840   0.62142   0.01267  Uiso   1.00
O69    O     0.26940   0.57580   0.18760   0.01267  Uiso   1.00
O70    O     0.03472   0.24760   0.52836   0.01267  Uiso   1.00
O71    O     0.34778   0.75980   0.09364   0.01267  Uiso   1.00
O72    O     0.99445   0.29720   0.89550   0.01267  Uiso   1.00
O73    O     0.73331   0.66860   0.49298   0.01267  Uiso   1.00
O74    O     0.07863   0.20300   0.24034   0.01267  Uiso   1.00
O75    O     0.21031   0.24420   0.30898   0.01267  Uiso   1.00
O76    O     0.97629   0.16860   0.00702   0.01267  Uiso   1.00
