data_image0
_cell_length_a       16.1491
_cell_length_b       20.6896
_cell_length_c       20.7592
_cell_angle_alpha    113.408
_cell_angle_beta     98.04
_cell_angle_gamma    90.077

_symmetry_space_group_name_H-M    "P 1"
_symmetry_int_tables_number       1

loop_
  _symmetry_equiv_pos_as_xyz
  'x, y, z'

loop_
  _atom_site_label
  _atom_site_occupancy
  _atom_site_fract_x
  _atom_site_fract_y
  _atom_site_fract_z
  _atom_site_thermal_displace_type
  _atom_site_B_iso_or_equiv
  _atom_site_type_symbol
  Cu1      1.0000 0.67032  0.05922  0.06274  Biso   1.000  Cu
  Cu2      1.0000 0.61914  0.18966  0.21001  Biso   1.000  Cu
  Cu3      1.0000 0.82956  0.15842  0.18945  Biso   1.000  Cu
  Cu4      1.0000 0.00846  0.07654  0.20105  Biso   1.000  Cu
  Cu5      1.0000 0.95708  0.20118  0.34960  Biso   1.000  Cu
  Cu6      1.0000 0.99869  0.90741  0.25147  Biso   1.000  Cu
  Cu7      1.0000 0.06637  0.78362  0.11248  Biso   1.000  Cu
  Cu8      1.0000 0.17030  0.82711  0.28669  Biso   1.000  Cu
  Cu9      1.0000 0.38250  0.80296  0.29077  Biso   1.000  Cu
  Cu10     1.0000 0.31541  0.93045  0.42917  Biso   1.000  Cu
  Cu11     1.0000 0.14106  0.28087  0.48429  Biso   1.000  Cu
  Cu12     1.0000 0.17380  0.45471  0.52281  Biso   1.000  Cu
  Cu13     1.0000 0.31901  0.35460  0.55800  Biso   1.000  Cu
  Cu14     1.0000 0.44124  0.28000  0.65423  Biso   1.000  Cu
  Cu15     1.0000 0.50405  0.43304  0.64533  Biso   1.000  Cu
  Cu16     1.0000 0.49705  0.56738  0.84015  Biso   1.000  Cu
  Cu17     1.0000 0.55985  0.72086  0.83290  Biso   1.000  Cu
  Cu18     1.0000 0.67591  0.65180  0.94278  Biso   1.000  Cu
  Cu19     1.0000 0.82152  0.54638  0.98048  Biso   1.000  Cu
  Cu20     1.0000 0.88946  0.69131  0.96245  Biso   1.000  Cu
  S1       1.0000 0.09259  0.70251  0.35448  Biso   1.000  S
  S2       1.0000 0.55506  0.79820  0.69614  Biso   1.000  S
  S3       1.0000 0.93488  0.27386  0.12503  Biso   1.000  S
  S4       1.0000 0.42738  0.20552  0.79202  Biso   1.000  S
  O1       1.0000 0.13590  0.48870  0.11900  Biso   1.000  O
  O2       1.0000 0.10340  0.38800  0.13080  Biso   1.000  O
  O3       1.0000 0.20440  0.42310  0.39050  Biso   1.000  O
  O4       1.0000 0.15790  0.51760  0.47240  Biso   1.000  O
  O5       1.0000 0.13730  0.73710  0.42580  Biso   1.000  O
  O6       1.0000 0.12350  0.72560  0.30360  Biso   1.000  O
  O7       1.0000 0.00310  0.70870  0.35440  Biso   1.000  O
  O8       1.0000 0.64310  0.99390  0.96160  Biso   1.000  O
  O9       1.0000 0.68330  0.09170  0.95200  Biso   1.000  O
  O10      1.0000 0.60150  0.10930  0.72040  Biso   1.000  O
  O11      1.0000 0.63750  0.01540  0.62910  Biso   1.000  O
  O12      1.0000 0.49390  0.78960  0.63520  Biso   1.000  O
  O13      1.0000 0.63460  0.76730  0.67950  Biso   1.000  O
  O14      1.0000 0.52150  0.77660  0.74640  Biso   1.000  O
  O15      1.0000 0.84320  0.46720  0.01380  Biso   1.000  O
  O16      1.0000 0.79230  0.55250  0.10040  Biso   1.000  O
  O17      1.0000 0.84420  0.57530  0.33720  Biso   1.000  O
  O18      1.0000 0.87100  0.48530  0.36860  Biso   1.000  O
  O19      1.0000 0.99790  0.26890  0.18150  Biso   1.000  O
  O20      1.0000 0.85910  0.23320  0.11980  Biso   1.000  O
  O21      1.0000 0.96920  0.25670  0.06090  Biso   1.000  O
  O22      1.0000 0.33770  0.00200  0.52920  Biso   1.000  O
  O23      1.0000 0.29050  0.91010  0.54640  Biso   1.000  O
  O24      1.0000 0.39550  0.89780  0.77780  Biso   1.000  O
  O25      1.0000 0.36250  0.99210  0.86970  Biso   1.000  O
  O26      1.0000 0.46890  0.22640  0.74450  Biso   1.000  O
  O27      1.0000 0.34610  0.23430  0.80010  Biso   1.000  O
  O28      1.0000 0.47870  0.22070  0.85970  Biso   1.000  O
  O29      1.0000 0.71870  0.15142  0.13998  Biso   1.000  O
  H1       1.0000 0.72040  0.18400  0.11640  Biso   1.000  H
  O30      1.0000 0.94690  0.16469  0.22940  Biso   1.000  O
  H2       1.0000 0.97710  0.19980  0.21930  Biso   1.000  H
  O31      1.0000 0.19930  0.37112  0.54523  Biso   1.000  O
  H3       1.0000 0.18230  0.38260  0.59190  Biso   1.000  H
  O32      1.0000 0.43690  0.34465  0.58450  Biso   1.000  O
  H4       1.0000 0.46240  0.31920  0.54190  Biso   1.000  H
  O33      1.0000 0.06250  0.82198  0.22970  Biso   1.000  O
  H5       1.0000 0.02690  0.78690  0.23560  Biso   1.000  H
  O34      1.0000 0.27250  0.83624  0.34987  Biso   1.000  O
  H6       1.0000 0.26580  0.80330  0.37240  Biso   1.000  H
  O35      1.0000 0.56330  0.65626  0.90100  Biso   1.000  O
  H7       1.0000 0.53240  0.68150  0.94020  Biso   1.000  H
  O36      1.0000 0.78320  0.64308  0.99030  Biso   1.000  O
  H8       1.0000 0.78260  0.67030  0.04110  Biso   1.000  H
  O37      1.0000 0.30070  0.32370  0.43690  Biso   1.000  O
  H9       1.0000 0.32770  0.35380  0.42810  Biso   1.000  H
  H10      1.0000 0.24890  0.32310  0.42180  Biso   1.000  H
  O38      1.0000 0.64450  0.73260  0.04620  Biso   1.000  O
  H11      1.0000 0.62120  0.71160  0.06750  Biso   1.000  H
  H12      1.0000 0.61100  0.76080  0.03750  Biso   1.000  H
  N1       1.0000 0.91680  0.03000  0.11720  Biso   1.000  N
  N2       1.0000 0.84670  0.06350  0.11810  Biso   1.000  N
  N3       1.0000 0.78730  0.02380  0.06580  Biso   1.000  N
  N4       1.0000 0.55880  0.10290  0.05910  Biso   1.000  N
  N5       1.0000 0.54270  0.15820  0.11530  Biso   1.000  N
  N6       1.0000 0.47330  0.18670  0.09920  Biso   1.000  N
  N7       1.0000 0.83820  0.22540  0.34850  Biso   1.000  N
  N8       1.0000 0.79000  0.20880  0.28600  Biso   1.000  N
  N9       1.0000 0.70960  0.21770  0.29490  Biso   1.000  N
  N10      1.0000 0.09910  0.12700  0.28080  Biso   1.000  N
  N11      1.0000 0.07640  0.17370  0.34120  Biso   1.000  N
  N12      1.0000 0.14310  0.19620  0.39250  Biso   1.000  N
  N13      1.0000 0.99070  0.30440  0.39700  Biso   1.000  N
  N14      1.0000 0.06020  0.33070  0.44350  Biso   1.000  N
  N15      1.0000 0.06660  0.40040  0.46440  Biso   1.000  N
  N16      1.0000 0.28990  0.49620  0.56520  Biso   1.000  N
  N17      1.0000 0.34460  0.45530  0.58220  Biso   1.000  N
  N18      1.0000 0.41940  0.48850  0.61010  Biso   1.000  N
  N19      1.0000 0.20540  0.24110  0.54620  Biso   1.000  N
  N20      1.0000 0.28420  0.26580  0.56740  Biso   1.000  N
  N21      1.0000 0.31970  0.24470  0.61630  Biso   1.000  N
  N22      1.0000 0.47880  0.18620  0.59050  Biso   1.000  N
  N23      1.0000 0.55090  0.16380  0.61160  Biso   1.000  N
  N24      1.0000 0.57130  0.10750  0.55790  Biso   1.000  N
  N25      1.0000 0.58910  0.37700  0.67580  Biso   1.000  N
  N26      1.0000 0.56170  0.31930  0.68220  Biso   1.000  N
  N27      1.0000 0.62550  0.29450  0.71200  Biso   1.000  N
  N28      1.0000 0.40390  0.36900  0.72690  Biso   1.000  N
  N29      1.0000 0.44090  0.43140  0.73760  Biso   1.000  N
  N30      1.0000 0.42090  0.48050  0.79600  Biso   1.000  N
  N31      1.0000 0.57850  0.51990  0.68960  Biso   1.000  N
  N32      1.0000 0.55770  0.57000  0.74850  Biso   1.000  N
  N33      1.0000 0.59180  0.63230  0.75690  Biso   1.000  N
  N34      1.0000 0.58040  0.51430  0.87860  Biso   1.000  N
  N35      1.0000 0.65240  0.54920  0.91530  Biso   1.000  N
  N36      1.0000 0.70430  0.50820  0.93440  Biso   1.000  N
  N37      1.0000 0.68250  0.74850  0.86470  Biso   1.000  N
  N38      1.0000 0.72590  0.71910  0.90480  Biso   1.000  N
  N39      1.0000 0.80800  0.73080  0.90790  Biso   1.000  N
  N40      1.0000 0.93640  0.59230  0.02870  Biso   1.000  N
  N41      1.0000 0.96030  0.65360  0.02590  Biso   1.000  N
  N42      1.0000 0.03070  0.68060  0.07020  Biso   1.000  N
  N43      1.0000 0.41130  0.62470  0.81390  Biso   1.000  N
  N44      1.0000 0.43750  0.68420  0.80900  Biso   1.000  N
  N45      1.0000 0.37220  0.71230  0.78500  Biso   1.000  N
  N46      1.0000 0.19990  0.96230  0.41030  Biso   1.000  N
  N47      1.0000 0.14830  0.92220  0.35280  Biso   1.000  N
  N48      1.0000 0.08180  0.95680  0.34200  Biso   1.000  N
  N49      1.0000 0.91730  0.85430  0.16340  Biso   1.000  N
  N50      1.0000 0.94560  0.80670  0.10720  Biso   1.000  N
  N51      1.0000 0.88540  0.78310  0.05120  Biso   1.000  N
  N52      1.0000 0.18500  0.76320  0.13070  Biso   1.000  N
  N53      1.0000 0.22360  0.78080  0.19750  Biso   1.000  N
  N54      1.0000 0.30540  0.77040  0.19750  Biso   1.000  N
  N55      1.0000 0.91550  0.10100  0.32780  Biso   1.000  N
  N56      1.0000 0.95130  0.04800  0.28230  Biso   1.000  N
  N57      1.0000 0.92560  0.98720  0.28430  Biso   1.000  N
  N58      1.0000 0.07810  0.99460  0.15960  Biso   1.000  N
  N59      1.0000 0.06460  0.93700  0.17140  Biso   1.000  N
  N60      1.0000 0.09750  0.88290  0.12350  Biso   1.000  N
  C1       1.0000 0.82120  0.96320  0.03050  Biso   1.000  C
  H13      1.0000 0.79430  0.92510  0.99120  Biso   1.000  H
  C2       1.0000 0.90250  0.96710  0.06240  Biso   1.000  C
  H14      1.0000 0.94060  0.93240  0.04850  Biso   1.000  H
  C3       1.0000 0.44400  0.14620  0.03080  Biso   1.000  C
  H15      1.0000 0.39540  0.15290  0.00490  Biso   1.000  H
  C4       1.0000 0.49700  0.09360  0.00550  Biso   1.000  C
  H16      1.0000 0.49130  0.05830  0.95990  Biso   1.000  H
  C5       1.0000 0.70860  0.24200  0.36450  Biso   1.000  C
  H17      1.0000 0.66110  0.25340  0.38650  Biso   1.000  H
  C6       1.0000 0.78880  0.24750  0.39840  Biso   1.000  C
  H18      1.0000 0.80580  0.26370  0.44720  Biso   1.000  H
  C7       1.0000 0.20810  0.16300  0.36500  Biso   1.000  C
  H19      1.0000 0.26250  0.16820  0.38890  Biso   1.000  H
  C8       1.0000 0.18110  0.11950  0.29490  Biso   1.000  C
  H20      1.0000 0.21390  0.09020  0.26310  Biso   1.000  H
  C9       1.0000 0.00140  0.41810  0.43000  Biso   1.000  C
  H21      1.0000 0.99030  0.46340  0.43370  Biso   1.000  H
  C10      1.0000 0.95380  0.35800  0.38830  Biso   1.000  C
  H22      1.0000 0.90370  0.35500  0.35870  Biso   1.000  H
  C11      1.0000 0.41200  0.55370  0.61240  Biso   1.000  C
  H23      1.0000 0.45400  0.58980  0.63060  Biso   1.000  H
  C12      1.0000 0.33280  0.55800  0.58370  Biso   1.000  C
  H24      1.0000 0.31160  0.59740  0.57770  Biso   1.000  H
  C13      1.0000 0.18960  0.20270  0.58280  Biso   1.000  C
  H25      1.0000 0.13900  0.17910  0.57930  Biso   1.000  H
  C14      1.0000 0.26320  0.20530  0.62660  Biso   1.000  C
  H26      1.0000 0.27150  0.18320  0.65800  Biso   1.000  H
  C15      1.0000 0.51020  0.09450  0.50200  Biso   1.000  C
  H27      1.0000 0.50770  0.05830  0.45710  Biso   1.000  H
  C16      1.0000 0.45340  0.14380  0.52320  Biso   1.000  C
  H28      1.0000 0.40470  0.14730  0.49530  Biso   1.000  H
  C17      1.0000 0.69320  0.33730  0.72450  Biso   1.000  C
  H29      1.0000 0.74680  0.33250  0.74450  Biso   1.000  H
  C18      1.0000 0.66960  0.38920  0.70250  Biso   1.000  C
  H30      1.0000 0.70410  0.42670  0.70560  Biso   1.000  H
  C19      1.0000 0.36890  0.45040  0.82280  Biso   1.000  C
  H31      1.0000 0.34450  0.47300  0.86340  Biso   1.000  H
  C20      1.0000 0.35880  0.38030  0.77900  Biso   1.000  C
  H32      1.0000 0.32600  0.34650  0.78460  Biso   1.000  H
  C21      1.0000 0.63770  0.62260  0.70450  Biso   1.000  C
  H33      1.0000 0.66930  0.65700  0.69880  Biso   1.000  H
  C22      1.0000 0.62850  0.55160  0.66100  Biso   1.000  C
  H34      1.0000 0.65200  0.52930  0.61990  Biso   1.000  H
  C23      1.0000 0.66410  0.44450  0.90840  Biso   1.000  C
  H35      1.0000 0.68550  0.40460  0.91300  Biso   1.000  H
  C24      1.0000 0.58730  0.44710  0.87420  Biso   1.000  C
  H36      1.0000 0.54680  0.40990  0.85190  Biso   1.000  H
  C25      1.0000 0.81800  0.76860  0.86930  Biso   1.000  C
  H37      1.0000 0.86870  0.78440  0.86250  Biso   1.000  H
  C26      1.0000 0.73990  0.77960  0.84190  Biso   1.000  C
  H38      1.0000 0.72800  0.80400  0.81280  Biso   1.000  H
  C27      1.0000 0.05390  0.63640  0.10080  Biso   1.000  C
  H39      1.0000 0.10170  0.64230  0.13390  Biso   1.000  H
  C28      1.0000 0.99500  0.58060  0.07500  Biso   1.000  C
  H40      1.0000 0.99550  0.54190  0.08720  Biso   1.000  H
  C29      1.0000 0.30330  0.67020  0.77520  Biso   1.000  C
  H41      1.0000 0.24860  0.67750  0.75990  Biso   1.000  H
  C30      1.0000 0.32900  0.61440  0.79220  Biso   1.000  C
  H42      1.0000 0.29500  0.57660  0.78900  Biso   1.000  H
  C31      1.0000 0.09160  0.02040  0.39430  Biso   1.000  C
  H43      1.0000 0.05450  0.05600  0.40080  Biso   1.000  H
  C32      1.0000 0.16580  0.02490  0.43710  Biso   1.000  C
  H44      1.0000 0.18860  0.06410  0.47730  Biso   1.000  H
  C33      1.0000 0.81640  0.81690  0.07200  Biso   1.000  C
  H45      1.0000 0.76440  0.81120  0.04400  Biso   1.000  H
  C34      1.0000 0.83720  0.86140  0.14220  Biso   1.000  C
  H46      1.0000 0.80150  0.89140  0.17030  Biso   1.000  H
  C35      1.0000 0.32000  0.74490  0.13060  Biso   1.000  C
  H47      1.0000 0.37140  0.73240  0.11540  Biso   1.000  H
  C36      1.0000 0.24490  0.74040  0.08800  Biso   1.000  C
  H48      1.0000 0.23660  0.72450  0.03880  Biso   1.000  H
  C37      1.0000 0.87160  0.00330  0.33150  Biso   1.000  C
  H49      1.0000 0.84320  0.97110  0.34300  Biso   1.000  H
  C38      1.0000 0.86550  0.07400  0.35930  Biso   1.000  C
  H50      1.0000 0.83300  0.09930  0.39360  Biso   1.000  H
  C39      1.0000 0.13250  0.90670  0.08080  Biso   1.000  C
  H51      1.0000 0.15910  0.88030  0.04260  Biso   1.000  H
  C40      1.0000 0.12110  0.97650  0.10480  Biso   1.000  C
  H52      1.0000 0.14000  0.00710  0.08630  Biso   1.000  H
  C41      1.0000 0.11870  0.49690  0.23210  Biso   1.000  C
  C42      1.0000 0.13870  0.46890  0.28240  Biso   1.000  C
  H53      1.0000 0.14720  0.42100  0.26780  Biso   1.000  H
  C43      1.0000 0.14630  0.51170  0.35410  Biso   1.000  C
  C44      1.0000 0.13020  0.58250  0.37600  Biso   1.000  C
  H54      1.0000 0.13330  0.61080  0.42410  Biso   1.000  H
  C45      1.0000 0.10980  0.61100  0.32650  Biso   1.000  C
  C46      1.0000 0.10470  0.56940  0.25510  Biso   1.000  C
  H55      1.0000 0.09190  0.58910  0.22200  Biso   1.000  H
  C47      1.0000 0.11860  0.45450  0.15350  Biso   1.000  C
  C48      1.0000 0.17130  0.48120  0.40850  Biso   1.000  C
  C49      1.0000 0.62920  0.99320  0.84610  Biso   1.000  C
  C50      1.0000 0.63120  0.03220  0.80520  Biso   1.000  C
  H56      1.0000 0.64640  0.08020  0.82720  Biso   1.000  H
  C51      1.0000 0.61100  0.00050  0.73250  Biso   1.000  C
  C52      1.0000 0.58780  0.92940  0.69950  Biso   1.000  C
  H57      1.0000 0.57580  0.90760  0.65030  Biso   1.000  H
  C53      1.0000 0.58250  0.89040  0.74040  Biso   1.000  C
  C54      1.0000 0.60340  0.92200  0.81320  Biso   1.000  C
  H58      1.0000 0.60020  0.89570  0.84030  Biso   1.000  H
  C55      1.0000 0.65420  0.02990  0.92520  Biso   1.000  C
  C56      1.0000 0.61670  0.04490  0.68980  Biso   1.000  C
  C57      1.0000 0.87500  0.46980  0.24820  Biso   1.000  C
  C58      1.0000 0.85220  0.49810  0.19890  Biso   1.000  C
  H59      1.0000 0.83390  0.54370  0.21380  Biso   1.000  H
  C59      1.0000 0.85610  0.45990  0.12720  Biso   1.000  C
  C60      1.0000 0.88310  0.39250  0.10450  Biso   1.000  C
  H60      1.0000 0.88580  0.36660  0.05670  Biso   1.000  H
  C61      1.0000 0.90620  0.36340  0.15390  Biso   1.000  C
  C62      1.0000 0.90270  0.40160  0.22520  Biso   1.000  C
  H61      1.0000 0.91880  0.38180  0.25780  Biso   1.000  H
  C63      1.0000 0.86380  0.51280  0.32430  Biso   1.000  C
  C64      1.0000 0.82750  0.49590  0.07670  Biso   1.000  C
  C65      1.0000 0.38120  0.00420  0.76350  Biso   1.000  C
  C66      1.0000 0.35810  0.97050  0.69010  Biso   1.000  C
  H62      1.0000 0.34320  0.92230  0.66960  Biso   1.000  H
  C67      1.0000 0.35690  0.00780  0.64690  Biso   1.000  C
  C68      1.0000 0.38320  0.07940  0.67810  Biso   1.000  C
  H63      1.0000 0.38530  0.10490  0.65010  Biso   1.000  H
  C69      1.0000 0.40620  0.11200  0.75120  Biso   1.000  C
  C70      1.0000 0.40280  0.07610  0.79480  Biso   1.000  C
  H64      1.0000 0.41470  0.09970  0.84390  Biso   1.000  H
  C71      1.0000 0.32540  0.97020  0.56840  Biso   1.000  C
  C72      1.0000 0.38070  0.96140  0.80830  Biso   1.000  C
  Cu21     1.0000 0.32968  0.94078  0.93726  Biso   1.000  Cu
  Cu22     1.0000 0.38086  0.81034  0.78999  Biso   1.000  Cu
  Cu23     1.0000 0.17044  0.84158  0.81055  Biso   1.000  Cu
  Cu24     1.0000 0.99154  0.92346  0.79895  Biso   1.000  Cu
  Cu25     1.0000 0.04292  0.79882  0.65040  Biso   1.000  Cu
  Cu26     1.0000 0.00131  0.09259  0.74853  Biso   1.000  Cu
  Cu27     1.0000 0.93363  0.21638  0.88752  Biso   1.000  Cu
  Cu28     1.0000 0.82970  0.17289  0.71331  Biso   1.000  Cu
  Cu29     1.0000 0.61750  0.19704  0.70923  Biso   1.000  Cu
  Cu30     1.0000 0.68459  0.06955  0.57083  Biso   1.000  Cu
  Cu31     1.0000 0.85894  0.71913  0.51571  Biso   1.000  Cu
  Cu32     1.0000 0.82620  0.54529  0.47719  Biso   1.000  Cu
  Cu33     1.0000 0.68099  0.64540  0.44200  Biso   1.000  Cu
  Cu34     1.0000 0.55876  0.72000  0.34577  Biso   1.000  Cu
  Cu35     1.0000 0.49595  0.56696  0.35467  Biso   1.000  Cu
  Cu36     1.0000 0.50295  0.43262  0.15985  Biso   1.000  Cu
  Cu37     1.0000 0.44015  0.27914  0.16710  Biso   1.000  Cu
  Cu38     1.0000 0.32409  0.34820  0.05722  Biso   1.000  Cu
  Cu39     1.0000 0.17848  0.45362  0.01952  Biso   1.000  Cu
  Cu40     1.0000 0.11054  0.30869  0.03755  Biso   1.000  Cu
  S5       1.0000 0.90741  0.29749  0.64552  Biso   1.000  S
  S6       1.0000 0.44494  0.20180  0.30386  Biso   1.000  S
  S7       1.0000 0.06512  0.72614  0.87497  Biso   1.000  S
  S8       1.0000 0.57262  0.79448  0.20798  Biso   1.000  S
  O39      1.0000 0.86410  0.51130  0.88100  Biso   1.000  O
  O40      1.0000 0.89660  0.61200  0.86920  Biso   1.000  O
  O41      1.0000 0.79560  0.57690  0.60950  Biso   1.000  O
  O42      1.0000 0.84210  0.48240  0.52760  Biso   1.000  O
  O43      1.0000 0.86270  0.26290  0.57420  Biso   1.000  O
  O44      1.0000 0.87650  0.27440  0.69640  Biso   1.000  O
  O45      1.0000 0.99690  0.29130  0.64560  Biso   1.000  O
  O46      1.0000 0.35690  0.00610  0.03840  Biso   1.000  O
  O47      1.0000 0.31670  0.90830  0.04800  Biso   1.000  O
  O48      1.0000 0.39850  0.89070  0.27960  Biso   1.000  O
  O49      1.0000 0.36250  0.98460  0.37090  Biso   1.000  O
  O50      1.0000 0.50610  0.21040  0.36480  Biso   1.000  O
  O51      1.0000 0.36540  0.23270  0.32050  Biso   1.000  O
  O52      1.0000 0.47850  0.22340  0.25360  Biso   1.000  O
  O53      1.0000 0.15680  0.53280  0.98620  Biso   1.000  O
  O54      1.0000 0.20770  0.44750  0.89960  Biso   1.000  O
  O55      1.0000 0.15580  0.42470  0.66280  Biso   1.000  O
  O56      1.0000 0.12900  0.51470  0.63140  Biso   1.000  O
  O57      1.0000 0.00210  0.73110  0.81850  Biso   1.000  O
  O58      1.0000 0.14090  0.76680  0.88020  Biso   1.000  O
  O59      1.0000 0.03080  0.74330  0.93910  Biso   1.000  O
  O60      1.0000 0.66230  0.99800  0.47080  Biso   1.000  O
  O61      1.0000 0.70950  0.08990  0.45360  Biso   1.000  O
  O62      1.0000 0.60450  0.10220  0.22220  Biso   1.000  O
  O63      1.0000 0.63750  0.00790  0.13030  Biso   1.000  O
  O64      1.0000 0.53110  0.77360  0.25550  Biso   1.000  O
  O65      1.0000 0.65390  0.76570  0.19990  Biso   1.000  O
  O66      1.0000 0.52130  0.77930  0.14030  Biso   1.000  O
  O67      1.0000 0.28130  0.84858  0.86002  Biso   1.000  O
  H65      1.0000 0.27960  0.81600  0.88360  Biso   1.000  H
  O68      1.0000 0.05310  0.83531  0.77060  Biso   1.000  O
  H66      1.0000 0.02290  0.80020  0.78070  Biso   1.000  H
  O69      1.0000 0.80070  0.62888  0.45477  Biso   1.000  O
  H67      1.0000 0.81770  0.61740  0.40810  Biso   1.000  H
  O70      1.0000 0.56310  0.65535  0.41550  Biso   1.000  O
  H68      1.0000 0.53760  0.68080  0.45810  Biso   1.000  H
  O71      1.0000 0.93750  0.17802  0.77030  Biso   1.000  O
  H69      1.0000 0.97310  0.21310  0.76440  Biso   1.000  H
  O72      1.0000 0.72750  0.16376  0.65013  Biso   1.000  O
  H70      1.0000 0.73420  0.19670  0.62760  Biso   1.000  H
  O73      1.0000 0.43670  0.34374  0.09900  Biso   1.000  O
  H71      1.0000 0.46760  0.31850  0.05980  Biso   1.000  H
  O74      1.0000 0.21680  0.35692  0.00970  Biso   1.000  O
  H72      1.0000 0.21740  0.32970  0.95890  Biso   1.000  H
  O75      1.0000 0.69930  0.67630  0.56310  Biso   1.000  O
  H73      1.0000 0.67230  0.64620  0.57190  Biso   1.000  H
  H74      1.0000 0.75110  0.67690  0.57820  Biso   1.000  H
  O76      1.0000 0.35550  0.26740  0.95380  Biso   1.000  O
  H75      1.0000 0.37880  0.28840  0.93250  Biso   1.000  H
  H76      1.0000 0.38900  0.23920  0.96250  Biso   1.000  H
  N61      1.0000 0.08320  0.97000  0.88280  Biso   1.000  N
  N62      1.0000 0.15330  0.93650  0.88190  Biso   1.000  N
  N63      1.0000 0.21270  0.97620  0.93420  Biso   1.000  N
  N64      1.0000 0.44120  0.89710  0.94090  Biso   1.000  N
  N65      1.0000 0.45730  0.84180  0.88470  Biso   1.000  N
  N66      1.0000 0.52670  0.81330  0.90080  Biso   1.000  N
  N67      1.0000 0.16180  0.77460  0.65150  Biso   1.000  N
  N68      1.0000 0.21000  0.79120  0.71400  Biso   1.000  N
  N69      1.0000 0.29040  0.78230  0.70510  Biso   1.000  N
  N70      1.0000 0.90090  0.87300  0.71920  Biso   1.000  N
  N71      1.0000 0.92360  0.82630  0.65880  Biso   1.000  N
  N72      1.0000 0.85690  0.80380  0.60750  Biso   1.000  N
  N73      1.0000 0.00930  0.69560  0.60300  Biso   1.000  N
  N74      1.0000 0.93980  0.66930  0.55650  Biso   1.000  N
  N75      1.0000 0.93340  0.59960  0.53560  Biso   1.000  N
  N76      1.0000 0.71010  0.50380  0.43480  Biso   1.000  N
  N77      1.0000 0.65540  0.54470  0.41780  Biso   1.000  N
  N78      1.0000 0.58060  0.51150  0.38990  Biso   1.000  N
  N79      1.0000 0.79460  0.75890  0.45380  Biso   1.000  N
  N80      1.0000 0.71580  0.73420  0.43260  Biso   1.000  N
  N81      1.0000 0.68030  0.75530  0.38370  Biso   1.000  N
  N82      1.0000 0.52120  0.81380  0.40950  Biso   1.000  N
  N83      1.0000 0.44910  0.83620  0.38840  Biso   1.000  N
  N84      1.0000 0.42870  0.89250  0.44210  Biso   1.000  N
  N85      1.0000 0.41090  0.62300  0.32420  Biso   1.000  N
  N86      1.0000 0.43830  0.68070  0.31780  Biso   1.000  N
  N87      1.0000 0.37450  0.70550  0.28800  Biso   1.000  N
  N88      1.0000 0.59610  0.63100  0.27310  Biso   1.000  N
  N89      1.0000 0.55910  0.56860  0.26240  Biso   1.000  N
  N90      1.0000 0.57910  0.51950  0.20400  Biso   1.000  N
  N91      1.0000 0.42150  0.48010  0.31040  Biso   1.000  N
  N92      1.0000 0.44230  0.43000  0.25150  Biso   1.000  N
  N93      1.0000 0.40820  0.36770  0.24310  Biso   1.000  N
  N94      1.0000 0.41960  0.48570  0.12140  Biso   1.000  N
  N95      1.0000 0.34760  0.45080  0.08470  Biso   1.000  N
  N96      1.0000 0.29570  0.49180  0.06560  Biso   1.000  N
  N97      1.0000 0.31750  0.25150  0.13530  Biso   1.000  N
  N98      1.0000 0.27410  0.28090  0.09520  Biso   1.000  N
  N99      1.0000 0.19200  0.26920  0.09210  Biso   1.000  N
  N100     1.0000 0.06360  0.40770  0.97130  Biso   1.000  N
  N101     1.0000 0.03970  0.34640  0.97410  Biso   1.000  N
  N102     1.0000 0.96930  0.31940  0.92980  Biso   1.000  N
  N103     1.0000 0.58870  0.37530  0.18610  Biso   1.000  N
  N104     1.0000 0.56250  0.31580  0.19100  Biso   1.000  N
  N105     1.0000 0.62780  0.28770  0.21500  Biso   1.000  N
  N106     1.0000 0.80010  0.03770  0.58970  Biso   1.000  N
  N107     1.0000 0.85170  0.07780  0.64720  Biso   1.000  N
  N108     1.0000 0.91820  0.04320  0.65800  Biso   1.000  N
  N109     1.0000 0.08270  0.14570  0.83660  Biso   1.000  N
  N110     1.0000 0.05440  0.19330  0.89280  Biso   1.000  N
  N111     1.0000 0.11460  0.21690  0.94880  Biso   1.000  N
  N112     1.0000 0.81500  0.23680  0.86930  Biso   1.000  N
  N113     1.0000 0.77640  0.21920  0.80250  Biso   1.000  N
  N114     1.0000 0.69460  0.22960  0.80250  Biso   1.000  N
  N115     1.0000 0.08450  0.89900  0.67220  Biso   1.000  N
  N116     1.0000 0.04870  0.95200  0.71770  Biso   1.000  N
  N117     1.0000 0.07440  0.01280  0.71570  Biso   1.000  N
  N118     1.0000 0.92190  0.00540  0.84040  Biso   1.000  N
  N119     1.0000 0.93540  0.06300  0.82860  Biso   1.000  N
  N120     1.0000 0.90250  0.11710  0.87650  Biso   1.000  N
  C73      1.0000 0.17880  0.03680  0.96950  Biso   1.000  C
  H77      1.0000 0.20570  0.07490  0.00880  Biso   1.000  H
  C74      1.0000 0.09750  0.03290  0.93760  Biso   1.000  C
  H78      1.0000 0.05940  0.06760  0.95150  Biso   1.000  H
  C75      1.0000 0.55600  0.85380  0.96920  Biso   1.000  C
  H79      1.0000 0.60460  0.84710  0.99510  Biso   1.000  H
  C76      1.0000 0.50300  0.90640  0.99450  Biso   1.000  C
  H80      1.0000 0.50870  0.94170  0.04010  Biso   1.000  H
  C77      1.0000 0.29140  0.75800  0.63550  Biso   1.000  C
  H81      1.0000 0.33890  0.74660  0.61350  Biso   1.000  H
  C78      1.0000 0.21120  0.75250  0.60160  Biso   1.000  C
  H82      1.0000 0.19420  0.73630  0.55280  Biso   1.000  H
  C79      1.0000 0.79190  0.83700  0.63500  Biso   1.000  C
  H83      1.0000 0.73750  0.83180  0.61110  Biso   1.000  H
  C80      1.0000 0.81890  0.88050  0.70510  Biso   1.000  C
  H84      1.0000 0.78610  0.90980  0.73690  Biso   1.000  H
  C81      1.0000 0.99860  0.58190  0.57000  Biso   1.000  C
  H85      1.0000 0.00970  0.53660  0.56630  Biso   1.000  H
  C82      1.0000 0.04620  0.64200  0.61170  Biso   1.000  C
  H86      1.0000 0.09630  0.64500  0.64130  Biso   1.000  H
  C83      1.0000 0.58800  0.44630  0.38760  Biso   1.000  C
  H87      1.0000 0.54600  0.41020  0.36940  Biso   1.000  H
  C84      1.0000 0.66720  0.44200  0.41630  Biso   1.000  C
  H88      1.0000 0.68840  0.40260  0.42230  Biso   1.000  H
  C85      1.0000 0.81040  0.79730  0.41720  Biso   1.000  C
  H89      1.0000 0.86100  0.82090  0.42070  Biso   1.000  H
  C86      1.0000 0.73680  0.79470  0.37340  Biso   1.000  C
  H90      1.0000 0.72850  0.81680  0.34200  Biso   1.000  H
  C87      1.0000 0.48980  0.90550  0.49800  Biso   1.000  C
  H91      1.0000 0.49230  0.94170  0.54290  Biso   1.000  H
  C88      1.0000 0.54660  0.85620  0.47680  Biso   1.000  C
  H92      1.0000 0.59530  0.85270  0.50470  Biso   1.000  H
  C89      1.0000 0.30680  0.66270  0.27550  Biso   1.000  C
  H93      1.0000 0.25320  0.66750  0.25550  Biso   1.000  H
  C90      1.0000 0.33040  0.61080  0.29750  Biso   1.000  C
  H94      1.0000 0.29590  0.57330  0.29440  Biso   1.000  H
  C91      1.0000 0.63110  0.54960  0.17720  Biso   1.000  C
  H95      1.0000 0.65550  0.52700  0.13660  Biso   1.000  H
  C92      1.0000 0.64120  0.61970  0.22100  Biso   1.000  C
  H96      1.0000 0.67400  0.65350  0.21540  Biso   1.000  H
  C93      1.0000 0.36230  0.37740  0.29550  Biso   1.000  C
  H97      1.0000 0.33070  0.34300  0.30120  Biso   1.000  H
  C94      1.0000 0.37150  0.44840  0.33900  Biso   1.000  C
  H98      1.0000 0.34800  0.47070  0.38010  Biso   1.000  H
  C95      1.0000 0.33590  0.55550  0.09160  Biso   1.000  C
  H99      1.0000 0.31450  0.59540  0.08700  Biso   1.000  H
  C96      1.0000 0.41270  0.55290  0.12580  Biso   1.000  C
  H100     1.0000 0.45320  0.59010  0.14810  Biso   1.000  H
  C97      1.0000 0.18200  0.23140  0.13070  Biso   1.000  C
  H101     1.0000 0.13130  0.21560  0.13750  Biso   1.000  H
  C98      1.0000 0.26010  0.22040  0.15810  Biso   1.000  C
  H102     1.0000 0.27200  0.19600  0.18720  Biso   1.000  H
  C99      1.0000 0.94610  0.36360  0.89920  Biso   1.000  C
  H103     1.0000 0.89830  0.35770  0.86610  Biso   1.000  H
  C100     1.0000 0.00500  0.41940  0.92500  Biso   1.000  C
  H104     1.0000 0.00450  0.45810  0.91280  Biso   1.000  H
  C101     1.0000 0.69670  0.32980  0.22480  Biso   1.000  C
  H105     1.0000 0.75140  0.32250  0.24010  Biso   1.000  H
  C102     1.0000 0.67100  0.38560  0.20780  Biso   1.000  C
  H106     1.0000 0.70500  0.42340  0.21100  Biso   1.000  H
  C103     1.0000 0.90840  0.97960  0.60570  Biso   1.000  C
  H107     1.0000 0.94550  0.94400  0.59920  Biso   1.000  H
  C104     1.0000 0.83420  0.97510  0.56290  Biso   1.000  C
  H108     1.0000 0.81140  0.93590  0.52270  Biso   1.000  H
  C105     1.0000 0.18360  0.18310  0.92800  Biso   1.000  C
  H109     1.0000 0.23560  0.18880  0.95600  Biso   1.000  H
  C106     1.0000 0.16280  0.13860  0.85780  Biso   1.000  C
  H110     1.0000 0.19850  0.10860  0.82970  Biso   1.000  H
  C107     1.0000 0.68000  0.25510  0.86940  Biso   1.000  C
  H111     1.0000 0.62860  0.26760  0.88460  Biso   1.000  H
  C108     1.0000 0.75510  0.25960  0.91200  Biso   1.000  C
  H112     1.0000 0.76340  0.27550  0.96120  Biso   1.000  H
  C109     1.0000 0.12840  0.99670  0.66850  Biso   1.000  C
  H113     1.0000 0.15680  0.02890  0.65700  Biso   1.000  H
  C110     1.0000 0.13450  0.92600  0.64070  Biso   1.000  C
  H114     1.0000 0.16700  0.90070  0.60640  Biso   1.000  H
  C111     1.0000 0.86750  0.09330  0.91920  Biso   1.000  C
  H115     1.0000 0.84090  0.11970  0.95740  Biso   1.000  H
  C112     1.0000 0.87890  0.02350  0.89520  Biso   1.000  C
  H116     1.0000 0.86000  0.99290  0.91370  Biso   1.000  H
  C113     1.0000 0.88130  0.50310  0.76790  Biso   1.000  C
  C114     1.0000 0.86130  0.53110  0.71760  Biso   1.000  C
  H117     1.0000 0.85280  0.57900  0.73220  Biso   1.000  H
  C115     1.0000 0.85370  0.48830  0.64590  Biso   1.000  C
  C116     1.0000 0.86980  0.41750  0.62400  Biso   1.000  C
  H118     1.0000 0.86670  0.38920  0.57590  Biso   1.000  H
  C117     1.0000 0.89020  0.38900  0.67350  Biso   1.000  C
  C118     1.0000 0.89530  0.43060  0.74490  Biso   1.000  C
  H119     1.0000 0.90810  0.41090  0.77800  Biso   1.000  H
  C119     1.0000 0.88140  0.54550  0.84650  Biso   1.000  C
  C120     1.0000 0.82870  0.51880  0.59150  Biso   1.000  C
  C121     1.0000 0.37080  0.00680  0.15390  Biso   1.000  C
  C122     1.0000 0.36880  0.96780  0.19480  Biso   1.000  C
  H120     1.0000 0.35360  0.91980  0.17280  Biso   1.000  H
  C123     1.0000 0.38900  0.99950  0.26750  Biso   1.000  C
  C124     1.0000 0.41220  0.07060  0.30050  Biso   1.000  C
  H121     1.0000 0.42420  0.09240  0.34970  Biso   1.000  H
  C125     1.0000 0.41750  0.10960  0.25960  Biso   1.000  C
  C126     1.0000 0.39660  0.07800  0.18680  Biso   1.000  C
  H122     1.0000 0.39980  0.10430  0.15970  Biso   1.000  H
  C127     1.0000 0.34580  0.97010  0.07480  Biso   1.000  C
  C128     1.0000 0.38330  0.95510  0.31020  Biso   1.000  C
  C129     1.0000 0.12500  0.53020  0.75180  Biso   1.000  C
  C130     1.0000 0.14780  0.50190  0.80110  Biso   1.000  C
  H123     1.0000 0.16610  0.45630  0.78620  Biso   1.000  H
  C131     1.0000 0.14390  0.54010  0.87280  Biso   1.000  C
  C132     1.0000 0.11690  0.60750  0.89550  Biso   1.000  C
  H124     1.0000 0.11420  0.63340  0.94330  Biso   1.000  H
  C133     1.0000 0.09380  0.63660  0.84610  Biso   1.000  C
  C134     1.0000 0.09730  0.59840  0.77480  Biso   1.000  C
  H125     1.0000 0.08120  0.61820  0.74220  Biso   1.000  H
  C135     1.0000 0.13620  0.48720  0.67570  Biso   1.000  C
  C136     1.0000 0.17250  0.50410  0.92330  Biso   1.000  C
  C137     1.0000 0.61880  0.99580  0.23650  Biso   1.000  C
  C138     1.0000 0.64190  0.02950  0.30990  Biso   1.000  C
  H126     1.0000 0.65680  0.07770  0.33040  Biso   1.000  H
  C139     1.0000 0.64310  0.99220  0.35310  Biso   1.000  C
  C140     1.0000 0.61680  0.92060  0.32190  Biso   1.000  C
  H127     1.0000 0.61470  0.89510  0.34990  Biso   1.000  H
  C141     1.0000 0.59380  0.88800  0.24880  Biso   1.000  C
  C142     1.0000 0.59720  0.92390  0.20520  Biso   1.000  C
  H128     1.0000 0.58530  0.90030  0.15610  Biso   1.000  H
  C143     1.0000 0.67460  0.02980  0.43160  Biso   1.000  C
  C144     1.0000 0.61930  0.03860  0.19170  Biso   1.000  C
