data_ic402058f_si_003_freeONLY
_audit_creation_date              2015-08-19
_audit_creation_method            'Materials Studio'
_symmetry_space_group_name_H-M    'P1'
_symmetry_Int_Tables_number       1
_symmetry_cell_setting            triclinic
loop_
_symmetry_equiv_pos_as_xyz
  x,y,z
_cell_length_a                    11.0750
_cell_length_b                    15.4380
_cell_length_c                    19.1800
_cell_angle_alpha                 95.7960
_cell_angle_beta                  90.0000
_cell_angle_gamma                 90.0000
loop_
_atom_site_label
_atom_site_type_symbol
_atom_site_fract_x
_atom_site_fract_y
_atom_site_fract_z
_atom_site_U_iso_or_equiv
_atom_site_adp_type
_atom_site_occupancy
Cd1    Cd    0.45496   0.50000   0.25000   0.01267  Uiso   1.00
Cd2    Cd    0.44237   0.54395   0.92226   0.01267  Uiso   1.00
Cd3    Cd    0.55763   0.45605   0.07774   0.01267  Uiso   1.00
Cd4    Cd    0.54504   0.50000   0.75000   0.01267  Uiso   1.00
Cd5    Cd    0.44237   0.45605   0.57774   0.01267  Uiso   1.00
Cd6    Cd    0.55763   0.54395   0.42226   0.01267  Uiso   1.00
H1     H     0.96900   0.55640   0.42890   0.01267  Uiso   1.00
H2     H     0.97330   0.38340   0.79500   0.01267  Uiso   1.00
H3     H     0.76610   0.90670   0.25990   0.01267  Uiso   1.00
H4     H     0.13010   0.52080   0.49650   0.01267  Uiso   1.00
H5     H     0.19250   0.15760   0.44710   0.01267  Uiso   1.00
H6     H     0.07920   0.80750   0.51180   0.01267  Uiso   1.00
H7     H     0.13760   0.32750   0.21170   0.01267  Uiso   1.00
H8     H     0.28690   0.83420   0.25390   0.01267  Uiso   1.00
H9     H     0.60420   0.70730   0.72340   0.01267  Uiso   1.00
H10    H     0.87120   0.93240   0.87650   0.01267  Uiso   1.00
H11    H     0.02100   0.84200   0.66800   0.01267  Uiso   1.00
H12    H     0.02410   0.41390   0.92460   0.01267  Uiso   1.00
H13    H     0.23390   0.09330   0.74010   0.01267  Uiso   1.00
H14    H     0.97590   0.58610   0.07540   0.01267  Uiso   1.00
H15    H     0.77260   0.97850   0.41500   0.01267  Uiso   1.00
H16    H     0.13630   0.46100   0.62460   0.01267  Uiso   1.00
H17    H     0.71870   0.81540   0.34440   0.01267  Uiso   1.00
H18    H     0.28700   0.71090   0.60960   0.01267  Uiso   1.00
H19    H     0.86370   0.46100   0.12460   0.01267  Uiso   1.00
H20    H     0.89670   0.41440   0.35970   0.01267  Uiso   1.00
H21    H     0.70410   0.71310   0.52260   0.01267  Uiso   1.00
H22    H     0.03100   0.44360   0.57110   0.01267  Uiso   1.00
H23    H     0.07920   0.19250   0.98820   0.01267  Uiso   1.00
H24    H     0.97900   0.15800   0.33200   0.01267  Uiso   1.00
H25    H     0.32910   0.61890   0.69420   0.01267  Uiso   1.00
H26    H     0.10330   0.41440   0.85970   0.01267  Uiso   1.00
H27    H     0.86240   0.67250   0.78830   0.01267  Uiso   1.00
H28    H     0.19250   0.84240   0.05290   0.01267  Uiso   1.00
H29    H     0.67090   0.61890   0.19420   0.01267  Uiso   1.00
H30    H     0.32910   0.38110   0.80580   0.01267  Uiso   1.00
H31    H     0.86240   0.32750   0.71170   0.01267  Uiso   1.00
H32    H     0.97900   0.84200   0.16800   0.01267  Uiso   1.00
H33    H     0.01510   0.22610   0.69010   0.01267  Uiso   1.00
H34    H     0.19250   0.56560   0.98750   0.01267  Uiso   1.00
H35    H     0.22740   0.02150   0.58500   0.01267  Uiso   1.00
H36    H     0.02410   0.58610   0.57540   0.01267  Uiso   1.00
H37    H     0.29590   0.28690   0.47740   0.01267  Uiso   1.00
H38    H     0.71300   0.71090   0.10960   0.01267  Uiso   1.00
H39    H     0.92790   0.65710   0.63800   0.01267  Uiso   1.00
H40    H     0.28700   0.28910   0.89040   0.01267  Uiso   1.00
H41    H     0.92080   0.80750   0.01180   0.01267  Uiso   1.00
H42    H     0.23390   0.90670   0.75990   0.01267  Uiso   1.00
H43    H     0.97590   0.41390   0.42460   0.01267  Uiso   1.00
H44    H     0.22740   0.97850   0.91500   0.01267  Uiso   1.00
H45    H     0.12880   0.93240   0.37650   0.01267  Uiso   1.00
H46    H     0.02670   0.38340   0.29500   0.01267  Uiso   1.00
H47    H     0.71310   0.83420   0.75390   0.01267  Uiso   1.00
H48    H     0.97330   0.61660   0.70500   0.01267  Uiso   1.00
H49    H     0.70410   0.28690   0.97740   0.01267  Uiso   1.00
H50    H     0.98490   0.22610   0.19010   0.01267  Uiso   1.00
H51    H     0.02100   0.15800   0.83200   0.01267  Uiso   1.00
H52    H     0.86370   0.53900   0.37540   0.01267  Uiso   1.00
H53    H     0.76650   0.70610   0.99000   0.01267  Uiso   1.00
H54    H     0.92080   0.19250   0.48820   0.01267  Uiso   1.00
H55    H     0.23350   0.70610   0.49000   0.01267  Uiso   1.00
H56    H     0.87250   0.43050   0.84210   0.01267  Uiso   1.00
H57    H     0.80750   0.43440   0.01250   0.01267  Uiso   1.00
H58    H     0.87120   0.06760   0.62350   0.01267  Uiso   1.00
H59    H     0.80750   0.84240   0.55290   0.01267  Uiso   1.00
H60    H     0.03100   0.55640   0.92890   0.01267  Uiso   1.00
H61    H     0.39580   0.70730   0.22340   0.01267  Uiso   1.00
H62    H     0.10330   0.58560   0.64030   0.01267  Uiso   1.00
H63    H     0.28130   0.81540   0.84440   0.01267  Uiso   1.00
H64    H     0.13630   0.53900   0.87540   0.01267  Uiso   1.00
H65    H     0.67090   0.38110   0.30580   0.01267  Uiso   1.00
H66    H     0.86990   0.52080   0.99650   0.01267  Uiso   1.00
H67    H     0.80750   0.15760   0.94710   0.01267  Uiso   1.00
H68    H     0.12750   0.43050   0.34210   0.01267  Uiso   1.00
H69    H     0.28130   0.18460   0.65560   0.01267  Uiso   1.00
H70    H     0.86990   0.47920   0.50350   0.01267  Uiso   1.00
H71    H     0.13760   0.67250   0.28830   0.01267  Uiso   1.00
H72    H     0.76650   0.29390   0.51000   0.01267  Uiso   1.00
H73    H     0.12750   0.56950   0.15790   0.01267  Uiso   1.00
H74    H     0.80750   0.56560   0.48750   0.01267  Uiso   1.00
H75    H     0.07210   0.34290   0.36200   0.01267  Uiso   1.00
H76    H     0.87250   0.56950   0.65790   0.01267  Uiso   1.00
H77    H     0.76610   0.09330   0.24010   0.01267  Uiso   1.00
H78    H     0.96900   0.44360   0.07110   0.01267  Uiso   1.00
H79    H     0.71300   0.28910   0.39040   0.01267  Uiso   1.00
H80    H     0.92790   0.34290   0.86200   0.01267  Uiso   1.00
H81    H     0.77260   0.02150   0.08500   0.01267  Uiso   1.00
H82    H     0.01510   0.77390   0.80990   0.01267  Uiso   1.00
H83    H     0.23350   0.29390   0.01000   0.01267  Uiso   1.00
H84    H     0.71870   0.18460   0.15560   0.01267  Uiso   1.00
H85    H     0.19250   0.43440   0.51250   0.01267  Uiso   1.00
H86    H     0.71310   0.16580   0.74610   0.01267  Uiso   1.00
H87    H     0.89670   0.58560   0.14030   0.01267  Uiso   1.00
H88    H     0.02670   0.61660   0.20500   0.01267  Uiso   1.00
H89    H     0.98490   0.77390   0.30990   0.01267  Uiso   1.00
H90    H     0.07210   0.65710   0.13800   0.01267  Uiso   1.00
H91    H     0.12880   0.06760   0.12350   0.01267  Uiso   1.00
H92    H     0.13010   0.47920   0.00350   0.01267  Uiso   1.00
H93    H     0.29590   0.71310   0.02260   0.01267  Uiso   1.00
H94    H     0.60420   0.29270   0.77660   0.01267  Uiso   1.00
H95    H     0.28690   0.16580   0.24610   0.01267  Uiso   1.00
H96    H     0.39580   0.29270   0.27660   0.01267  Uiso   1.00
C1     C     0.25920   0.18160   0.82270   0.01267  Uiso   1.00
C2     C     0.70420   0.73770   0.56890   0.01267  Uiso   1.00
C3     C     0.35480   0.73390   0.18900   0.01267  Uiso   1.00
C4     C     0.86140   0.07520   0.37250   0.01267  Uiso   1.00
C5     C     0.28990   0.81020   0.20750   0.01267  Uiso   1.00
C6     C     0.31370   0.29260   0.72220   0.01267  Uiso   1.00
C7     C     0.29580   0.26230   0.43110   0.01267  Uiso   1.00
C8     C     0.09200   0.48600   0.58770   0.01267  Uiso   1.00
C9     C     0.87390   0.30030   0.66670   0.01267  Uiso   1.00
C10    C     0.28990   0.18980   0.29250   0.01267  Uiso   1.00
C11    C     0.74470   0.15090   0.25330   0.01267  Uiso   1.00
C12    C     0.68770   0.32280   0.29240   0.01267  Uiso   1.00
C13    C     0.86140   0.92480   0.12750   0.01267  Uiso   1.00
C14    C     0.77010   0.15020   0.84430   0.01267  Uiso   1.00
C15    C     0.03400   0.44300   0.88200   0.01267  Uiso   1.00
C16    C     0.22990   0.15020   0.34430   0.01267  Uiso   1.00
C17    C     0.93840   0.96850   0.87590   0.01267  Uiso   1.00
C18    C     0.25530   0.15090   0.75330   0.01267  Uiso   1.00
C19    C     0.80020   0.32100   0.61280   0.01267  Uiso   1.00
C20    C     0.57210   0.61500   0.60260   0.01267  Uiso   1.00
C21    C     0.96600   0.44300   0.38200   0.01267  Uiso   1.00
C22    C     0.23260   0.81480   0.08710   0.01267  Uiso   1.00
C23    C     0.84700   0.00400   0.10120   0.01267  Uiso   1.00
C24    C     0.30600   0.61710   0.37110   0.01267  Uiso   1.00
C25    C     0.80020   0.67900   0.88720   0.01267  Uiso   1.00
C26    C     0.64520   0.73390   0.68900   0.01267  Uiso   1.00
C27    C     0.13860   0.07520   0.87250   0.01267  Uiso   1.00
C28    C     0.05500   0.39600   0.34220   0.01267  Uiso   1.00
C29    C     0.28630   0.73180   0.65680   0.01267  Uiso   1.00
C30    C     0.35220   0.35150   0.66940   0.01267  Uiso   1.00
C31    C     0.64100   0.69700   0.61970   0.01267  Uiso   1.00
C32    C     0.84700   0.99600   0.39880   0.01267  Uiso   1.00
C33    C     0.25530   0.84910   0.74670   0.01267  Uiso   1.00
C34    C     0.13860   0.92480   0.62750   0.01267  Uiso   1.00
C35    C     0.05070   0.94330   0.90010   0.01267  Uiso   1.00
C36    C     0.57210   0.38500   0.89740   0.01267  Uiso   1.00
C37    C     0.96600   0.55700   0.11800   0.01267  Uiso   1.00
C38    C     0.35900   0.69700   0.11970   0.01267  Uiso   1.00
C39    C     0.87390   0.69970   0.83330   0.01267  Uiso   1.00
C40    C     0.82730   0.50710   0.46760   0.01267  Uiso   1.00
C41    C     0.05070   0.05670   0.59990   0.01267  Uiso   1.00
C42    C     0.12610   0.30030   0.16670   0.01267  Uiso   1.00
C43    C     0.19980   0.32100   0.11280   0.01267  Uiso   1.00
C44    C     0.31370   0.70740   0.77780   0.01267  Uiso   1.00
C45    C     0.30600   0.38290   0.12890   0.01267  Uiso   1.00
C46    C     0.31230   0.67720   0.70760   0.01267  Uiso   1.00
C47    C     0.06160   0.96850   0.37590   0.01267  Uiso   1.00
C48    C     0.17270   0.50710   0.96760   0.01267  Uiso   1.00
C49    C     0.93170   0.95130   0.64870   0.01267  Uiso   1.00
C50    C     0.09170   0.21920   0.03330   0.01267  Uiso   1.00
C51    C     0.97970   0.80120   0.91290   0.01267  Uiso   1.00
C52    C     0.94500   0.39600   0.84220   0.01267  Uiso   1.00
C53    C     0.71370   0.26820   0.34320   0.01267  Uiso   1.00
C54    C     0.71370   0.73180   0.15680   0.01267  Uiso   1.00
C55    C     0.03540   0.23950   0.15400   0.01267  Uiso   1.00
C56    C     0.96460   0.23950   0.65400   0.01267  Uiso   1.00
C57    C     0.68630   0.29260   0.22220   0.01267  Uiso   1.00
C58    C     0.90800   0.51400   0.41230   0.01267  Uiso   1.00
C59    C     0.09200   0.51400   0.91230   0.01267  Uiso   1.00
C60    C     0.74470   0.84910   0.24670   0.01267  Uiso   1.00
C61    C     0.02030   0.80120   0.41290   0.01267  Uiso   1.00
C62    C     0.06830   0.04870   0.35130   0.01267  Uiso   1.00
C63    C     0.68770   0.67720   0.20760   0.01267  Uiso   1.00
C64    C     0.64520   0.26610   0.81100   0.01267  Uiso   1.00
C65    C     0.64100   0.30300   0.88030   0.01267  Uiso   1.00
C66    C     0.42790   0.38500   0.39740   0.01267  Uiso   1.00
C67    C     0.94500   0.60400   0.65780   0.01267  Uiso   1.00
C68    C     0.15300   0.99600   0.89880   0.01267  Uiso   1.00
C69    C     0.93170   0.04870   0.85130   0.01267  Uiso   1.00
C70    C     0.09170   0.78080   0.46670   0.01267  Uiso   1.00
C71    C     0.69400   0.61710   0.87110   0.01267  Uiso   1.00
C72    C     0.82730   0.49290   0.03240   0.01267  Uiso   1.00
C73    C     0.28310   0.79420   0.79720   0.01267  Uiso   1.00
C74    C     0.71690   0.79420   0.29720   0.01267  Uiso   1.00
C75    C     0.12610   0.69970   0.33330   0.01267  Uiso   1.00
C76    C     0.94930   0.05670   0.09990   0.01267  Uiso   1.00
C77    C     0.81660   0.71960   0.95370   0.01267  Uiso   1.00
C78    C     0.76740   0.18520   0.91290   0.01267  Uiso   1.00
C79    C     0.81660   0.28040   0.54630   0.01267  Uiso   1.00
C80    C     0.35900   0.30300   0.38030   0.01267  Uiso   1.00
C81    C     0.25920   0.81840   0.67730   0.01267  Uiso   1.00
C82    C     0.15300   0.00400   0.60120   0.01267  Uiso   1.00
C83    C     0.19980   0.67900   0.38720   0.01267  Uiso   1.00
C84    C     0.97130   0.89610   0.15120   0.01267  Uiso   1.00
C85    C     0.93840   0.03150   0.62410   0.01267  Uiso   1.00
C86    C     0.70420   0.26230   0.93110   0.01267  Uiso   1.00
C87    C     0.42790   0.61500   0.10260   0.01267  Uiso   1.00
C88    C     0.77010   0.84980   0.65570   0.01267  Uiso   1.00
C89    C     0.06160   0.03150   0.12410   0.01267  Uiso   1.00
C90    C     0.71690   0.20580   0.20280   0.01267  Uiso   1.00
C91    C     0.90830   0.21920   0.53330   0.01267  Uiso   1.00
C92    C     0.03540   0.76050   0.34600   0.01267  Uiso   1.00
C93    C     0.22990   0.84980   0.15570   0.01267  Uiso   1.00
C94    C     0.90800   0.48600   0.08770   0.01267  Uiso   1.00
C95    C     0.64780   0.35150   0.16940   0.01267  Uiso   1.00
C96    C     0.64780   0.64850   0.33060   0.01267  Uiso   1.00
C97    C     0.68630   0.70740   0.27780   0.01267  Uiso   1.00
C98    C     0.02870   0.10390   0.84880   0.01267  Uiso   1.00
C99    C     0.23260   0.18520   0.41290   0.01267  Uiso   1.00
C100   C     0.74080   0.81840   0.17730   0.01267  Uiso   1.00
C101   C     0.03400   0.55700   0.61800   0.01267  Uiso   1.00
C102   C     0.71010   0.18980   0.79250   0.01267  Uiso   1.00
C103   C     0.02030   0.19880   0.08710   0.01267  Uiso   1.00
C104   C     0.28630   0.26820   0.84320   0.01267  Uiso   1.00
C105   C     0.02870   0.89610   0.65120   0.01267  Uiso   1.00
C106   C     0.31230   0.32280   0.79240   0.01267  Uiso   1.00
C107   C     0.90830   0.78080   0.96670   0.01267  Uiso   1.00
C108   C     0.69400   0.38290   0.62890   0.01267  Uiso   1.00
C109   C     0.35480   0.26610   0.31100   0.01267  Uiso   1.00
C110   C     0.71010   0.81020   0.70750   0.01267  Uiso   1.00
C111   C     0.18340   0.28040   0.04630   0.01267  Uiso   1.00
C112   C     0.74080   0.18160   0.32270   0.01267  Uiso   1.00
C113   C     0.97130   0.10390   0.34880   0.01267  Uiso   1.00
C114   C     0.96460   0.76050   0.84600   0.01267  Uiso   1.00
C115   C     0.76740   0.81480   0.58710   0.01267  Uiso   1.00
C116   C     0.17270   0.49290   0.53240   0.01267  Uiso   1.00
C117   C     0.28310   0.20580   0.70280   0.01267  Uiso   1.00
C118   C     0.06830   0.95130   0.14870   0.01267  Uiso   1.00
C119   C     0.05500   0.60400   0.15780   0.01267  Uiso   1.00
C120   C     0.94930   0.94330   0.40010   0.01267  Uiso   1.00
C121   C     0.29580   0.73770   0.06890   0.01267  Uiso   1.00
C122   C     0.35220   0.64850   0.83060   0.01267  Uiso   1.00
C123   C     0.97970   0.19880   0.58710   0.01267  Uiso   1.00
C124   C     0.18340   0.71960   0.45370   0.01267  Uiso   1.00
O1     O     0.32660   0.59160   0.30840   0.01267  Uiso   1.00
O2     O     0.67340   0.59160   0.80840   0.01267  Uiso   1.00
O3     O     0.61080   0.57280   0.30900   0.01267  Uiso   1.00
O4     O     0.46740   0.42660   0.34870   0.01267  Uiso   1.00
O5     O     0.53260   0.57340   0.65130   0.01267  Uiso   1.00
O6     O     0.76020   0.87190   0.12430   0.01267  Uiso   1.00
O7     O     0.46740   0.57340   0.15130   0.01267  Uiso   1.00
O8     O     0.71420   0.53970   0.04640   0.01267  Uiso   1.00
O9     O     0.38920   0.57280   0.80900   0.01267  Uiso   1.00
O10    O     0.71420   0.46030   0.45360   0.01267  Uiso   1.00
O11    O     0.93050   0.86370   0.42680   0.01267  Uiso   1.00
O12    O     0.63190   0.40190   0.57600   0.01267  Uiso   1.00
O13    O     0.18040   0.06980   0.32370   0.01267  Uiso   1.00
O14    O     0.28580   0.53970   0.54640   0.01267  Uiso   1.00
O15    O     0.44760   0.41320   0.46020   0.01267  Uiso   1.00
O16    O     0.34850   0.67230   0.89460   0.01267  Uiso   1.00
O17    O     0.55240   0.58680   0.53980   0.01267  Uiso   1.00
O18    O     0.93050   0.13630   0.07320   0.01267  Uiso   1.00
O19    O     0.44760   0.58680   0.03980   0.01267  Uiso   1.00
O20    O     0.36810   0.40190   0.07600   0.01267  Uiso   1.00
O21    O     0.55240   0.41320   0.96020   0.01267  Uiso   1.00
O22    O     0.32660   0.40840   0.19160   0.01267  Uiso   1.00
O23    O     0.76020   0.12810   0.37570   0.01267  Uiso   1.00
O24    O     0.34850   0.32770   0.60540   0.01267  Uiso   1.00
O25    O     0.06950   0.13630   0.57320   0.01267  Uiso   1.00
O26    O     0.65150   0.32770   0.10540   0.01267  Uiso   1.00
O27    O     0.23980   0.87190   0.62430   0.01267  Uiso   1.00
O28    O     0.18040   0.93020   0.17630   0.01267  Uiso   1.00
O29    O     0.23980   0.12810   0.87570   0.01267  Uiso   1.00
O30    O     0.38920   0.42720   0.69100   0.01267  Uiso   1.00
O31    O     0.61080   0.42720   0.19100   0.01267  Uiso   1.00
O32    O     0.81960   0.06980   0.82370   0.01267  Uiso   1.00
O33    O     0.63190   0.59810   0.92400   0.01267  Uiso   1.00
O34    O     0.53260   0.42660   0.84870   0.01267  Uiso   1.00
O35    O     0.67340   0.40840   0.69160   0.01267  Uiso   1.00
O36    O     0.36810   0.59810   0.42400   0.01267  Uiso   1.00
O37    O     0.65150   0.67230   0.39460   0.01267  Uiso   1.00
O38    O     0.81960   0.93020   0.67630   0.01267  Uiso   1.00
O39    O     0.28580   0.46030   0.95360   0.01267  Uiso   1.00
O40    O     0.06950   0.86370   0.92680   0.01267  Uiso   1.00
