data_ic401157n_si_003_freeONLY
_audit_creation_date              2015-08-19
_audit_creation_method            'Materials Studio'
_symmetry_space_group_name_H-M    'P1'
_symmetry_Int_Tables_number       1
_symmetry_cell_setting            triclinic
loop_
_symmetry_equiv_pos_as_xyz
  x,y,z
_cell_length_a                    7.9129
_cell_length_b                    20.4180
_cell_length_c                    33.5158
_cell_angle_alpha                 89.8903
_cell_angle_beta                  90.0000
_cell_angle_gamma                 90.0000
loop_
_atom_site_label
_atom_site_type_symbol
_atom_site_fract_x
_atom_site_fract_y
_atom_site_fract_z
_atom_site_U_iso_or_equiv
_atom_site_adp_type
_atom_site_occupancy
Y1     Y     0.74007   0.48777   0.01649   0.01267  Uiso   1.00
Y2     Y     0.25993   0.98777   0.51649   0.01267  Uiso   1.00
Y3     Y     0.74007   0.01223   0.48351   0.01267  Uiso   1.00
Y4     Y     0.25993   0.51223   0.98351   0.01267  Uiso   1.00
H1     H     0.82530   0.19760   0.45570   0.01267  Uiso   1.00
H2     H     0.10300   0.42450   0.30910   0.01267  Uiso   1.00
H3     H     0.32370   0.28100   0.12470   0.01267  Uiso   1.00
H4     H     0.32050   0.68360   0.86850   0.01267  Uiso   1.00
H5     H     0.67950   0.31640   0.13150   0.01267  Uiso   1.00
H6     H     0.37550   0.99150   0.37760   0.01267  Uiso   1.00
H7     H     0.96140   0.53850   0.74760   0.01267  Uiso   1.00
H8     H     0.36410   0.81860   0.48630   0.01267  Uiso   1.00
H9     H     0.88040   0.03300   0.30670   0.01267  Uiso   1.00
H10    H     0.17470   0.69760   0.95570   0.01267  Uiso   1.00
H11    H     0.67630   0.71900   0.87530   0.01267  Uiso   1.00
H12    H     0.03860   0.03850   0.24760   0.01267  Uiso   1.00
H13    H     0.89700   0.92450   0.80910   0.01267  Uiso   1.00
H14    H     0.29570   0.71260   0.46260   0.01267  Uiso   1.00
H15    H     0.61160   0.33670   0.63680   0.01267  Uiso   1.00
H16    H     0.82530   0.30240   0.04430   0.01267  Uiso   1.00
H17    H     0.73810   0.64870   0.86180   0.01267  Uiso   1.00
H18    H     0.58730   0.89190   0.55680   0.01267  Uiso   1.00
H19    H     0.36410   0.68140   0.01370   0.01267  Uiso   1.00
H20    H     0.61160   0.16330   0.86320   0.01267  Uiso   1.00
H21    H     0.23930   0.32890   0.09330   0.01267  Uiso   1.00
H22    H     0.38840   0.66330   0.36320   0.01267  Uiso   1.00
H23    H     0.70430   0.21260   0.96260   0.01267  Uiso   1.00
H24    H     0.87140   0.20930   0.08150   0.01267  Uiso   1.00
H25    H     0.23930   0.17110   0.40670   0.01267  Uiso   1.00
H26    H     0.70710   0.79170   0.50110   0.01267  Uiso   1.00
H27    H     0.70430   0.28740   0.53740   0.01267  Uiso   1.00
H28    H     0.85320   0.00330   0.91930   0.01267  Uiso   1.00
H29    H     0.62680   0.00490   0.69260   0.01267  Uiso   1.00
H30    H     0.96140   0.96150   0.75240   0.01267  Uiso   1.00
H31    H     0.63590   0.18140   0.51370   0.01267  Uiso   1.00
H32    H     0.53360   0.16510   0.33820   0.01267  Uiso   1.00
H33    H     0.62450   0.00850   0.62240   0.01267  Uiso   1.00
H34    H     0.29290   0.29170   0.00110   0.01267  Uiso   1.00
H35    H     0.38840   0.83670   0.13680   0.01267  Uiso   1.00
H36    H     0.41270   0.39190   0.05680   0.01267  Uiso   1.00
H37    H     0.51520   0.23230   0.64590   0.01267  Uiso   1.00
H38    H     0.12920   0.96990   0.62640   0.01267  Uiso   1.00
H39    H     0.47870   0.37070   0.87710   0.01267  Uiso   1.00
H40    H     0.73810   0.85130   0.63820   0.01267  Uiso   1.00
H41    H     0.79530   0.90090   0.93380   0.01267  Uiso   1.00
H42    H     0.41270   0.10810   0.44320   0.01267  Uiso   1.00
H43    H     0.37320   0.99510   0.30740   0.01267  Uiso   1.00
H44    H     0.17470   0.80240   0.54430   0.01267  Uiso   1.00
H45    H     0.70710   0.70830   0.99890   0.01267  Uiso   1.00
H46    H     0.67840   0.68670   0.52840   0.01267  Uiso   1.00
H47    H     0.29290   0.20830   0.49890   0.01267  Uiso   1.00
H48    H     0.72970   0.10730   0.81900   0.01267  Uiso   1.00
H49    H     0.47870   0.12930   0.62290   0.01267  Uiso   1.00
H50    H     0.32160   0.31330   0.47160   0.01267  Uiso   1.00
H51    H     0.87080   0.46990   0.12640   0.01267  Uiso   1.00
H52    H     0.87080   0.03010   0.37360   0.01267  Uiso   1.00
H53    H     0.72970   0.39270   0.68100   0.01267  Uiso   1.00
H54    H     0.58730   0.60810   0.94320   0.01267  Uiso   1.00
H55    H     0.27030   0.89270   0.18100   0.01267  Uiso   1.00
H56    H     0.79530   0.59910   0.56620   0.01267  Uiso   1.00
H57    H     0.32160   0.18670   0.02840   0.01267  Uiso   1.00
H58    H     0.12860   0.79070   0.91850   0.01267  Uiso   1.00
H59    H     0.27030   0.60730   0.31900   0.01267  Uiso   1.00
H60    H     0.62680   0.49510   0.80740   0.01267  Uiso   1.00
H61    H     0.14680   0.50330   0.41930   0.01267  Uiso   1.00
H62    H     0.76070   0.67110   0.90670   0.01267  Uiso   1.00
H63    H     0.12920   0.53010   0.87360   0.01267  Uiso   1.00
H64    H     0.52130   0.87070   0.37710   0.01267  Uiso   1.00
H65    H     0.52130   0.62930   0.12290   0.01267  Uiso   1.00
H66    H     0.89700   0.57550   0.69090   0.01267  Uiso   1.00
H67    H     0.64680   0.10920   0.35740   0.01267  Uiso   1.00
H68    H     0.35320   0.60920   0.85740   0.01267  Uiso   1.00
H69    H     0.67950   0.18360   0.36850   0.01267  Uiso   1.00
H70    H     0.67630   0.78100   0.62470   0.01267  Uiso   1.00
H71    H     0.64680   0.39080   0.14260   0.01267  Uiso   1.00
H72    H     0.62450   0.49150   0.87760   0.01267  Uiso   1.00
H73    H     0.10300   0.07550   0.19090   0.01267  Uiso   1.00
H74    H     0.63590   0.31860   0.98630   0.01267  Uiso   1.00
H75    H     0.37320   0.50490   0.19260   0.01267  Uiso   1.00
H76    H     0.11960   0.53300   0.80670   0.01267  Uiso   1.00
H77    H     0.32370   0.21900   0.37530   0.01267  Uiso   1.00
H78    H     0.20470   0.09910   0.06620   0.01267  Uiso   1.00
H79    H     0.32050   0.81640   0.63150   0.01267  Uiso   1.00
H80    H     0.11960   0.96700   0.69330   0.01267  Uiso   1.00
H81    H     0.46640   0.66510   0.83820   0.01267  Uiso   1.00
H82    H     0.87140   0.29070   0.41850   0.01267  Uiso   1.00
H83    H     0.37550   0.50850   0.12240   0.01267  Uiso   1.00
H84    H     0.53360   0.33490   0.16180   0.01267  Uiso   1.00
H85    H     0.48480   0.73230   0.14590   0.01267  Uiso   1.00
H86    H     0.48480   0.76770   0.35410   0.01267  Uiso   1.00
H87    H     0.14680   0.99670   0.08070   0.01267  Uiso   1.00
H88    H     0.46640   0.83490   0.66180   0.01267  Uiso   1.00
H89    H     0.51520   0.26770   0.85410   0.01267  Uiso   1.00
H90    H     0.03860   0.46150   0.25240   0.01267  Uiso   1.00
H91    H     0.76070   0.82890   0.59330   0.01267  Uiso   1.00
H92    H     0.12860   0.70930   0.58150   0.01267  Uiso   1.00
H93    H     0.26190   0.35130   0.13820   0.01267  Uiso   1.00
H94    H     0.67840   0.81330   0.97160   0.01267  Uiso   1.00
H95    H     0.26190   0.14870   0.36180   0.01267  Uiso   1.00
H96    H     0.20470   0.40090   0.43380   0.01267  Uiso   1.00
H97    H     0.35320   0.89080   0.64260   0.01267  Uiso   1.00
H98    H     0.29570   0.78740   0.03740   0.01267  Uiso   1.00
H99    H     0.88040   0.46700   0.19330   0.01267  Uiso   1.00
H100   H     0.85320   0.49670   0.58070   0.01267  Uiso   1.00
C1     C     0.95340   0.22380   0.06320   0.01267  Uiso   1.00
C2     C     0.23330   0.93120   0.16830   0.01267  Uiso   1.00
C3     C     0.83780   0.49350   0.60850   0.01267  Uiso   1.00
C4     C     0.87280   0.95020   0.86670   0.01267  Uiso   1.00
C5     C     0.50340   0.38650   0.07470   0.01267  Uiso   1.00
C6     C     0.52570   0.35150   0.93620   0.01267  Uiso   1.00
C7     C     0.08100   0.38550   0.38310   0.01267  Uiso   1.00
C8     C     0.83780   0.00650   0.89150   0.01267  Uiso   1.00
C9     C     0.80790   0.01480   0.80980   0.01267  Uiso   1.00
C10    C     0.87550   0.51320   0.88440   0.01267  Uiso   1.00
C11    C     0.05300   0.30820   0.01690   0.01267  Uiso   1.00
C12    C     0.45790   0.72250   0.11930   0.01267  Uiso   1.00
C13    C     0.49660   0.61350   0.92530   0.01267  Uiso   1.00
C14    C     0.20130   0.27330   0.01510   0.01267  Uiso   1.00
C15    C     0.61940   0.27480   0.59330   0.01267  Uiso   1.00
C16    C     0.27490   0.00060   0.36370   0.01267  Uiso   1.00
C17    C     0.08100   0.11450   0.11690   0.01267  Uiso   1.00
C18    C     0.60790   0.19300   0.54000   0.01267  Uiso   1.00
C19    C     0.51100   0.16260   0.60520   0.01267  Uiso   1.00
C20    C     0.75550   0.11780   0.90270   0.01267  Uiso   1.00
C21    C     0.92970   0.28080   0.04190   0.01267  Uiso   1.00
C22    C     0.21930   0.93390   0.12540   0.01267  Uiso   1.00
C23    C     0.31180   0.32640   0.11660   0.01267  Uiso   1.00
C24    C     0.12720   0.04980   0.13330   0.01267  Uiso   1.00
C25    C     0.52570   0.14850   0.56380   0.01267  Uiso   1.00
C26    C     0.05300   0.19180   0.48310   0.01267  Uiso   1.00
C27    C     0.39210   0.80700   0.46000   0.01267  Uiso   1.00
C28    C     0.80790   0.48520   0.69020   0.01267  Uiso   1.00
C29    C     0.86920   0.98720   0.69830   0.01267  Uiso   1.00
C30    C     0.95340   0.27620   0.43680   0.01267  Uiso   1.00
C31    C     0.51100   0.33740   0.89480   0.01267  Uiso   1.00
C32    C     0.94700   0.80820   0.51690   0.01267  Uiso   1.00
C33    C     0.65220   0.24290   0.94530   0.01267  Uiso   1.00
C34    C     0.34780   0.75710   0.05470   0.01267  Uiso   1.00
C35    C     0.09780   0.18890   0.05730   0.01267  Uiso   1.00
C36    C     0.96780   0.62540   0.99900   0.01267  Uiso   1.00
C37    C     0.78040   0.47770   0.73470   0.01267  Uiso   1.00
C38    C     0.94700   0.69180   0.98310   0.01267  Uiso   1.00
C39    C     0.47380   0.08550   0.54880   0.01267  Uiso   1.00
C40    C     0.87550   0.98680   0.61560   0.01267  Uiso   1.00
C41    C     0.76670   0.06880   0.83170   0.01267  Uiso   1.00
C42    C     0.79870   0.77330   0.51510   0.01267  Uiso   1.00
C43    C     0.90220   0.81110   0.94270   0.01267  Uiso   1.00
C44    C     0.97480   0.47630   0.13940   0.01267  Uiso   1.00
C45    C     0.13660   0.04120   0.17400   0.01267  Uiso   1.00
C46    C     0.19210   0.98520   0.19020   0.01267  Uiso   1.00
C47    C     0.40640   0.65140   0.86200   0.01267  Uiso   1.00
C48    C     0.59360   0.15140   0.36200   0.01267  Uiso   1.00
C49    C     0.13080   0.48720   0.19830   0.01267  Uiso   1.00
C50    C     0.34780   0.74290   0.44530   0.01267  Uiso   1.00
C51    C     0.88420   0.99010   0.57120   0.01267  Uiso   1.00
C52    C     0.65220   0.25710   0.55470   0.01267  Uiso   1.00
C53    C     0.79870   0.72670   0.98490   0.01267  Uiso   1.00
C54    C     0.23330   0.56880   0.33170   0.01267  Uiso   1.00
C55    C     0.86340   0.54120   0.67400   0.01267  Uiso   1.00
C56    C     0.68820   0.82640   0.61660   0.01267  Uiso   1.00
C57    C     0.45790   0.77750   0.38070   0.01267  Uiso   1.00
C58    C     0.48900   0.83740   0.39480   0.01267  Uiso   1.00
C59    C     0.76670   0.43120   0.66830   0.01267  Uiso   1.00
C60    C     0.60790   0.30700   0.96000   0.01267  Uiso   1.00
C61    C     0.04660   0.77620   0.93680   0.01267  Uiso   1.00
C62    C     0.02070   0.52440   0.82140   0.01267  Uiso   1.00
C63    C     0.27230   0.49800   0.17840   0.01267  Uiso   1.00
C64    C     0.12450   0.01320   0.38440   0.01267  Uiso   1.00
C65    C     0.24450   0.61780   0.40270   0.01267  Uiso   1.00
C66    C     0.86920   0.51280   0.80170   0.01267  Uiso   1.00
C67    C     0.72770   0.99800   0.67840   0.01267  Uiso   1.00
C68    C     0.16220   0.50650   0.39150   0.01267  Uiso   1.00
C69    C     0.47430   0.85150   0.43620   0.01267  Uiso   1.00
C70    C     0.90220   0.68890   0.55730   0.01267  Uiso   1.00
C71    C     0.22360   0.28840   0.46700   0.01267  Uiso   1.00
C72    C     0.04660   0.72380   0.56320   0.01267  Uiso   1.00
C73    C     0.27490   0.49940   0.13630   0.01267  Uiso   1.00
C74    C     0.38060   0.77480   0.09330   0.01267  Uiso   1.00
C75    C     0.97930   0.02440   0.32140   0.01267  Uiso   1.00
C76    C     0.52620   0.58550   0.04880   0.01267  Uiso   1.00
C77    C     0.49660   0.88650   0.57470   0.01267  Uiso   1.00
C78    C     0.21960   0.97770   0.23470   0.01267  Uiso   1.00
C79    C     0.22360   0.21160   0.03300   0.01267  Uiso   1.00
C80    C     0.39210   0.69300   0.04000   0.01267  Uiso   1.00
C81    C     0.68820   0.67360   0.88340   0.01267  Uiso   1.00
C82    C     0.91900   0.88550   0.88310   0.01267  Uiso   1.00
C83    C     0.21930   0.56610   0.37460   0.01267  Uiso   1.00
C84    C     0.54210   0.27750   0.88070   0.01267  Uiso   1.00
C85    C     0.19210   0.51480   0.30980   0.01267  Uiso   1.00
C86    C     0.72770   0.50200   0.82160   0.01267  Uiso   1.00
C87    C     0.52620   0.91450   0.45120   0.01267  Uiso   1.00
C88    C     0.07030   0.78080   0.54190   0.01267  Uiso   1.00
C89    C     0.12720   0.45020   0.36670   0.01267  Uiso   1.00
C90    C     0.16220   0.99350   0.10850   0.01267  Uiso   1.00
C91    C     0.12450   0.48680   0.11560   0.01267  Uiso   1.00
C92    C     0.27230   0.00200   0.32160   0.01267  Uiso   1.00
C93    C     0.03220   0.12540   0.49900   0.01267  Uiso   1.00
C94    C     0.13660   0.45880   0.32600   0.01267  Uiso   1.00
C95    C     0.78040   0.02230   0.76530   0.01267  Uiso   1.00
C96    C     0.31180   0.17360   0.38340   0.01267  Uiso   1.00
C97    C     0.97480   0.02370   0.36060   0.01267  Uiso   1.00
C98    C     0.20130   0.22670   0.48490   0.01267  Uiso   1.00
C99    C     0.24450   0.88220   0.09730   0.01267  Uiso   1.00
C100   C     0.91900   0.61450   0.61690   0.01267  Uiso   1.00
C101   C     0.03220   0.37460   0.00100   0.01267  Uiso   1.00
C102   C     0.11580   0.00990   0.42880   0.01267  Uiso   1.00
C103   C     0.38060   0.72520   0.40670   0.01267  Uiso   1.00
C104   C     0.07030   0.71920   0.95810   0.01267  Uiso   1.00
C105   C     0.13080   0.01280   0.30170   0.01267  Uiso   1.00
C106   C     0.47380   0.41450   0.95120   0.01267  Uiso   1.00
C107   C     0.77640   0.71160   0.53300   0.01267  Uiso   1.00
C108   C     0.02520   0.97630   0.63940   0.01267  Uiso   1.00
C109   C     0.88420   0.50990   0.92880   0.01267  Uiso   1.00
C110   C     0.59360   0.34860   0.13800   0.01267  Uiso   1.00
C111   C     0.86340   0.95880   0.82600   0.01267  Uiso   1.00
C112   C     0.02070   0.97560   0.67860   0.01267  Uiso   1.00
C113   C     0.77640   0.78840   0.96700   0.01267  Uiso   1.00
C114   C     0.11580   0.49010   0.07120   0.01267  Uiso   1.00
C115   C     0.47430   0.64850   0.06380   0.01267  Uiso   1.00
C116   C     0.54210   0.22250   0.61930   0.01267  Uiso   1.00
C117   C     0.78070   0.06610   0.87460   0.01267  Uiso   1.00
C118   C     0.02520   0.52370   0.86060   0.01267  Uiso   1.00
C119   C     0.87280   0.54980   0.63330   0.01267  Uiso   1.00
C120   C     0.92970   0.21920   0.45810   0.01267  Uiso   1.00
C121   C     0.78070   0.43390   0.62540   0.01267  Uiso   1.00
C122   C     0.50340   0.11350   0.42530   0.01267  Uiso   1.00
C123   C     0.40640   0.84860   0.63800   0.01267  Uiso   1.00
C124   C     0.72510   0.50060   0.86370   0.01267  Uiso   1.00
C125   C     0.09780   0.31110   0.44270   0.01267  Uiso   1.00
C126   C     0.21960   0.52230   0.26530   0.01267  Uiso   1.00
C127   C     0.61940   0.22520   0.90670   0.01267  Uiso   1.00
C128   C     0.48900   0.66260   0.10520   0.01267  Uiso   1.00
C129   C     0.75550   0.38220   0.59730   0.01267  Uiso   1.00
C130   C     0.96780   0.87460   0.50100   0.01267  Uiso   1.00
C131   C     0.97930   0.47560   0.17860   0.01267  Uiso   1.00
C132   C     0.72510   0.99940   0.63630   0.01267  Uiso   1.00
N1     N     0.51840   0.85390   0.60670   0.01267  Uiso   1.00
N2     N     0.34390   0.66910   0.38760   0.01267  Uiso   1.00
N3     N     0.13870   0.37130   0.42150   0.01267  Uiso   1.00
N4     N     0.11820   0.48700   0.24100   0.01267  Uiso   1.00
N5     N     0.65610   0.33090   0.61240   0.01267  Uiso   1.00
N6     N     0.48160   0.14610   0.39330   0.01267  Uiso   1.00
N7     N     0.86130   0.62870   0.57850   0.01267  Uiso   1.00
N8     N     0.88180   0.98700   0.74100   0.01267  Uiso   1.00
N9     N     0.13870   0.12870   0.07850   0.01267  Uiso   1.00
N10    N     0.51840   0.64610   0.89330   0.01267  Uiso   1.00
N11    N     0.65610   0.16910   0.88760   0.01267  Uiso   1.00
N12    N     0.48160   0.35390   0.10670   0.01267  Uiso   1.00
N13    N     0.88180   0.51300   0.75900   0.01267  Uiso   1.00
N14    N     0.11820   0.01300   0.25900   0.01267  Uiso   1.00
N15    N     0.34390   0.83090   0.11240   0.01267  Uiso   1.00
N16    N     0.86130   0.87130   0.92150   0.01267  Uiso   1.00
O1     O     0.37570   0.05007   0.56973   0.01267  Uiso   1.00
O2     O     0.02770   0.51242   0.94498   0.01267  Uiso   1.00
O3     O     0.87860   0.10372   0.50228   0.01267  Uiso   1.00
O4     O     0.83960   0.59455   0.00955   0.01267  Uiso   1.00
O5     O     0.99730   0.65080   0.63740   0.01267  Uiso   1.00
O6     O     0.62430   0.94993   0.43027   0.01267  Uiso   1.00
O7     O     0.87860   0.39628   0.99772   0.01267  Uiso   1.00
O8     O     0.33040   0.55790   0.25170   0.01267  Uiso   1.00
O9     O     0.97230   0.48758   0.05502   0.01267  Uiso   1.00
O10    O     0.00270   0.15080   0.13740   0.01267  Uiso   1.00
O11    O     0.83960   0.90545   0.49045   0.01267  Uiso   1.00
O12    O     0.50400   0.43472   0.98688   0.01267  Uiso   1.00
O13    O     0.99730   0.84920   0.86260   0.01267  Uiso   1.00
O14    O     0.00270   0.34920   0.36260   0.01267  Uiso   1.00
O15    O     0.35540   0.91180   0.56650   0.01267  Uiso   1.00
O16    O     0.16040   0.09455   0.50955   0.01267  Uiso   1.00
O17    O     0.62430   0.55007   0.06973   0.01267  Uiso   1.00
O18    O     0.35540   0.58820   0.93350   0.01267  Uiso   1.00
O19    O     0.02770   0.98758   0.55502   0.01267  Uiso   1.00
O20    O     0.66960   0.05790   0.75170   0.01267  Uiso   1.00
O21    O     0.81100   0.38210   0.56460   0.01267  Uiso   1.00
O22    O     0.50400   0.06528   0.51312   0.01267  Uiso   1.00
O23    O     0.49600   0.56528   0.01312   0.01267  Uiso   1.00
O24    O     0.66960   0.44210   0.74830   0.01267  Uiso   1.00
O25    O     0.49600   0.93472   0.48688   0.01267  Uiso   1.00
O26    O     0.97230   0.01242   0.44498   0.01267  Uiso   1.00
O27    O     0.33040   0.94210   0.24830   0.01267  Uiso   1.00
O28    O     0.12140   0.60372   0.00228   0.01267  Uiso   1.00
O29    O     0.64460   0.41180   0.06650   0.01267  Uiso   1.00
O30    O     0.74920   0.49414   0.94866   0.01267  Uiso   1.00
O31    O     0.16040   0.40545   0.99045   0.01267  Uiso   1.00
O32    O     0.12140   0.89628   0.49772   0.01267  Uiso   1.00
O33    O     0.25080   0.99414   0.44866   0.01267  Uiso   1.00
O34    O     0.18900   0.61790   0.43540   0.01267  Uiso   1.00
O35    O     0.25080   0.50586   0.05134   0.01267  Uiso   1.00
O36    O     0.81100   0.11790   0.93540   0.01267  Uiso   1.00
O37    O     0.74920   0.00586   0.55134   0.01267  Uiso   1.00
O38    O     0.18900   0.88210   0.06460   0.01267  Uiso   1.00
O39    O     0.64460   0.08820   0.43350   0.01267  Uiso   1.00
O40    O     0.37570   0.44993   0.93027   0.01267  Uiso   1.00
