data_ic401157n_si_002_freeONLY
_audit_creation_date              2015-08-19
_audit_creation_method            'Materials Studio'
_symmetry_space_group_name_H-M    'P1'
_symmetry_Int_Tables_number       1
_symmetry_cell_setting            triclinic
loop_
_symmetry_equiv_pos_as_xyz
  x,y,z
_cell_length_a                    16.2680
_cell_length_b                    18.5820
_cell_length_c                    34.5890
_cell_angle_alpha                 90.0000
_cell_angle_beta                  90.0000
_cell_angle_gamma                 103.8100
loop_
_atom_site_label
_atom_site_type_symbol
_atom_site_fract_x
_atom_site_fract_y
_atom_site_fract_z
_atom_site_U_iso_or_equiv
_atom_site_adp_type
_atom_site_occupancy
La1    La    0.79297   0.29500   0.76186   0.01267  Uiso   1.00
La2    La    0.95642   0.67939   0.24827   0.01267  Uiso   1.00
La3    La    0.70703   0.70500   0.26186   0.01267  Uiso   1.00
La4    La    0.20703   0.70500   0.23814   0.01267  Uiso   1.00
La5    La    0.04358   0.32061   0.75173   0.01267  Uiso   1.00
La6    La    0.29297   0.29500   0.73814   0.01267  Uiso   1.00
La7    La    0.54358   0.32061   0.74827   0.01267  Uiso   1.00
La8    La    0.45642   0.67939   0.25173   0.01267  Uiso   1.00
H1     H     0.23320   0.66750   0.93270   0.01267  Uiso   1.00
H2     H     0.04490   0.82020   0.33200   0.01267  Uiso   1.00
H3     H     0.78750   0.58740   0.70430   0.01267  Uiso   1.00
H4     H     0.05170   0.43320   0.13410   0.01267  Uiso   1.00
H5     H     0.34940   0.64040   0.39880   0.01267  Uiso   1.00
H6     H     0.54190   0.55810   0.30490   0.01267  Uiso   1.00
H7     H     0.04310   0.24320   0.89290   0.01267  Uiso   1.00
H8     H     0.95520   0.22180   0.34230   0.01267  Uiso   1.00
H9     H     0.54520   0.32220   0.86810   0.01267  Uiso   1.00
H10    H     0.68110   0.86390   0.54610   0.01267  Uiso   1.00
H11    H     0.00300   0.78390   0.04550   0.01267  Uiso   1.00
H12    H     0.72330   0.17330   0.67660   0.01267  Uiso   1.00
H13    H     0.65060   0.35960   0.60120   0.01267  Uiso   1.00
H14    H     0.74670   0.51420   0.36140   0.01267  Uiso   1.00
H15    H     0.16170   0.52440   0.74280   0.01267  Uiso   1.00
H16    H     0.84410   0.50090   0.73480   0.01267  Uiso   1.00
H17    H     0.59860   0.51640   0.35680   0.01267  Uiso   1.00
H18    H     0.13870   0.06340   0.29170   0.01267  Uiso   1.00
H19    H     0.04630   0.93980   0.80810   0.01267  Uiso   1.00
H20    H     0.74890   0.07220   0.64290   0.01267  Uiso   1.00
H21    H     0.17400   0.96860   0.25550   0.01267  Uiso   1.00
H22    H     0.21250   0.41260   0.29570   0.01267  Uiso   1.00
H23    H     0.07180   0.42750   0.38920   0.01267  Uiso   1.00
H24    H     0.20530   0.70060   0.06720   0.01267  Uiso   1.00
H25    H     0.53760   0.71320   0.95310   0.01267  Uiso   1.00
H26    H     0.30060   0.42010   0.11190   0.01267  Uiso   1.00
H27    H     0.40140   0.48360   0.64320   0.01267  Uiso   1.00
H28    H     0.86280   0.37050   0.59630   0.01267  Uiso   1.00
H29    H     0.95690   0.75680   0.10710   0.01267  Uiso   1.00
H30    H     0.67400   0.96860   0.24450   0.01267  Uiso   1.00
H31    H     0.83830   0.47560   0.25720   0.01267  Uiso   1.00
H32    H     0.95830   0.95750   0.61820   0.01267  Uiso   1.00
H33    H     0.95510   0.17980   0.66800   0.01267  Uiso   1.00
H34    H     0.45690   0.75680   0.39290   0.01267  Uiso   1.00
H35    H     0.33570   0.31480   0.63150   0.01267  Uiso   1.00
H36    H     0.24610   0.81590   0.84650   0.01267  Uiso   1.00
H37    H     0.45510   0.17980   0.83200   0.01267  Uiso   1.00
H38    H     0.36060   0.10930   0.34390   0.01267  Uiso   1.00
H39    H     0.03760   0.71320   0.54690   0.01267  Uiso   1.00
H40    H     0.64210   0.16370   0.95080   0.01267  Uiso   1.00
H41    H     0.77670   0.82670   0.17660   0.01267  Uiso   1.00
H42    H     0.95480   0.67780   0.36810   0.01267  Uiso   1.00
H43    H     0.96550   0.50180   0.89190   0.01267  Uiso   1.00
H44    H     0.29470   0.29940   0.56720   0.01267  Uiso   1.00
H45    H     0.10280   0.69770   0.66600   0.01267  Uiso   1.00
H46    H     0.24670   0.51420   0.13860   0.01267  Uiso   1.00
H47    H     0.90140   0.48360   0.85680   0.01267  Uiso   1.00
H48    H     0.54170   0.04250   0.11820   0.01267  Uiso   1.00
H49    H     0.29810   0.63240   0.32140   0.01267  Uiso   1.00
H50    H     0.00130   0.26130   0.50720   0.01267  Uiso   1.00
H51    H     0.54490   0.82020   0.16800   0.01267  Uiso   1.00
H52    H     0.14210   0.16370   0.54920   0.01267  Uiso   1.00
H53    H     0.04190   0.55810   0.19510   0.01267  Uiso   1.00
H54    H     0.76960   0.58600   0.08230   0.01267  Uiso   1.00
H55    H     0.70530   0.70060   0.43280   0.01267  Uiso   1.00
H56    H     0.89200   0.43730   0.12040   0.01267  Uiso   1.00
H57    H     0.55170   0.43320   0.36590   0.01267  Uiso   1.00
H58    H     0.28750   0.58740   0.79570   0.01267  Uiso   1.00
H59    H     0.51660   0.91510   0.13090   0.01267  Uiso   1.00
H60    H     0.75110   0.92780   0.14290   0.01267  Uiso   1.00
H61    H     0.85370   0.48910   0.14800   0.01267  Uiso   1.00
H62    H     0.46240   0.28680   0.04690   0.01267  Uiso   1.00
H63    H     0.75390   0.18410   0.15350   0.01267  Uiso   1.00
H64    H     0.69940   0.57990   0.88810   0.01267  Uiso   1.00
H65    H     0.48340   0.08490   0.86910   0.01267  Uiso   1.00
H66    H     0.99880   0.30890   0.56850   0.01267  Uiso   1.00
H67    H     0.23040   0.41400   0.91770   0.01267  Uiso   1.00
H68    H     0.50130   0.26130   0.99280   0.01267  Uiso   1.00
H69    H     0.65590   0.49910   0.23480   0.01267  Uiso   1.00
H70    H     0.61460   0.80300   0.50050   0.01267  Uiso   1.00
H71    H     0.54480   0.77820   0.84230   0.01267  Uiso   1.00
H72    H     0.18110   0.86390   0.95390   0.01267  Uiso   1.00
H73    H     0.79470   0.29940   0.93280   0.01267  Uiso   1.00
H74    H     0.01290   0.51210   0.35830   0.01267  Uiso   1.00
H75    H     0.94830   0.56680   0.86590   0.01267  Uiso   1.00
H76    H     0.84940   0.64040   0.10120   0.01267  Uiso   1.00
H77    H     0.11460   0.80300   0.99950   0.01267  Uiso   1.00
H78    H     0.85790   0.83630   0.45080   0.01267  Uiso   1.00
H79    H     0.76680   0.33250   0.06730   0.01267  Uiso   1.00
H80    H     0.24890   0.07220   0.85710   0.01267  Uiso   1.00
H81    H     0.63090   0.67300   0.13520   0.01267  Uiso   1.00
H82    H     0.82600   0.03140   0.74450   0.01267  Uiso   1.00
H83    H     0.00120   0.69110   0.43150   0.01267  Uiso   1.00
H84    H     0.98710   0.48790   0.64170   0.01267  Uiso   1.00
H85    H     0.54630   0.93980   0.69190   0.01267  Uiso   1.00
H86    H     0.99040   0.95700   0.21900   0.01267  Uiso   1.00
H87    H     0.45370   0.06020   0.30810   0.01267  Uiso   1.00
H88    H     0.36130   0.93660   0.79170   0.01267  Uiso   1.00
H89    H     0.49880   0.30890   0.93150   0.01267  Uiso   1.00
H90    H     0.15590   0.49910   0.26520   0.01267  Uiso   1.00
H91    H     0.20190   0.36760   0.82140   0.01267  Uiso   1.00
H92    H     0.74610   0.81590   0.65350   0.01267  Uiso   1.00
H93    H     0.04480   0.77820   0.65770   0.01267  Uiso   1.00
H94    H     0.86910   0.32700   0.63520   0.01267  Uiso   1.00
H95    H     0.69040   0.43730   0.62070   0.01267  Uiso   1.00
H96    H     0.63400   0.58800   0.66340   0.01267  Uiso   1.00
H97    H     0.44830   0.56680   0.63410   0.01267  Uiso   1.00
H98    H     0.13400   0.58800   0.83660   0.01267  Uiso   1.00
H99    H     0.04170   0.04250   0.38180   0.01267  Uiso   1.00
H100   H     0.86060   0.10930   0.15610   0.01267  Uiso   1.00
H101   H     0.03450   0.49820   0.10810   0.01267  Uiso   1.00
H102   H     0.49700   0.21610   0.54550   0.01267  Uiso   1.00
H103   H     0.04520   0.32220   0.63190   0.01267  Uiso   1.00
H104   H     0.01660   0.91510   0.36910   0.01267  Uiso   1.00
H105   H     0.96240   0.28680   0.45310   0.01267  Uiso   1.00
H106   H     0.13940   0.89070   0.84390   0.01267  Uiso   1.00
H107   H     0.34410   0.50090   0.76520   0.01267  Uiso   1.00
H108   H     0.45830   0.95750   0.88180   0.01267  Uiso   1.00
H109   H     0.48710   0.48790   0.85830   0.01267  Uiso   1.00
H110   H     0.63940   0.89070   0.65610   0.01267  Uiso   1.00
H111   H     0.66430   0.68520   0.36850   0.01267  Uiso   1.00
H112   H     0.19040   0.43730   0.87930   0.01267  Uiso   1.00
H113   H     0.46550   0.50180   0.60810   0.01267  Uiso   1.00
H114   H     0.15060   0.35960   0.89880   0.01267  Uiso   1.00
H115   H     0.33830   0.47560   0.24280   0.01267  Uiso   1.00
H116   H     0.35790   0.83630   0.04920   0.01267  Uiso   1.00
H117   H     0.89720   0.30230   0.33400   0.01267  Uiso   1.00
H118   H     0.39200   0.43730   0.37960   0.01267  Uiso   1.00
H119   H     0.27670   0.82670   0.32340   0.01267  Uiso   1.00
H120   H     0.60280   0.69770   0.83400   0.01267  Uiso   1.00
H121   H     0.81890   0.13610   0.04610   0.01267  Uiso   1.00
H122   H     0.10800   0.56270   0.87960   0.01267  Uiso   1.00
H123   H     0.49040   0.95700   0.28100   0.01267  Uiso   1.00
H124   H     0.18260   0.17410   0.61330   0.01267  Uiso   1.00
H125   H     0.80060   0.42010   0.38810   0.01267  Uiso   1.00
H126   H     0.26680   0.33250   0.43270   0.01267  Uiso   1.00
H127   H     0.25330   0.48580   0.63860   0.01267  Uiso   1.00
H128   H     0.45520   0.22180   0.15770   0.01267  Uiso   1.00
H129   H     0.50960   0.04300   0.71900   0.01267  Uiso   1.00
H130   H     0.39720   0.30230   0.16600   0.01267  Uiso   1.00
H131   H     0.80960   0.56270   0.12070   0.01267  Uiso   1.00
H132   H     0.38540   0.19700   0.49950   0.01267  Uiso   1.00
H133   H     0.49870   0.73870   0.00720   0.01267  Uiso   1.00
H134   H     0.81740   0.82590   0.38670   0.01267  Uiso   1.00
H135   H     0.30990   0.28760   0.89880   0.01267  Uiso   1.00
H136   H     0.50120   0.69110   0.06850   0.01267  Uiso   1.00
H137   H     0.31890   0.13610   0.45390   0.01267  Uiso   1.00
H138   H     0.68140   0.36660   0.10400   0.01267  Uiso   1.00
H139   H     0.86600   0.41200   0.16340   0.01267  Uiso   1.00
H140   H     0.71250   0.41260   0.20430   0.01267  Uiso   1.00
H141   H     0.83570   0.31480   0.86850   0.01267  Uiso   1.00
H142   H     0.63870   0.06340   0.20830   0.01267  Uiso   1.00
H143   H     0.95810   0.44190   0.80490   0.01267  Uiso   1.00
H144   H     0.45480   0.67780   0.13190   0.01267  Uiso   1.00
H145   H     0.19010   0.71240   0.39880   0.01267  Uiso   1.00
H146   H     0.53450   0.49820   0.39190   0.01267  Uiso   1.00
H147   H     0.88740   0.37940   0.28260   0.01267  Uiso   1.00
H148   H     0.98340   0.08490   0.63090   0.01267  Uiso   1.00
H149   H     0.51290   0.51210   0.14170   0.01267  Uiso   1.00
H150   H     0.64630   0.51090   0.64800   0.01267  Uiso   1.00
H151   H     0.13720   0.62950   0.40370   0.01267  Uiso   1.00
H152   H     0.88540   0.19700   0.00050   0.01267  Uiso   1.00
H153   H     0.63720   0.62950   0.09630   0.01267  Uiso   1.00
H154   H     0.31740   0.82590   0.11330   0.01267  Uiso   1.00
H155   H     0.75330   0.48580   0.86140   0.01267  Uiso   1.00
H156   H     0.16430   0.68520   0.13150   0.01267  Uiso   1.00
H157   H     0.99700   0.21610   0.95450   0.01267  Uiso   1.00
H158   H     0.35370   0.48910   0.35200   0.01267  Uiso   1.00
H159   H     0.91410   0.86720   0.57920   0.01267  Uiso   1.00
H160   H     0.25390   0.18410   0.34650   0.01267  Uiso   1.00
H161   H     0.81860   0.63340   0.60400   0.01267  Uiso   1.00
H162   H     0.41410   0.86720   0.92080   0.01267  Uiso   1.00
H163   H     0.66170   0.52440   0.75720   0.01267  Uiso   1.00
H164   H     0.95370   0.06020   0.19190   0.01267  Uiso   1.00
H165   H     0.80990   0.28760   0.60120   0.01267  Uiso   1.00
H166   H     0.57180   0.42750   0.11080   0.01267  Uiso   1.00
H167   H     0.54310   0.24320   0.60710   0.01267  Uiso   1.00
H168   H     0.68260   0.17410   0.88670   0.01267  Uiso   1.00
H169   H     0.69010   0.71240   0.10120   0.01267  Uiso   1.00
H170   H     0.50300   0.78390   0.45450   0.01267  Uiso   1.00
H171   H     0.11260   0.62060   0.71740   0.01267  Uiso   1.00
H172   H     0.60800   0.56270   0.62040   0.01267  Uiso   1.00
H173   H     0.22330   0.17330   0.82340   0.01267  Uiso   1.00
H174   H     0.73320   0.66750   0.56730   0.01267  Uiso   1.00
H175   H     0.13090   0.67300   0.36480   0.01267  Uiso   1.00
H176   H     0.30960   0.56270   0.37930   0.01267  Uiso   1.00
H177   H     0.36910   0.32700   0.86480   0.01267  Uiso   1.00
H178   H     0.86130   0.93660   0.70830   0.01267  Uiso   1.00
H179   H     0.61260   0.62060   0.78260   0.01267  Uiso   1.00
H180   H     0.99870   0.73870   0.49280   0.01267  Uiso   1.00
H181   H     0.70190   0.36760   0.67860   0.01267  Uiso   1.00
H182   H     0.45810   0.44190   0.69510   0.01267  Uiso   1.00
H183   H     0.08590   0.13280   0.42080   0.01267  Uiso   1.00
H184   H     0.36280   0.37050   0.90370   0.01267  Uiso   1.00
H185   H     0.38740   0.37940   0.21740   0.01267  Uiso   1.00
H186   H     0.25110   0.92780   0.35710   0.01267  Uiso   1.00
H187   H     0.19940   0.57990   0.61190   0.01267  Uiso   1.00
H188   H     0.58590   0.13280   0.07920   0.01267  Uiso   1.00
H189   H     0.26960   0.58600   0.41770   0.01267  Uiso   1.00
H190   H     0.92820   0.57250   0.61080   0.01267  Uiso   1.00
H191   H     0.79810   0.63240   0.17860   0.01267  Uiso   1.00
H192   H     0.14630   0.51090   0.85200   0.01267  Uiso   1.00
H193   H     0.00960   0.04300   0.78100   0.01267  Uiso   1.00
H194   H     0.31860   0.63340   0.89600   0.01267  Uiso   1.00
H195   H     0.42820   0.57250   0.88920   0.01267  Uiso   1.00
H196   H     0.18140   0.36660   0.39600   0.01267  Uiso   1.00
H197   H     0.09860   0.51640   0.14320   0.01267  Uiso   1.00
H198   H     0.32600   0.03140   0.75550   0.01267  Uiso   1.00
H199   H     0.36600   0.41200   0.33660   0.01267  Uiso   1.00
H200   H     0.73040   0.41400   0.58230   0.01267  Uiso   1.00
C1     C     0.02150   0.74260   0.56627   0.01267  Uiso   1.00
C2     C     0.60020   0.68190   0.88930   0.01267  Uiso   1.00
C3     C     0.04570   0.57410   0.28864   0.01267  Uiso   1.00
C4     C     0.95370   0.51600   0.86590   0.01267  Uiso   1.00
C5     C     0.02830   0.70840   0.16695   0.01267  Uiso   1.00
C6     C     0.97070   0.79030   0.55596   0.01267  Uiso   1.00
C7     C     0.35460   0.74450   0.17058   0.01267  Uiso   1.00
C8     C     0.11060   0.54590   0.85310   0.01267  Uiso   1.00
C9     C     0.53780   0.28240   0.92290   0.01267  Uiso   1.00
C10    C     0.61850   0.24790   0.87096   0.01267  Uiso   1.00
C11    C     0.83100   0.46460   0.28368   0.01267  Uiso   1.00
C12    C     0.43970   0.95120   0.29500   0.01267  Uiso   1.00
C13    C     0.84790   0.39070   0.33880   0.01267  Uiso   1.00
C14    C     0.29050   0.50740   0.19308   0.01267  Uiso   1.00
C15    C     0.56510   0.86950   0.17605   0.01267  Uiso   1.00
C16    C     0.70530   0.92840   0.61340   0.01267  Uiso   1.00
C17    C     0.40340   0.81600   0.27692   0.01267  Uiso   1.00
C18    C     0.54570   0.57410   0.21136   0.01267  Uiso   1.00
C19    C     0.73380   0.42570   0.79113   0.01267  Uiso   1.00
C20    C     0.47850   0.25740   0.06627   0.01267  Uiso   1.00
C21    C     0.64780   0.99720   0.66260   0.01267  Uiso   1.00
C22    C     0.27220   0.28600   0.42390   0.01267  Uiso   1.00
C23    C     0.93590   0.71060   0.38473   0.01267  Uiso   1.00
C24    C     0.61060   0.54590   0.64690   0.01267  Uiso   1.00
C25    C     0.45300   0.07390   0.84590   0.01267  Uiso   1.00
C26    C     0.55160   0.16530   0.08531   0.01267  Uiso   1.00
C27    C     0.75260   0.26460   0.11470   0.01267  Uiso   1.00
C28    C     0.43260   0.76250   0.05133   0.01267  Uiso   1.00
C29    C     0.72060   0.31070   0.14410   0.01267  Uiso   1.00
C30    C     0.64120   0.95750   0.22191   0.01267  Uiso   1.00
C31    C     0.04630   0.48400   0.13410   0.01267  Uiso   1.00
C32    C     0.56030   0.04880   0.70500   0.01267  Uiso   1.00
C33    C     0.79970   0.23830   0.05110   0.01267  Uiso   1.00
C34    C     0.06740   0.23750   0.55133   0.01267  Uiso   1.00
C35    C     0.89980   0.31810   0.38930   0.01267  Uiso   1.00
C36    C     0.37960   0.98600   0.80000   0.01267  Uiso   1.00
C37    C     0.36000   0.40740   0.20147   0.01267  Uiso   1.00
C38    C     0.47350   0.21870   0.13214   0.01267  Uiso   1.00
C39    C     0.31440   0.87340   0.32100   0.01267  Uiso   1.00
C40    C     0.54630   0.48400   0.36590   0.01267  Uiso   1.00
C41    C     0.74740   0.73540   0.61470   0.01267  Uiso   1.00
C42    C     0.19540   0.83020   0.93630   0.01267  Uiso   1.00
C43    C     0.56740   0.20280   0.01730   0.01267  Uiso   1.00
C44    C     0.59660   0.18400   0.72308   0.01267  Uiso   1.00
C45    C     0.94840   0.83470   0.58531   0.01267  Uiso   1.00
C46    C     0.05650   0.72110   0.12649   0.01267  Uiso   1.00
C47    C     0.45370   0.51600   0.63410   0.01267  Uiso   1.00
C48    C     0.68130   0.73340   0.51070   0.01267  Uiso   1.00
C49    C     0.16830   0.66580   0.38560   0.01267  Uiso   1.00
C50    C     0.53530   0.76210   0.43760   0.01267  Uiso   1.00
C51    C     0.11550   0.11850   0.79770   0.01267  Uiso   1.00
C52    C     0.36540   0.17490   0.76799   0.01267  Uiso   1.00
C53    C     0.63080   0.70400   0.38620   0.01267  Uiso   1.00
C54    C     0.86000   0.40740   0.29853   0.01267  Uiso   1.00
C55    C     0.70290   0.39610   0.60650   0.01267  Uiso   1.00
C56    C     0.80460   0.16980   0.06370   0.01267  Uiso   1.00
C57    C     0.21130   0.85050   0.89820   0.01267  Uiso   1.00
C58    C     0.04900   0.73670   0.60337   0.01267  Uiso   1.00
C59    C     0.62190   0.19590   0.93440   0.01267  Uiso   1.00
C60    C     0.32680   0.56630   0.80870   0.01267  Uiso   1.00
C61    C     0.66900   0.53540   0.78368   0.01267  Uiso   1.00
C62    C     0.54500   0.12080   0.15470   0.01267  Uiso   1.00
C63    C     0.91880   0.48270   0.69194   0.01267  Uiso   1.00
C64    C     0.26620   0.57430   0.20887   0.01267  Uiso   1.00
C65    C     0.34380   0.28590   0.57570   0.01267  Uiso   1.00
C66    C     0.47070   0.79030   0.94404   0.01267  Uiso   1.00
C67    C     0.35090   0.58740   0.84670   0.01267  Uiso   1.00
C68    C     0.50910   0.74790   0.40040   0.01267  Uiso   1.00
C69    C     0.91050   0.55750   0.63610   0.01267  Uiso   1.00
C70    C     0.85410   0.79770   0.39589   0.01267  Uiso   1.00
C71    C     0.45500   0.87920   0.84530   0.01267  Uiso   1.00
C72    C     0.29880   0.93420   0.34100   0.01267  Uiso   1.00
C73    C     0.38150   0.75210   0.12904   0.01267  Uiso   1.00
C74    C     0.14540   0.25550   0.67058   0.01267  Uiso   1.00
C75    C     0.00910   0.74790   0.09960   0.01267  Uiso   1.00
C76    C     0.14590   0.20230   0.60411   0.01267  Uiso   1.00
C77    C     0.52150   0.74260   0.93373   0.01267  Uiso   1.00
C78    C     0.03780   0.28240   0.57710   0.01267  Uiso   1.00
C79    C     0.64000   0.59260   0.79853   0.01267  Uiso   1.00
C80    C     0.88940   0.45410   0.14690   0.01267  Uiso   1.00
C81    C     0.22310   0.51180   0.65430   0.01267  Uiso   1.00
C82    C     0.95100   0.26330   0.39663   0.01267  Uiso   1.00
C83    C     0.94350   0.27890   0.87351   0.01267  Uiso   1.00
C84    C     0.43260   0.79720   0.98270   0.01267  Uiso   1.00
C85    C     0.06030   0.04880   0.79500   0.01267  Uiso   1.00
C86    C     0.70950   0.49260   0.80692   0.01267  Uiso   1.00
C87    C     0.84380   0.28590   0.92430   0.01267  Uiso   1.00
C88    C     0.28870   0.14950   0.39820   0.01267  Uiso   1.00
C89    C     0.69230   0.56910   0.86160   0.01267  Uiso   1.00
C90    C     0.58950   0.44250   0.13610   0.01267  Uiso   1.00
C91    C     0.75130   0.64720   0.16830   0.01267  Uiso   1.00
C92    C     0.95500   0.87920   0.65470   0.01267  Uiso   1.00
C93    C     0.78870   0.14950   0.10180   0.01267  Uiso   1.00
C94    C     0.41880   0.48270   0.80806   0.01267  Uiso   1.00
C95    C     0.85880   0.04250   0.72191   0.01267  Uiso   1.00
C96    C     0.41050   0.55750   0.86390   0.01267  Uiso   1.00
C97    C     0.25130   0.64720   0.33170   0.01267  Uiso   1.00
C98    C     0.79880   0.93420   0.15900   0.01267  Uiso   1.00
C99    C     0.77690   0.48820   0.34570   0.01267  Uiso   1.00
C100   C     0.47170   0.29160   0.66695   0.01267  Uiso   1.00
C101   C     0.26350   0.19750   0.37260   0.01267  Uiso   1.00
C102   C     0.08950   0.44250   0.36390   0.01267  Uiso   1.00
C103   C     0.65210   0.60930   0.83880   0.01267  Uiso   1.00
C104   C     0.86540   0.17490   0.73201   0.01267  Uiso   1.00
C105   C     0.52410   0.16860   0.12266   0.01267  Uiso   1.00
C106   C     0.39340   0.25460   0.54950   0.01267  Uiso   1.00
C107   C     0.56740   0.23750   0.94867   0.01267  Uiso   1.00
C108   C     0.74870   0.35280   0.66830   0.01267  Uiso   1.00
C109   C     0.35410   0.79770   0.10411   0.01267  Uiso   1.00
C110   C     0.72780   0.71400   0.57610   0.01267  Uiso   1.00
C111   C     0.76620   0.57430   0.29113   0.01267  Uiso   1.00
C112   C     0.83170   0.33420   0.61440   0.01267  Uiso   1.00
C113   C     0.14120   0.95750   0.27809   0.01267  Uiso   1.00
C114   C     0.24740   0.73540   0.88530   0.01267  Uiso   1.00
C115   C     0.06740   0.20280   0.48270   0.01267  Uiso   1.00
C116   C     0.77940   0.68930   0.64410   0.01267  Uiso   1.00
C117   C     0.19230   0.56910   0.63840   0.01267  Uiso   1.00
C118   C     0.72310   0.51180   0.84570   0.01267  Uiso   1.00
C119   C     0.31870   0.26660   0.48930   0.01267  Uiso   1.00
C120   C     0.20950   0.49260   0.69308   0.01267  Uiso   1.00
C121   C     0.45430   0.42590   0.78864   0.01267  Uiso   1.00
C122   C     0.27690   0.48820   0.15430   0.01267  Uiso   1.00
C123   C     0.01430   0.46370   0.81210   0.01267  Uiso   1.00
C124   C     0.29470   0.07160   0.38660   0.01267  Uiso   1.00
C125   C     0.23380   0.42570   0.70887   0.01267  Uiso   1.00
C126   C     0.87810   0.80410   0.43440   0.01267  Uiso   1.00
C127   C     0.38450   0.88150   0.29770   0.01267  Uiso   1.00
C128   C     0.82680   0.56630   0.69130   0.01267  Uiso   1.00
C129   C     0.15210   0.60930   0.66120   0.01267  Uiso   1.00
C130   C     0.18130   0.73340   0.98930   0.01267  Uiso   1.00
C131   C     0.54900   0.73670   0.89663   0.01267  Uiso   1.00
C132   C     0.88150   0.75210   0.37096   0.01267  Uiso   1.00
C133   C     0.79470   0.07160   0.11340   0.01267  Uiso   1.00
C134   C     0.86920   0.29600   0.88620   0.01267  Uiso   1.00
C135   C     0.23650   0.80250   0.87260   0.01267  Uiso   1.00
C136   C     0.80770   0.43090   0.36160   0.01267  Uiso   1.00
C137   C     0.20290   0.39610   0.89350   0.01267  Uiso   1.00
C138   C     0.58120   0.51730   0.19194   0.01267  Uiso   1.00
C139   C     0.13080   0.70400   0.11380   0.01267  Uiso   1.00
C140   C     0.44540   0.50680   0.84577   0.01267  Uiso   1.00
C141   C     0.08120   0.51730   0.30806   0.01267  Uiso   1.00
C142   C     0.33100   0.46460   0.21632   0.01267  Uiso   1.00
C143   C     0.60660   0.74540   0.45050   0.01267  Uiso   1.00
C144   C     0.22060   0.31070   0.35590   0.01267  Uiso   1.00
C145   C     0.98570   0.53630   0.18790   0.01267  Uiso   1.00
C146   C     0.95300   0.07390   0.65410   0.01267  Uiso   1.00
C147   C     0.96220   0.71760   0.42290   0.01267  Uiso   1.00
C148   C     0.36920   0.29600   0.61380   0.01267  Uiso   1.00
C149   C     0.57980   0.98770   0.68710   0.01267  Uiso   1.00
C150   C     0.92650   0.00130   0.66632   0.01267  Uiso   1.00
C151   C     0.17320   0.43370   0.30870   0.01267  Uiso   1.00
C152   C     0.88800   0.11590   0.70946   0.01267  Uiso   1.00
C153   C     0.63460   0.82510   0.23201   0.01267  Uiso   1.00
C154   C     0.87960   0.98600   0.70000   0.01267  Uiso   1.00
C155   C     0.10020   0.68190   0.61070   0.01267  Uiso   1.00
C156   C     0.63900   0.48520   0.20940   0.01267  Uiso   1.00
C157   C     0.20530   0.92840   0.88660   0.01267  Uiso   1.00
C158   C     0.43490   0.13050   0.82395   0.01267  Uiso   1.00
C159   C     0.14780   0.99720   0.83740   0.01267  Uiso   1.00
C160   C     0.44350   0.27890   0.62649   0.01267  Uiso   1.00
C161   C     0.67320   0.43370   0.19130   0.01267  Uiso   1.00
C162   C     0.56410   0.28940   0.88473   0.01267  Uiso   1.00
C163   C     0.52650   0.78130   0.86786   0.01267  Uiso   1.00
C164   C     0.65620   0.71410   0.42430   0.01267  Uiso   1.00
C165   C     0.42020   0.01230   0.31290   0.01267  Uiso   1.00
C166   C     0.94540   0.50680   0.65423   0.01267  Uiso   1.00
C167   C     0.61200   0.88410   0.20946   0.01267  Uiso   1.00
C168   C     0.37810   0.80410   0.06560   0.01267  Uiso   1.00
C169   C     0.06410   0.28940   0.61527   0.01267  Uiso   1.00
C170   C     0.04700   0.92610   0.34590   0.01267  Uiso   1.00
C171   C     0.35220   0.00280   0.33740   0.01267  Uiso   1.00
C172   C     0.09660   0.18400   0.77692   0.01267  Uiso   1.00
C173   C     0.93490   0.13050   0.67605   0.01267  Uiso   1.00
C174   C     0.48570   0.53630   0.31210   0.01267  Uiso   1.00
C175   C     0.24870   0.35280   0.83170   0.01267  Uiso   1.00
C176   C     0.14910   0.41260   0.34670   0.01267  Uiso   1.00
C177   C     0.51430   0.46370   0.68790   0.01267  Uiso   1.00
C178   C     0.34790   0.39070   0.16120   0.01267  Uiso   1.00
C179   C     0.02930   0.20970   0.44404   0.01267  Uiso   1.00
C180   C     0.92020   0.01230   0.18710   0.01267  Uiso   1.00
C181   C     0.39980   0.31810   0.11070   0.01267  Uiso   1.00
C182   C     0.49090   0.25210   0.59960   0.01267  Uiso   1.00
C183   C     0.38940   0.45410   0.35310   0.01267  Uiso   1.00
C184   C     0.13460   0.82510   0.26799   0.01267  Uiso   1.00
C185   C     0.42650   0.00130   0.83368   0.01267  Uiso   1.00
C186   C     0.62040   0.01400   0.20000   0.01267  Uiso   1.00
C187   C     0.89340   0.25460   0.95050   0.01267  Uiso   1.00
C188   C     0.27940   0.68930   0.85590   0.01267  Uiso   1.00
C189   C     0.88450   0.88150   0.20230   0.01267  Uiso   1.00
C190   C     0.02410   0.16860   0.37734   0.01267  Uiso   1.00
C191   C     0.15620   0.71410   0.07570   0.01267  Uiso   1.00
C192   C     0.54700   0.92610   0.15410   0.01267  Uiso   1.00
C193   C     0.77220   0.28600   0.07610   0.01267  Uiso   1.00
C194   C     0.52830   0.70840   0.33305   0.01267  Uiso   1.00
C195   C     0.11850   0.24790   0.62904   0.01267  Uiso   1.00
C196   C     0.29710   0.60390   0.39350   0.01267  Uiso   1.00
C197   C     0.93260   0.79720   0.51730   0.01267  Uiso   1.00
C198   C     0.33170   0.33420   0.88560   0.01267  Uiso   1.00
C199   C     0.61550   0.11850   0.70230   0.01267  Uiso   1.00
C200   C     0.68560   0.12660   0.67900   0.01267  Uiso   1.00
C201   C     0.55650   0.72110   0.37351   0.01267  Uiso   1.00
C202   C     0.47590   0.83140   0.87734   0.01267  Uiso   1.00
C203   C     0.02650   0.78130   0.63214   0.01267  Uiso   1.00
C204   C     0.46470   0.23790   0.56240   0.01267  Uiso   1.00
C205   C     0.95430   0.42590   0.71136   0.01267  Uiso   1.00
C206   C     0.29970   0.23830   0.44890   0.01267  Uiso   1.00
C207   C     0.73650   0.80250   0.62740   0.01267  Uiso   1.00
C208   C     0.12190   0.19590   0.56560   0.01267  Uiso   1.00
C209   C     0.43590   0.71060   0.11527   0.01267  Uiso   1.00
C210   C     0.69540   0.83020   0.56370   0.01267  Uiso   1.00
C211   C     0.52930   0.20970   0.05596   0.01267  Uiso   1.00
C212   C     0.79050   0.50740   0.30692   0.01267  Uiso   1.00
C213   C     0.46220   0.71760   0.07710   0.01267  Uiso   1.00
C214   C     0.30460   0.16980   0.43630   0.01267  Uiso   1.00
C215   C     0.71130   0.85050   0.60180   0.01267  Uiso   1.00
C216   C     0.04500   0.12080   0.34530   0.01267  Uiso   1.00
C217   C     0.81440   0.87340   0.17900   0.01267  Uiso   1.00
C218   C     0.70120   0.06580   0.65900   0.01267  Uiso   1.00
C219   C     0.06510   0.86950   0.32395   0.01267  Uiso   1.00
C220   C     0.10660   0.74540   0.04950   0.01267  Uiso   1.00
C221   C     0.85090   0.58740   0.65330   0.01267  Uiso   1.00
C222   C     0.85220   0.00280   0.16260   0.01267  Uiso   1.00
C223   C     0.36100   0.51480   0.79060   0.01267  Uiso   1.00
C224   C     0.30770   0.43090   0.13840   0.01267  Uiso   1.00
C225   C     0.18560   0.12660   0.82100   0.01267  Uiso   1.00
C226   C     0.16900   0.53540   0.71632   0.01267  Uiso   1.00
C227   C     0.07350   0.99870   0.33368   0.01267  Uiso   1.00
C228   C     0.35880   0.04250   0.77809   0.01267  Uiso   1.00
C229   C     0.22780   0.71400   0.92390   0.01267  Uiso   1.00
C230   C     0.97850   0.25740   0.43373   0.01267  Uiso   1.00
C231   C     0.11200   0.88410   0.29054   0.01267  Uiso   1.00
C232   C     0.44840   0.83470   0.91469   0.01267  Uiso   1.00
C233   C     0.90340   0.81600   0.22308   0.01267  Uiso   1.00
C234   C     0.05160   0.16530   0.41469   0.01267  Uiso   1.00
C235   C     0.86100   0.51480   0.70940   0.01267  Uiso   1.00
C236   C     0.14000   0.59260   0.70147   0.01267  Uiso   1.00
C237   C     0.93970   0.95120   0.20500   0.01267  Uiso   1.00
C238   C     0.20030   0.76170   0.94890   0.01267  Uiso   1.00
C239   C     0.38800   0.11590   0.79054   0.01267  Uiso   1.00
C240   C     0.64590   0.20230   0.89589   0.01267  Uiso   1.00
C241   C     0.70030   0.76170   0.55110   0.01267  Uiso   1.00
C242   C     0.57350   0.99870   0.16632   0.01267  Uiso   1.00
C243   C     0.99090   0.25210   0.90040   0.01267  Uiso   1.00
C244   C     0.20120   0.06580   0.84100   0.01267  Uiso   1.00
C245   C     0.93260   0.76250   0.44867   0.01267  Uiso   1.00
C246   C     0.64540   0.25550   0.82942   0.01267  Uiso   1.00
C247   C     0.12040   0.01400   0.30000   0.01267  Uiso   1.00
C248   C     0.66830   0.66580   0.11440   0.01267  Uiso   1.00
C249   C     0.79710   0.60390   0.10650   0.01267  Uiso   1.00
C250   C     0.76350   0.19750   0.12740   0.01267  Uiso   1.00
C251   C     0.13900   0.48520   0.29060   0.01267  Uiso   1.00
C252   C     0.97350   0.21870   0.36786   0.01267  Uiso   1.00
C253   C     0.25260   0.26460   0.38530   0.01267  Uiso   1.00
C254   C     0.05460   0.49320   0.34577   0.01267  Uiso   1.00
C255   C     0.97170   0.29160   0.83305   0.01267  Uiso   1.00
C256   C     0.45100   0.26330   0.10337   0.01267  Uiso   1.00
C257   C     0.81870   0.26660   0.01070   0.01267  Uiso   1.00
C258   C     0.97590   0.83140   0.62266   0.01267  Uiso   1.00
C259   C     0.96470   0.23790   0.93760   0.01267  Uiso   1.00
C260   C     0.03530   0.76210   0.06240   0.01267  Uiso   1.00
C261   C     0.07980   0.98770   0.81290   0.01267  Uiso   1.00
C262   C     0.55460   0.49320   0.15423   0.01267  Uiso   1.00
C263   C     0.85460   0.74450   0.32942   0.01267  Uiso   1.00
C264   C     0.64910   0.41260   0.15330   0.01267  Uiso   1.00
N1     N     0.86700   0.23430   0.98972   0.01267  Uiso   1.00
N2     N     0.73870   0.63930   0.13050   0.01267  Uiso   1.00
N3     N     0.31580   0.63680   0.87010   0.01267  Uiso   1.00
N4     N     0.68420   0.36320   0.12990   0.01267  Uiso   1.00
N5     N     0.36700   0.23430   0.51028   0.01267  Uiso   1.00
N6     N     0.88450   0.33260   0.35208   0.01267  Uiso   1.00
N7     N     0.26130   0.36070   0.86950   0.01267  Uiso   1.00
N8     N     0.47550   0.49070   0.33980   0.01267  Uiso   1.00
N9     N     0.63300   0.76570   0.48972   0.01267  Uiso   1.00
N10    N     0.11550   0.66740   0.64792   0.01267  Uiso   1.00
N11    N     0.54140   0.23680   0.98756   0.01267  Uiso   1.00
N12    N     0.95860   0.76320   0.48756   0.01267  Uiso   1.00
N13    N     0.61550   0.66740   0.85208   0.01267  Uiso   1.00
N14    N     0.83760   0.06590   0.14432   0.01267  Uiso   1.00
N15    N     0.33760   0.06590   0.35568   0.01267  Uiso   1.00
N16    N     0.02450   0.50930   0.83980   0.01267  Uiso   1.00
N17    N     0.76130   0.36070   0.63050   0.01267  Uiso   1.00
N18    N     0.45860   0.76320   0.01244   0.01267  Uiso   1.00
N19    N     0.52450   0.50930   0.66020   0.01267  Uiso   1.00
N20    N     0.05240   0.05390   0.35672   0.01267  Uiso   1.00
N21    N     0.44760   0.94610   0.85672   0.01267  Uiso   1.00
N22    N     0.94760   0.94610   0.64328   0.01267  Uiso   1.00
N23    N     0.13300   0.76570   0.01028   0.01267  Uiso   1.00
N24    N     0.16240   0.93410   0.85568   0.01267  Uiso   1.00
N25    N     0.55240   0.05390   0.14328   0.01267  Uiso   1.00
N26    N     0.04140   0.23680   0.51244   0.01267  Uiso   1.00
N27    N     0.23870   0.63930   0.36950   0.01267  Uiso   1.00
N28    N     0.18420   0.36320   0.37010   0.01267  Uiso   1.00
N29    N     0.81580   0.63680   0.62990   0.01267  Uiso   1.00
N30    N     0.38450   0.33260   0.14792   0.01267  Uiso   1.00
N31    N     0.66240   0.93410   0.64432   0.01267  Uiso   1.00
N32    N     0.97550   0.49070   0.16020   0.01267  Uiso   1.00
O1     O     0.40170   0.71910   0.19305   0.01267  Uiso   1.00
O2     O     0.78580   0.31680   0.99840   0.01267  Uiso   1.00
O3     O     0.08010   0.70220   0.19372   0.01267  Uiso   1.00
O4     O     0.54950   0.29680   0.67417   0.01267  Uiso   1.00
O5     O     0.26250   0.01690   0.40650   0.01267  Uiso   1.00
O6     O     0.55460   0.14430   0.18740   0.01267  Uiso   1.00
O7     O     0.58040   0.60300   0.24317   0.01267  Uiso   1.00
O8     O     0.52090   0.18180   0.73279   0.01267  Uiso   1.00
O9     O     0.45050   0.70320   0.32583   0.01267  Uiso   1.00
O10    O     0.47910   0.81820   0.26721   0.01267  Uiso   1.00
O11    O     0.71420   0.68320   0.49840   0.01267  Uiso   1.00
O12    O     0.04950   0.29680   0.82583   0.01267  Uiso   1.00
O13    O     0.59830   0.28090   0.80695   0.01267  Uiso   1.00
O14    O     0.69910   0.39530   0.76010   0.01267  Uiso   1.00
O15    O     0.09830   0.28090   0.69305   0.01267  Uiso   1.00
O16    O     0.62730   0.65260   0.91642   0.01267  Uiso   1.00
O17    O     0.29150   0.32850   0.80989   0.01267  Uiso   1.00
O18    O     0.98550   0.59580   0.30306   0.01267  Uiso   1.00
O19    O     0.88360   0.83610   0.51347   0.01267  Uiso   1.00
O20    O     0.30770   0.16210   0.74361   0.01267  Uiso   1.00
O21    O     0.61640   0.16390   0.01347   0.01267  Uiso   1.00
O22    O     0.21060   0.23570   0.68022   0.01267  Uiso   1.00
O23    O     0.79150   0.32850   0.69011   0.01267  Uiso   1.00
O24    O     0.07070   0.44470   0.79343   0.01267  Uiso   1.00
O25    O     0.22980   0.30070   0.32076   0.01267  Uiso   1.00
O26    O     0.11640   0.16390   0.48653   0.01267  Uiso   1.00
O27    O     0.02090   0.18180   0.76721   0.01267  Uiso   1.00
O28    O     0.41960   0.39700   0.75683   0.01267  Uiso   1.00
O29    O     0.71110   0.59780   0.30841   0.01267  Uiso   1.00
O30    O     0.97910   0.81820   0.23279   0.01267  Uiso   1.00
O31    O     0.94540   0.85570   0.68740   0.01267  Uiso   1.00
O32    O     0.08040   0.60300   0.25683   0.01267  Uiso   1.00
O33    O     0.12730   0.65260   0.58358   0.01267  Uiso   1.00
O34    O     0.20850   0.67150   0.30989   0.01267  Uiso   1.00
O35    O     0.91990   0.29780   0.80628   0.01267  Uiso   1.00
O36    O     0.27020   0.69930   0.82076   0.01267  Uiso   1.00
O37    O     0.48550   0.59580   0.19694   0.01267  Uiso   1.00
O38    O     0.23750   0.98310   0.90650   0.01267  Uiso   1.00
O39    O     0.72980   0.30070   0.17924   0.01267  Uiso   1.00
O40    O     0.37270   0.34740   0.08358   0.01267  Uiso   1.00
O41    O     0.80770   0.16210   0.75639   0.01267  Uiso   1.00
O42    O     0.73750   0.98310   0.59350   0.01267  Uiso   1.00
O43    O     0.51450   0.40420   0.80306   0.01267  Uiso   1.00
O44    O     0.92930   0.55530   0.20657   0.01267  Uiso   1.00
O45    O     0.28580   0.31680   0.50160   0.01267  Uiso   1.00
O46    O     0.84380   0.76040   0.23003   0.01267  Uiso   1.00
O47    O     0.28940   0.76430   0.18022   0.01267  Uiso   1.00
O48    O     0.78890   0.40220   0.80841   0.01267  Uiso   1.00
O49    O     0.30090   0.60470   0.23990   0.01267  Uiso   1.00
O50    O     0.19910   0.39530   0.73990   0.01267  Uiso   1.00
O51    O     0.95050   0.70320   0.17417   0.01267  Uiso   1.00
O52    O     0.40550   0.24370   0.77448   0.01267  Uiso   1.00
O53    O     0.78940   0.76430   0.31978   0.01267  Uiso   1.00
O54    O     0.57070   0.44470   0.70657   0.01267  Uiso   1.00
O55    O     0.01450   0.40420   0.69694   0.01267  Uiso   1.00
O56    O     0.70850   0.67150   0.19011   0.01267  Uiso   1.00
O57    O     0.28890   0.40220   0.69159   0.01267  Uiso   1.00
O58    O     0.38360   0.83610   0.98653   0.01267  Uiso   1.00
O59    O     0.69230   0.83790   0.25639   0.01267  Uiso   1.00
O60    O     0.71060   0.23570   0.81978   0.01267  Uiso   1.00
O61    O     0.90550   0.24370   0.72552   0.01267  Uiso   1.00
O62    O     0.41990   0.29780   0.69372   0.01267  Uiso   1.00
O63    O     0.44540   0.85570   0.81260   0.01267  Uiso   1.00
O64    O     0.42930   0.55530   0.29343   0.01267  Uiso   1.00
O65    O     0.58010   0.70220   0.30628   0.01267  Uiso   1.00
O66    O     0.87270   0.34740   0.41642   0.01267  Uiso   1.00
O67    O     0.90170   0.71910   0.30695   0.01267  Uiso   1.00
O68    O     0.59450   0.75630   0.22552   0.01267  Uiso   1.00
O69    O     0.80090   0.60470   0.26010   0.01267  Uiso   1.00
O70    O     0.65620   0.23960   0.73003   0.01267  Uiso   1.00
O71    O     0.77020   0.69930   0.67924   0.01267  Uiso   1.00
O72    O     0.19230   0.83790   0.24361   0.01267  Uiso   1.00
O73    O     0.09450   0.75630   0.27448   0.01267  Uiso   1.00
O74    O     0.91960   0.39700   0.74317   0.01267  Uiso   1.00
O75    O     0.05460   0.14430   0.31260   0.01267  Uiso   1.00
O76    O     0.76250   0.01690   0.09350   0.01267  Uiso   1.00
O77    O     0.21420   0.68320   0.00160   0.01267  Uiso   1.00
O78    O     0.15620   0.23960   0.76997   0.01267  Uiso   1.00
O79    O     0.34380   0.76040   0.26997   0.01267  Uiso   1.00
O80    O     0.21110   0.59780   0.19159   0.01267  Uiso   1.00
