data_ic402692p_si_005_freeONLY
_audit_creation_date              2015-08-19
_audit_creation_method            'Materials Studio'
_symmetry_space_group_name_H-M    'P1'
_symmetry_Int_Tables_number       1
_symmetry_cell_setting            triclinic
loop_
_symmetry_equiv_pos_as_xyz
  x,y,z
_cell_length_a                    17.1471
_cell_length_b                    17.1471
_cell_length_c                    17.1471
_cell_angle_alpha                 62.0553
_cell_angle_beta                  74.5920
_cell_angle_gamma                 105.4080
loop_
_atom_site_label
_atom_site_type_symbol
_atom_site_fract_x
_atom_site_fract_y
_atom_site_fract_z
_atom_site_U_iso_or_equiv
_atom_site_adp_type
_atom_site_occupancy
Zn1    Zn    0.12833   0.95184   0.42721   0.01267  Uiso   1.00
Zn2    Zn    0.87167   0.44446   0.17649   0.01267  Uiso   1.00
Zn3    Zn    0.50000   0.68290   0.49094   0.01267  Uiso   1.00
Zn4    Zn    0.82616   0.50906   0.99094   0.01267  Uiso   1.00
Zn5    Zn    0.62095   0.57279   0.55554   0.01267  Uiso   1.00
Zn6    Zn    0.37905   0.82351   0.04816   0.01267  Uiso   1.00
Zn7    Zn    0.62095   0.94446   0.92721   0.01267  Uiso   1.00
Zn8    Zn    0.87167   0.32351   0.05554   0.01267  Uiso   1.00
Zn9    Zn    0.37905   0.45184   0.67649   0.01267  Uiso   1.00
Zn10   Zn    0.50000   0.00906   0.81710   0.01267  Uiso   1.00
Zn11   Zn    0.12833   0.07279   0.54816   0.01267  Uiso   1.00
Zn12   Zn    0.17384   0.18290   0.31710   0.01267  Uiso   1.00
H1     H     0.39570   0.17810   0.86480   0.01267  Uiso   1.00
H2     H     0.84840   0.84130   0.46810   0.01267  Uiso   1.00
H3     H     0.69060   0.53190   0.31650   0.01267  Uiso   1.00
H4     H     0.30070   0.94760   0.73970   0.01267  Uiso   1.00
H5     H     0.95710   0.23950   0.36480   0.01267  Uiso   1.00
H6     H     0.84840   0.03190   0.65870   0.01267  Uiso   1.00
H7     H     0.30940   0.99290   0.15870   0.01267  Uiso   1.00
H8     H     0.39570   0.63520   0.32190   0.01267  Uiso   1.00
H9     H     0.69930   0.14690   0.54040   0.01267  Uiso   1.00
H10    H     0.68730   0.44760   0.85310   0.01267  Uiso   1.00
H11    H     0.60430   0.73950   0.21760   0.01267  Uiso   1.00
H12    H     0.04290   0.78240   0.82190   0.01267  Uiso   1.00
H13    H     0.68730   0.64690   0.05240   0.01267  Uiso   1.00
H14    H     0.15160   0.49290   0.81650   0.01267  Uiso   1.00
H15    H     0.31270   0.26030   0.04040   0.01267  Uiso   1.00
H16    H     0.30940   0.34130   0.50710   0.01267  Uiso   1.00
H17    H     0.95710   0.13520   0.26050   0.01267  Uiso   1.00
H18    H     0.60430   0.28240   0.76050   0.01267  Uiso   1.00
H19    H     0.31270   0.45960   0.23970   0.01267  Uiso   1.00
H20    H     0.69930   0.95960   0.35310   0.01267  Uiso   1.00
H21    H     0.69060   0.18350   0.96810   0.01267  Uiso   1.00
H22    H     0.15160   0.68350   0.00710   0.01267  Uiso   1.00
H23    H     0.04290   0.67810   0.71760   0.01267  Uiso   1.00
H24    H     0.30070   0.76030   0.55240   0.01267  Uiso   1.00
C1     C     0.67760   0.64440   0.10980   0.01267  Uiso   1.00
C2     C     0.35540   0.23130   0.94110   0.01267  Uiso   1.00
C3     C     0.75420   0.96680   0.35560   0.01267  Uiso   1.00
C4     C     0.17240   0.87590   0.76870   0.01267  Uiso   1.00
C5     C     0.18120   0.95950   0.67250   0.01267  Uiso   1.00
C6     C     0.62690   0.69890   0.20900   0.01267  Uiso   1.00
C7     C     0.62130   0.12300   0.87430   0.01267  Uiso   1.00
C8     C     0.64250   0.21690   0.86700   0.01267  Uiso   1.00
C9     C     0.23920   0.82020   0.87640   0.01267  Uiso   1.00
C10    C     0.30340   0.12360   0.11560   0.01267  Uiso   1.00
C11    C     0.64250   0.63300   0.28310   0.01267  Uiso   1.00
C12    C     0.99730   0.62300   0.99830   0.01267  Uiso   1.00
C13    C     0.09210   0.66410   0.70900   0.01267  Uiso   1.00
C14    C     0.82760   0.20350   0.44110   0.01267  Uiso   1.00
C15    C     0.00270   0.12570   0.49560   0.01267  Uiso   1.00
C16    C     0.25770   0.09830   0.21860   0.01267  Uiso   1.00
C17    C     0.35750   0.07440   0.00950   0.01267  Uiso   1.00
C18    C     0.17240   0.73130   0.62410   0.01267  Uiso   1.00
C19    C     0.81880   0.14630   0.22170   0.01267  Uiso   1.00
C20    C     0.84310   0.89620   0.42530   0.01267  Uiso   1.00
C21    C     0.36800   0.64630   0.17250   0.01267  Uiso   1.00
C22    C     0.37870   0.00170   0.99560   0.01267  Uiso   1.00
C23    C     0.23920   0.62360   0.67980   0.01267  Uiso   1.00
C24    C     0.84310   0.07470   0.60380   0.01267  Uiso   1.00
C25    C     0.00270   0.00440   0.37430   0.01267  Uiso   1.00
C26    C     0.18120   0.82750   0.54050   0.01267  Uiso   1.00
C27    C     0.67760   0.39020   0.85560   0.01267  Uiso   1.00
C28    C     0.35750   0.49050   0.42560   0.01267  Uiso   1.00
C29    C     0.63200   0.77830   0.04050   0.01267  Uiso   1.00
C30    C     0.32150   0.39620   0.44690   0.01267  Uiso   1.00
C31    C     0.31690   0.59830   0.65940   0.01267  Uiso   1.00
C32    C     0.81880   0.27830   0.35370   0.01267  Uiso   1.00
C33    C     0.15690   0.55310   0.76840   0.01267  Uiso   1.00
C34    C     0.37310   0.57200   0.33590   0.01267  Uiso   1.00
C35    C     0.09210   0.79100   0.83590   0.01267  Uiso   1.00
C36    C     0.36800   0.32750   0.85370   0.01267  Uiso   1.00
C37    C     0.63200   0.45950   0.72170   0.01267  Uiso   1.00
C38    C     0.08390   0.57440   0.78310   0.01267  Uiso   1.00
C39    C     0.37310   0.16410   0.92800   0.01267  Uiso   1.00
C40    C     0.69660   0.58100   0.17980   0.01267  Uiso   1.00
C41    C     0.25770   0.28140   0.40170   0.01267  Uiso   1.00
C42    C     0.74230   0.52370   0.15940   0.01267  Uiso   1.00
C43    C     0.67850   0.23160   0.92530   0.01267  Uiso   1.00
C44    C     0.15690   0.73160   0.94690   0.01267  Uiso   1.00
C45    C     0.32240   0.46680   0.28740   0.01267  Uiso   1.00
C46    C     0.37870   0.50440   0.49830   0.01267  Uiso   1.00
C47    C     0.24580   0.89020   0.78740   0.01267  Uiso   1.00
C48    C     0.35540   0.55890   0.26870   0.01267  Uiso   1.00
C49    C     0.75420   0.14440   0.53320   0.01267  Uiso   1.00
C50    C     0.90790   0.19890   0.42800   0.01267  Uiso   1.00
C51    C     0.68310   0.02370   0.71860   0.01267  Uiso   1.00
C52    C     0.30340   0.38440   0.37640   0.01267  Uiso   1.00
C53    C     0.99730   0.50170   0.87700   0.01267  Uiso   1.00
C54    C     0.76080   0.08100   0.61560   0.01267  Uiso   1.00
C55    C     0.90790   0.07200   0.30110   0.01267  Uiso   1.00
C56    C     0.76080   0.88440   0.41900   0.01267  Uiso   1.00
C57    C     0.31690   0.84060   0.90170   0.01267  Uiso   1.00
C58    C     0.32150   0.05310   0.10380   0.01267  Uiso   1.00
C59    C     0.74230   0.34060   0.97630   0.01267  Uiso   1.00
C60    C     0.68310   0.78140   0.47630   0.01267  Uiso   1.00
C61    C     0.24580   0.71260   0.60980   0.01267  Uiso   1.00
C62    C     0.32240   0.21260   0.03320   0.01267  Uiso   1.00
C63    C     0.62130   0.62570   0.37700   0.01267  Uiso   1.00
C64    C     0.91610   0.99050   0.36700   0.01267  Uiso   1.00
C65    C     0.91610   0.13300   0.50950   0.01267  Uiso   1.00
C66    C     0.69660   0.32020   0.91900   0.01267  Uiso   1.00
C67    C     0.08390   0.71690   0.92560   0.01267  Uiso   1.00
C68    C     0.64460   0.37590   0.79650   0.01267  Uiso   1.00
C69    C     0.67850   0.57470   0.26840   0.01267  Uiso   1.00
C70    C     0.64460   0.70350   0.12410   0.01267  Uiso   1.00
C71    C     0.82760   0.05890   0.29650   0.01267  Uiso   1.00
C72    C     0.62690   0.29100   0.80110   0.01267  Uiso   1.00
O1     O     0.40220   0.59070   0.47990   0.01267  Uiso   1.00
O2     O     0.07060   0.18850   0.40930   0.01267  Uiso   1.00
O3     O     0.26660   0.27790   0.32870   0.01267  Uiso   1.00
O4     O     0.25530   0.89890   0.48000   0.01267  Uiso   1.00
O5     O     0.50000   0.89010   0.93910   0.01267  Uiso   1.00
O6     O     0.07060   0.09070   0.31150   0.01267  Uiso   1.00
O7     O     0.10710   0.96350   0.67360   0.01267  Uiso   1.00
O8     O     0.82920   0.39010   0.10990   0.01267  Uiso   1.00
O9     O     0.63710   0.46350   0.64360   0.01267  Uiso   1.00
O10    O     0.82000   0.62400   0.87600   0.01267  Uiso   1.00
O11    O     0.40220   0.02010   0.90930   0.01267  Uiso   1.00
O12    O     0.37890   0.64360   0.10110   0.01267  Uiso   1.00
O13    O     0.50000   0.56090   0.60990   0.01267  Uiso   1.00
O14    O     0.63280   0.56350   0.44250   0.01267  Uiso   1.00
O15    O     0.59780   0.68850   0.38210   0.01267  Uiso   1.00
O16    O     0.36720   0.43070   0.57530   0.01267  Uiso   1.00
O17    O     0.62110   0.52000   0.73530   0.01267  Uiso   1.00
O18    O     0.92940   0.52010   0.88210   0.01267  Uiso   1.00
O19    O     0.17080   0.06090   0.43910   0.01267  Uiso   1.00
O20    O     0.18000   0.30400   0.19600   0.01267  Uiso   1.00
O21    O     0.36290   0.32640   0.78070   0.01267  Uiso   1.00
O22    O     0.78780   0.49760   0.20500   0.01267  Uiso   1.00
O23    O     0.63710   0.85640   0.03650   0.01267  Uiso   1.00
O24    O     0.70260   0.99760   0.79020   0.01267  Uiso   1.00
O25    O     0.10710   0.82640   0.53650   0.01267  Uiso   1.00
O26    O     0.39340   0.90470   0.82870   0.01267  Uiso   1.00
O27    O     0.25530   0.02000   0.60110   0.01267  Uiso   1.00
O28    O     0.29740   0.50720   0.70500   0.01267  Uiso   1.00
O29    O     0.92940   0.61790   0.97990   0.01267  Uiso   1.00
O30    O     0.00600   0.06350   0.56930   0.01267  Uiso   1.00
O31    O     0.39340   0.67130   0.59530   0.01267  Uiso   1.00
O32    O     0.73340   0.51130   0.09530   0.01267  Uiso   1.00
O33    O     0.89290   0.35640   0.28070   0.01267  Uiso   1.00
O34    O     0.36290   0.71930   0.17360   0.01267  Uiso   1.00
O35    O     0.74470   0.26470   0.35640   0.01267  Uiso   1.00
O36    O     0.78780   0.29500   0.00240   0.01267  Uiso   1.00
O37    O     0.70260   0.70980   0.50240   0.01267  Uiso   1.00
O38    O     0.26660   0.17130   0.22210   0.01267  Uiso   1.00
O39    O     0.59780   0.11790   0.81150   0.01267  Uiso   1.00
O40    O     0.50000   0.80400   0.37600   0.01267  Uiso   1.00
O41    O     0.74470   0.14360   0.23530   0.01267  Uiso   1.00
O42    O     0.60660   0.77790   0.48870   0.01267  Uiso   1.00
O43    O     0.62110   0.76470   0.98000   0.01267  Uiso   1.00
O44    O     0.37890   0.39890   0.85640   0.01267  Uiso   1.00
O45    O     0.50000   0.12400   0.69600   0.01267  Uiso   1.00
O46    O     0.60660   0.01130   0.72210   0.01267  Uiso   1.00
O47    O     0.29740   0.79500   0.99280   0.01267  Uiso   1.00
O48    O     0.99400   0.42470   0.94250   0.01267  Uiso   1.00
O49    O     0.36720   0.92470   0.06930   0.01267  Uiso   1.00
O50    O     0.73340   0.40470   0.98870   0.01267  Uiso   1.00
O51    O     0.00600   0.93070   0.43650   0.01267  Uiso   1.00
O52    O     0.63280   0.05750   0.93650   0.01267  Uiso   1.00
O53    O     0.99400   0.55750   0.07530   0.01267  Uiso   1.00
O54    O     0.21220   0.20980   0.49280   0.01267  Uiso   1.00
O55    O     0.21220   0.00720   0.29020   0.01267  Uiso   1.00
O56    O     0.89290   0.21930   0.14360   0.01267  Uiso   1.00
