data_ic502730y_si_002_freeONLY
_audit_creation_date              2015-08-19
_audit_creation_method            'Materials Studio'
_symmetry_space_group_name_H-M    'P1'
_symmetry_Int_Tables_number       1
_symmetry_cell_setting            triclinic
loop_
_symmetry_equiv_pos_as_xyz
  x,y,z
_cell_length_a                    12.6011
_cell_length_b                    13.7364
_cell_length_c                    17.2874
_cell_angle_alpha                 90.0000
_cell_angle_beta                  90.0000
_cell_angle_gamma                 90.0000
loop_
_atom_site_label
_atom_site_type_symbol
_atom_site_fract_x
_atom_site_fract_y
_atom_site_fract_z
_atom_site_U_iso_or_equiv
_atom_site_adp_type
_atom_site_occupancy
V1     V     0.75024   0.12483   0.75061   0.01267  Uiso   1.00
V2     V     0.24976   0.12483   0.25061   0.01267  Uiso   1.00
V3     V     0.75024   0.37517   0.75061   0.01267  Uiso   1.00
V4     V     0.75024   0.87517   0.74939   0.01267  Uiso   1.00
V5     V     0.75024   0.62483   0.74939   0.01267  Uiso   1.00
V6     V     0.24976   0.62483   0.24939   0.01267  Uiso   1.00
V7     V     0.24976   0.87517   0.24939   0.01267  Uiso   1.00
V8     V     0.24976   0.37517   0.25061   0.01267  Uiso   1.00
H1     H     0.06850   0.10370   0.45450   0.01267  Uiso   1.00
H2     H     0.55310   0.85360   0.94690   0.01267  Uiso   1.00
H3     H     0.54760   0.64480   0.55840   0.01267  Uiso   1.00
H4     H     0.55310   0.14640   0.55310   0.01267  Uiso   1.00
H5     H     0.44690   0.35360   0.05310   0.01267  Uiso   1.00
H6     H     0.96810   0.10430   0.56670   0.01267  Uiso   1.00
H7     H     0.44690   0.85360   0.44690   0.01267  Uiso   1.00
H8     H     0.03190   0.60430   0.43330   0.01267  Uiso   1.00
H9     H     0.11160   0.50000   0.25000   0.01267  Uiso   1.00
H10    H     0.44690   0.14640   0.05310   0.01267  Uiso   1.00
H11    H     0.06850   0.89630   0.04550   0.01267  Uiso   1.00
H12    H     0.06850   0.60370   0.04550   0.01267  Uiso   1.00
H13    H     0.38600   0.75000   0.26800   0.01267  Uiso   1.00
H14    H     0.55310   0.35360   0.55310   0.01267  Uiso   1.00
H15    H     0.96810   0.60430   0.93330   0.01267  Uiso   1.00
H16    H     0.06850   0.39630   0.45450   0.01267  Uiso   1.00
H17    H     0.88840   0.50000   0.75000   0.01267  Uiso   1.00
H18    H     0.54760   0.85520   0.55840   0.01267  Uiso   1.00
H19    H     0.96810   0.89570   0.93330   0.01267  Uiso   1.00
H20    H     0.93150   0.89630   0.54550   0.01267  Uiso   1.00
H21    H     0.03190   0.39570   0.06670   0.01267  Uiso   1.00
H22    H     0.45240   0.64480   0.05840   0.01267  Uiso   1.00
H23    H     0.38600   0.25000   0.23200   0.01267  Uiso   1.00
H24    H     0.61400   0.25000   0.73200   0.01267  Uiso   1.00
H25    H     0.93150   0.39630   0.95450   0.01267  Uiso   1.00
H26    H     0.45240   0.14480   0.44160   0.01267  Uiso   1.00
H27    H     0.54760   0.35520   0.94160   0.01267  Uiso   1.00
H28    H     0.44690   0.64640   0.44690   0.01267  Uiso   1.00
H29    H     0.03190   0.89570   0.43330   0.01267  Uiso   1.00
H30    H     0.93150   0.60370   0.54550   0.01267  Uiso   1.00
H31    H     0.88840   0.00000   0.75000   0.01267  Uiso   1.00
H32    H     0.96810   0.39570   0.56670   0.01267  Uiso   1.00
H33    H     0.11160   0.00000   0.25000   0.01267  Uiso   1.00
H34    H     0.61400   0.75000   0.76800   0.01267  Uiso   1.00
H35    H     0.54760   0.14480   0.94160   0.01267  Uiso   1.00
H36    H     0.45240   0.85520   0.05840   0.01267  Uiso   1.00
H37    H     0.45240   0.35520   0.44160   0.01267  Uiso   1.00
H38    H     0.93150   0.10370   0.95450   0.01267  Uiso   1.00
H39    H     0.03190   0.10430   0.06670   0.01267  Uiso   1.00
H40    H     0.55310   0.64640   0.94690   0.01267  Uiso   1.00
C1     C     0.92400   0.75000   0.55780   0.01267  Uiso   1.00
C2     C     0.07600   0.75000   0.05780   0.01267  Uiso   1.00
C3     C     0.46850   0.91250   0.46816   0.01267  Uiso   1.00
C4     C     0.55950   0.99931   0.93275   0.01267  Uiso   1.00
C5     C     0.47170   0.58650   0.03500   0.01267  Uiso   1.00
C6     C     0.95250   0.83760   0.52343   0.01267  Uiso   1.00
C7     C     0.47170   0.08650   0.46500   0.01267  Uiso   1.00
C8     C     0.44050   0.50069   0.43275   0.01267  Uiso   1.00
C9     C     0.86350   0.75000   0.63210   0.01267  Uiso   1.00
C10    C     0.88630   0.75000   0.85330   0.01267  Uiso   1.00
C11    C     0.53150   0.91250   0.96816   0.01267  Uiso   1.00
C12    C     0.55950   0.49931   0.56725   0.01267  Uiso   1.00
C13    C     0.53150   0.41250   0.53184   0.01267  Uiso   1.00
C14    C     0.62530   0.50205   0.86073   0.01267  Uiso   1.00
C15    C     0.13650   0.25000   0.36790   0.01267  Uiso   1.00
C16    C     0.46850   0.41250   0.03184   0.01267  Uiso   1.00
C17    C     0.55950   0.50069   0.93275   0.01267  Uiso   1.00
C18    C     0.53150   0.08750   0.53184   0.01267  Uiso   1.00
C19    C     0.55950   0.00069   0.56725   0.01267  Uiso   1.00
C20    C     0.04750   0.83760   0.02343   0.01267  Uiso   1.00
C21    C     0.98780   0.66280   0.95620   0.01267  Uiso   1.00
C22    C     0.11370   0.75000   0.35330   0.01267  Uiso   1.00
C23    C     0.37470   0.99795   0.36073   0.01267  Uiso   1.00
C24    C     0.13650   0.75000   0.13210   0.01267  Uiso   1.00
C25    C     0.47170   0.41350   0.46500   0.01267  Uiso   1.00
C26    C     0.01220   0.66280   0.45620   0.01267  Uiso   1.00
C27    C     0.95740   0.25000   0.57690   0.01267  Uiso   1.00
C28    C     0.62530   0.99795   0.86073   0.01267  Uiso   1.00
C29    C     0.95250   0.66240   0.52343   0.01267  Uiso   1.00
C30    C     0.52830   0.58650   0.53500   0.01267  Uiso   1.00
C31    C     0.04750   0.16240   0.47657   0.01267  Uiso   1.00
C32    C     0.95250   0.33760   0.97657   0.01267  Uiso   1.00
C33    C     0.46850   0.58750   0.46816   0.01267  Uiso   1.00
C34    C     0.37470   0.49795   0.13927   0.01267  Uiso   1.00
C35    C     0.88630   0.25000   0.64670   0.01267  Uiso   1.00
C36    C     0.01220   0.33720   0.04380   0.01267  Uiso   1.00
C37    C     0.98780   0.33720   0.54380   0.01267  Uiso   1.00
C38    C     0.52830   0.08650   0.96500   0.01267  Uiso   1.00
C39    C     0.98780   0.83720   0.95620   0.01267  Uiso   1.00
C40    C     0.11370   0.25000   0.14670   0.01267  Uiso   1.00
C41    C     0.46850   0.08750   0.03184   0.01267  Uiso   1.00
C42    C     0.07600   0.25000   0.44220   0.01267  Uiso   1.00
C43    C     0.01220   0.83720   0.45620   0.01267  Uiso   1.00
C44    C     0.44050   0.00069   0.06725   0.01267  Uiso   1.00
C45    C     0.95740   0.75000   0.92310   0.01267  Uiso   1.00
C46    C     0.62530   0.49795   0.63927   0.01267  Uiso   1.00
C47    C     0.04260   0.25000   0.07690   0.01267  Uiso   1.00
C48    C     0.62530   0.00205   0.63927   0.01267  Uiso   1.00
C49    C     0.92400   0.25000   0.94220   0.01267  Uiso   1.00
C50    C     0.44050   0.49931   0.06725   0.01267  Uiso   1.00
C51    C     0.53150   0.58750   0.96816   0.01267  Uiso   1.00
C52    C     0.37470   0.50205   0.36073   0.01267  Uiso   1.00
C53    C     0.04260   0.75000   0.42310   0.01267  Uiso   1.00
C54    C     0.47170   0.91350   0.03500   0.01267  Uiso   1.00
C55    C     0.52830   0.41350   0.96500   0.01267  Uiso   1.00
C56    C     0.44050   0.99931   0.43275   0.01267  Uiso   1.00
C57    C     0.98780   0.16280   0.54380   0.01267  Uiso   1.00
C58    C     0.01220   0.16280   0.04380   0.01267  Uiso   1.00
C59    C     0.86350   0.25000   0.86790   0.01267  Uiso   1.00
C60    C     0.52830   0.91350   0.53500   0.01267  Uiso   1.00
C61    C     0.37470   0.00205   0.13927   0.01267  Uiso   1.00
C62    C     0.95250   0.16240   0.97657   0.01267  Uiso   1.00
C63    C     0.04750   0.66240   0.02343   0.01267  Uiso   1.00
C64    C     0.04750   0.33760   0.47657   0.01267  Uiso   1.00
O1     O     0.15957   0.33121   0.33933   0.01267  Uiso   1.00
O2     O     0.17810   0.50000   0.25000   0.01267  Uiso   1.00
O3     O     0.65661   0.58341   0.83734   0.01267  Uiso   1.00
O4     O     0.85921   0.83124   0.82689   0.01267  Uiso   1.00
O5     O     0.14079   0.66876   0.32689   0.01267  Uiso   1.00
O6     O     0.84043   0.83121   0.66067   0.01267  Uiso   1.00
O7     O     0.35626   0.07822   0.32863   0.01267  Uiso   1.00
O8     O     0.65661   0.41659   0.66266   0.01267  Uiso   1.00
O9     O     0.34339   0.91659   0.33734   0.01267  Uiso   1.00
O10    O     0.34339   0.41659   0.16266   0.01267  Uiso   1.00
O11    O     0.14079   0.16876   0.17311   0.01267  Uiso   1.00
O12    O     0.14079   0.33124   0.17311   0.01267  Uiso   1.00
O13    O     0.34339   0.08341   0.16266   0.01267  Uiso   1.00
O14    O     0.65661   0.08341   0.66266   0.01267  Uiso   1.00
O15    O     0.65661   0.91659   0.83734   0.01267  Uiso   1.00
O16    O     0.15957   0.66879   0.16067   0.01267  Uiso   1.00
O17    O     0.35626   0.42178   0.32863   0.01267  Uiso   1.00
O18    O     0.82190   0.50000   0.75000   0.01267  Uiso   1.00
O19    O     0.64374   0.57822   0.67137   0.01267  Uiso   1.00
O20    O     0.34339   0.58341   0.33734   0.01267  Uiso   1.00
O21    O     0.14079   0.83124   0.32689   0.01267  Uiso   1.00
O22    O     0.85921   0.66876   0.82689   0.01267  Uiso   1.00
O23    O     0.64374   0.92178   0.67137   0.01267  Uiso   1.00
O24    O     0.15957   0.16879   0.33933   0.01267  Uiso   1.00
O25    O     0.64374   0.07822   0.82863   0.01267  Uiso   1.00
O26    O     0.84043   0.33121   0.83933   0.01267  Uiso   1.00
O27    O     0.85921   0.16876   0.67311   0.01267  Uiso   1.00
O28    O     0.84043   0.66879   0.66067   0.01267  Uiso   1.00
O29    O     0.35626   0.92178   0.17137   0.01267  Uiso   1.00
O30    O     0.15957   0.83121   0.16067   0.01267  Uiso   1.00
O31    O     0.35626   0.57822   0.17137   0.01267  Uiso   1.00
O32    O     0.82190   0.00000   0.75000   0.01267  Uiso   1.00
O33    O     0.67910   0.75000   0.75342   0.01267  Uiso   1.00
O34    O     0.32090   0.25000   0.24658   0.01267  Uiso   1.00
O35    O     0.17810   0.00000   0.25000   0.01267  Uiso   1.00
O36    O     0.67910   0.25000   0.74658   0.01267  Uiso   1.00
O37    O     0.32090   0.75000   0.25342   0.01267  Uiso   1.00
O38    O     0.85921   0.33124   0.67311   0.01267  Uiso   1.00
O39    O     0.64374   0.42178   0.82863   0.01267  Uiso   1.00
O40    O     0.84043   0.16879   0.83933   0.01267  Uiso   1.00
