data_ic5008457_si_002_freeONLY
_audit_creation_date              2015-08-19
_audit_creation_method            'Materials Studio'
_symmetry_space_group_name_H-M    'P1'
_symmetry_Int_Tables_number       1
_symmetry_cell_setting            triclinic
loop_
_symmetry_equiv_pos_as_xyz
  x,y,z
_cell_length_a                    13.1350
_cell_length_b                    14.8550
_cell_length_c                    15.3900
_cell_angle_alpha                 90.0000
_cell_angle_beta                  91.1300
_cell_angle_gamma                 90.0000
loop_
_atom_site_label
_atom_site_type_symbol
_atom_site_fract_x
_atom_site_fract_y
_atom_site_fract_z
_atom_site_U_iso_or_equiv
_atom_site_adp_type
_atom_site_occupancy
Cu1    Cu    0.98225   0.70819   0.09707   0.01267  Uiso   1.00
Cu2    Cu    0.00000   0.50000   0.00000   0.01267  Uiso   1.00
Cu3    Cu    0.51775   0.20819   0.40293   0.01267  Uiso   1.00
Cu4    Cu    0.01775   0.29181   0.90293   0.01267  Uiso   1.00
Cu5    Cu    0.48225   0.79181   0.59707   0.01267  Uiso   1.00
Cu6    Cu    0.50000   0.00000   0.50000   0.01267  Uiso   1.00
H1     H     0.59810   0.63070   0.64870   0.01267  Uiso   1.00
H2     H     0.73250   0.30760   0.16440   0.01267  Uiso   1.00
H3     H     0.65000   0.37120   0.44430   0.01267  Uiso   1.00
H4     H     0.29440   0.16960   0.14330   0.01267  Uiso   1.00
H5     H     0.78350   0.08480   0.74870   0.01267  Uiso   1.00
H6     H     0.26140   0.03610   0.87610   0.01267  Uiso   1.00
H7     H     0.71650   0.58480   0.75130   0.01267  Uiso   1.00
H8     H     0.28350   0.41520   0.24870   0.01267  Uiso   1.00
H9     H     0.85000   0.87120   0.05570   0.01267  Uiso   1.00
H10    H     0.23860   0.53610   0.62390   0.01267  Uiso   1.00
H11    H     0.09100   0.62980   0.25050   0.01267  Uiso   1.00
H12    H     0.79440   0.33040   0.64330   0.01267  Uiso   1.00
H13    H     0.90190   0.13070   0.85130   0.01267  Uiso   1.00
H14    H     0.40190   0.36930   0.35130   0.01267  Uiso   1.00
H15    H     0.76750   0.80760   0.33560   0.01267  Uiso   1.00
H16    H     0.76140   0.46390   0.37610   0.01267  Uiso   1.00
H17    H     0.62440   0.21830   0.23980   0.01267  Uiso   1.00
H18    H     0.35000   0.62880   0.55570   0.01267  Uiso   1.00
H19    H     0.21650   0.91520   0.25130   0.01267  Uiso   1.00
H20    H     0.70560   0.83040   0.85670   0.01267  Uiso   1.00
H21    H     0.40900   0.12980   0.24950   0.01267  Uiso   1.00
H22    H     0.73860   0.96390   0.12390   0.01267  Uiso   1.00
H23    H     0.12440   0.28170   0.73980   0.01267  Uiso   1.00
H24    H     0.09810   0.86930   0.14870   0.01267  Uiso   1.00
H25    H     0.26750   0.69240   0.83560   0.01267  Uiso   1.00
H26    H     0.23250   0.19240   0.66440   0.01267  Uiso   1.00
H27    H     0.90900   0.37020   0.74950   0.01267  Uiso   1.00
H28    H     0.20560   0.66960   0.35670   0.01267  Uiso   1.00
H29    H     0.37560   0.78170   0.76020   0.01267  Uiso   1.00
H30    H     0.59100   0.87020   0.75050   0.01267  Uiso   1.00
H31    H     0.87560   0.71830   0.26020   0.01267  Uiso   1.00
H32    H     0.15000   0.12880   0.94430   0.01267  Uiso   1.00
C1     C     0.72340   0.70280   0.81600   0.01267  Uiso   1.00
C2     C     0.88430   0.31150   0.74830   0.01267  Uiso   1.00
C3     C     0.22340   0.79720   0.31600   0.01267  Uiso   1.00
C4     C     0.33270   0.64160   0.61270   0.01267  Uiso   1.00
C5     C     0.65200   0.26880   0.26720   0.01267  Uiso   1.00
C6     C     0.26000   0.10300   0.76050   0.01267  Uiso   1.00
C7     C     0.77660   0.20280   0.68400   0.01267  Uiso   1.00
C8     C     0.66730   0.35840   0.38730   0.01267  Uiso   1.00
C9     C     0.24000   0.60300   0.73950   0.01267  Uiso   1.00
C10    C     0.34800   0.73120   0.73280   0.01267  Uiso   1.00
C11    C     0.11990   0.82890   0.19140   0.01267  Uiso   1.00
C12    C     0.30910   0.35680   0.24740   0.01267  Uiso   1.00
C13    C     0.79780   0.67300   0.88340   0.01267  Uiso   1.00
C14    C     0.17000   0.54510   0.78730   0.01267  Uiso   1.00
C15    C     0.23380   0.08550   0.84680   0.01267  Uiso   1.00
C16    C     0.16730   0.14160   0.88730   0.01267  Uiso   1.00
C17    C     0.31510   0.21140   0.18510   0.01267  Uiso   1.00
C18    C     0.74000   0.89700   0.23950   0.01267  Uiso   1.00
C19    C     0.78290   0.82200   0.27850   0.01267  Uiso   1.00
C20    C     0.21710   0.17800   0.72150   0.01267  Uiso   1.00
C21    C     0.61990   0.67110   0.69140   0.01267  Uiso   1.00
C22    C     0.19090   0.85680   0.25260   0.01267  Uiso   1.00
C23    C     0.18490   0.71140   0.31490   0.01267  Uiso   1.00
C24    C     0.81510   0.28860   0.68510   0.01267  Uiso   1.00
C25    C     0.33000   0.04510   0.71270   0.01267  Uiso   1.00
C26    C     0.20220   0.32700   0.11660   0.01267  Uiso   1.00
C27    C     0.76000   0.39700   0.26050   0.01267  Uiso   1.00
C28    C     0.73380   0.41450   0.34680   0.01267  Uiso   1.00
C29    C     0.61570   0.81150   0.75170   0.01267  Uiso   1.00
C30    C     0.70220   0.17300   0.61660   0.01267  Uiso   1.00
C31    C     0.38430   0.18850   0.24830   0.01267  Uiso   1.00
C32    C     0.84800   0.76880   0.23280   0.01267  Uiso   1.00
C33    C     0.68490   0.78860   0.81490   0.01267  Uiso   1.00
C34    C     0.83000   0.45490   0.21270   0.01267  Uiso   1.00
C35    C     0.38010   0.32890   0.30860   0.01267  Uiso   1.00
C36    C     0.76620   0.91450   0.15320   0.01267  Uiso   1.00
C37    C     0.15200   0.23120   0.76720   0.01267  Uiso   1.00
C38    C     0.71710   0.32200   0.22150   0.01267  Uiso   1.00
C39    C     0.11570   0.68850   0.25170   0.01267  Uiso   1.00
C40    C     0.83270   0.85840   0.11270   0.01267  Uiso   1.00
C41    C     0.28290   0.67800   0.77850   0.01267  Uiso   1.00
C42    C     0.26620   0.58550   0.65320   0.01267  Uiso   1.00
C43    C     0.27660   0.29720   0.18400   0.01267  Uiso   1.00
C44    C     0.67000   0.95490   0.28730   0.01267  Uiso   1.00
C45    C     0.80910   0.14320   0.74740   0.01267  Uiso   1.00
C46    C     0.88010   0.17110   0.80860   0.01267  Uiso   1.00
C47    C     0.29780   0.82700   0.38340   0.01267  Uiso   1.00
C48    C     0.69090   0.64320   0.75260   0.01267  Uiso   1.00
N1     N     0.41850   0.24630   0.30880   0.01267  Uiso   1.00
N2     N     0.32840   0.14530   0.45480   0.01267  Uiso   1.00
N3     N     0.74490   0.33390   0.96490   0.01267  Uiso   1.00
N4     N     0.41380   0.12380   0.44790   0.01267  Uiso   1.00
N5     N     0.25510   0.66610   0.03510   0.01267  Uiso   1.00
N6     N     0.64470   0.03980   0.26710   0.01267  Uiso   1.00
N7     N     0.67160   0.85470   0.54520   0.01267  Uiso   1.00
N8     N     0.37420   0.71450   0.65100   0.01267  Uiso   1.00
N9     N     0.37290   0.07310   0.63990   0.01267  Uiso   1.00
N10    N     0.84250   0.59260   0.88390   0.01267  Uiso   1.00
N11    N     0.08370   0.43430   0.83100   0.01267  Uiso   1.00
N12    N     0.67290   0.22450   0.54950   0.01267  Uiso   1.00
N13    N     0.10760   0.32680   0.00560   0.01267  Uiso   1.00
N14    N     0.91380   0.37620   0.94790   0.01267  Uiso   1.00
N15    N     0.39240   0.82680   0.49440   0.01267  Uiso   1.00
N16    N     0.07380   0.50257   0.88580   0.01267  Uiso   1.00
N17    N     0.12580   0.21450   0.84900   0.01267  Uiso   1.00
N18    N     0.08620   0.62380   0.05210   0.01267  Uiso   1.00
N19    N     0.60760   0.17320   0.50560   0.01267  Uiso   1.00
N20    N     0.24490   0.16610   0.46490   0.01267  Uiso   1.00
N21    N     0.42620   0.00257   0.61420   0.01267  Uiso   1.00
N22    N     0.41630   0.93430   0.66900   0.01267  Uiso   1.00
N23    N     0.65750   0.09260   0.61610   0.01267  Uiso   1.00
N24    N     0.57380   0.99743   0.38580   0.01267  Uiso   1.00
N25    N     0.58150   0.75370   0.69120   0.01267  Uiso   1.00
N26    N     0.91630   0.56570   0.16900   0.01267  Uiso   1.00
N27    N     0.90190   0.59460   0.95480   0.01267  Uiso   1.00
N28    N     0.35530   0.96020   0.73290   0.01267  Uiso   1.00
N29    N     0.58620   0.87620   0.55210   0.01267  Uiso   1.00
N30    N     0.87290   0.42690   0.13990   0.01267  Uiso   1.00
N31    N     0.09810   0.40540   0.04520   0.01267  Uiso   1.00
N32    N     0.85530   0.53980   0.23290   0.01267  Uiso   1.00
N33    N     0.17160   0.64530   0.04520   0.01267  Uiso   1.00
N34    N     0.59810   0.09460   0.54520   0.01267  Uiso   1.00
N35    N     0.12710   0.57310   0.86010   0.01267  Uiso   1.00
N36    N     0.40190   0.90540   0.45480   0.01267  Uiso   1.00
N37    N     0.91850   0.25370   0.80880   0.01267  Uiso   1.00
N38    N     0.17290   0.27550   0.04950   0.01267  Uiso   1.00
N39    N     0.15750   0.40740   0.11610   0.01267  Uiso   1.00
N40    N     0.92620   0.49743   0.11420   0.01267  Uiso   1.00
N41    N     0.34250   0.90740   0.38390   0.01267  Uiso   1.00
N42    N     0.75510   0.83390   0.53510   0.01267  Uiso   1.00
N43    N     0.82710   0.72450   0.95050   0.01267  Uiso   1.00
N44    N     0.89240   0.67320   0.99440   0.01267  Uiso   1.00
N45    N     0.62580   0.28550   0.34900   0.01267  Uiso   1.00
N46    N     0.87420   0.78550   0.15100   0.01267  Uiso   1.00
N47    N     0.08150   0.74630   0.19120   0.01267  Uiso   1.00
N48    N     0.14470   0.46020   0.76710   0.01267  Uiso   1.00
N49    N     0.32710   0.77550   0.45050   0.01267  Uiso   1.00
N50    N     0.58370   0.06570   0.33100   0.01267  Uiso   1.00
N51    N     0.82840   0.35470   0.95480   0.01267  Uiso   1.00
N52    N     0.62710   0.92690   0.36010   0.01267  Uiso   1.00
