data_image0
_cell_length_a       26.953
_cell_length_b       17.962
_cell_length_c       13.8757
_cell_angle_alpha    90
_cell_angle_beta     119.11
_cell_angle_gamma    90

_symmetry_space_group_name_H-M    "P 1"
_symmetry_int_tables_number       1

loop_
  _symmetry_equiv_pos_as_xyz
  'x, y, z'

loop_
  _atom_site_label
  _atom_site_occupancy
  _atom_site_fract_x
  _atom_site_fract_y
  _atom_site_fract_z
  _atom_site_thermal_displace_type
  _atom_site_B_iso_or_equiv
  _atom_site_type_symbol
  Dy1      1.0000 0.52282  0.89572  0.15881  Biso   1.000  Dy
  Dy2      1.0000 0.57811  0.76525  0.03659  Biso   1.000  Dy
  S1       1.0000 0.57987  0.66470  0.81920  Biso   1.000  S
  S2       1.0000 0.64156  0.66340  0.28650  Biso   1.000  S
  O1       1.0000 0.85100  0.58250  0.44200  Biso   1.000  O
  O2       1.0000 0.90690  0.68100  0.48020  Biso   1.000  O
  O3       1.0000 0.67110  0.89650  0.37520  Biso   1.000  O
  O4       1.0000 0.61620  0.83020  0.22380  Biso   1.000  O
  O5       1.0000 0.61470  0.66680  0.16330  Biso   1.000  O
  O6       1.0000 0.60750  0.69890  0.32800  Biso   1.000  O
  O7       1.0000 0.65660  0.58870  0.32240  Biso   1.000  O
  O8       1.0000 0.57210  0.88820  0.72720  Biso   1.000  O
  O9       1.0000 0.56460  0.83330  0.86350  Biso   1.000  O
  O10      1.0000 0.83190  0.70730  0.91760  Biso   1.000  O
  O11      1.0000 0.78510  0.60210  0.89440  Biso   1.000  O
  O12      1.0000 0.52880  0.69950  0.73340  Biso   1.000  O
  O13      1.0000 0.58900  0.58920  0.79660  Biso   1.000  O
  O14      1.0000 0.58360  0.67060  0.92950  Biso   1.000  O
  O15      1.0000 0.55190  0.89060  0.02410  Biso   1.000  O
  H1       1.0000 0.57700  0.92290  0.03460  Biso   1.000  H
  O16      1.0000 0.51450  0.77040  0.10580  Biso   1.000  O
  H2       1.0000 0.52080  0.73630  0.15280  Biso   1.000  H
  O17      1.0000 0.55040  0.92410  0.34340  Biso   1.000  O
  H3       1.0000 0.55630  0.88470  0.38140  Biso   1.000  H
  H4       1.0000 0.76000  0.96340  0.52300  Biso   1.000  H
  H5       1.0000 0.52820  0.89260  0.51340  Biso   1.000  H
  H6       1.0000 0.37470  0.96370  0.34720  Biso   1.000  H
  H7       1.0000 0.53520  0.53910  0.18480  Biso   1.000  H
  H8       1.0000 0.58950  0.53650  0.94460  Biso   1.000  H
  H9       1.0000 0.52880  0.61450  0.04360  Biso   1.000  H
  C1       1.0000 0.81200  0.77900  0.41320  Biso   1.000  C
  H10      1.0000 0.84780  0.80240  0.43860  Biso   1.000  H
  C2       1.0000 0.76390  0.82120  0.38170  Biso   1.000  C
  H11      1.0000 0.76760  0.87390  0.38700  Biso   1.000  H
  C3       1.0000 0.71070  0.79100  0.34320  Biso   1.000  C
  C4       1.0000 0.70610  0.71310  0.33490  Biso   1.000  C
  C5       1.0000 0.75490  0.66900  0.36580  Biso   1.000  C
  H12      1.0000 0.75150  0.61640  0.35820  Biso   1.000  H
  C6       1.0000 0.80780  0.70230  0.40740  Biso   1.000  C
  C7       1.0000 0.85970  0.65290  0.44630  Biso   1.000  C
  C8       1.0000 0.66190  0.84180  0.31150  Biso   1.000  C
  C9       1.0000 0.73590  0.71600  0.86810  Biso   1.000  C
  C10      1.0000 0.68750  0.67780  0.85200  Biso   1.000  C
  H13      1.0000 0.68760  0.62490  0.85480  Biso   1.000  H
  C11      1.0000 0.63870  0.71740  0.83160  Biso   1.000  C
  C12      1.0000 0.63880  0.79360  0.82600  Biso   1.000  C
  C13      1.0000 0.68660  0.83270  0.83910  Biso   1.000  C
  H14      1.0000 0.68580  0.88530  0.83240  Biso   1.000  H
  C14      1.0000 0.73510  0.79260  0.86210  Biso   1.000  C
  H15      1.0000 0.76840  0.81840  0.87390  Biso   1.000  H
  C15      1.0000 0.78800  0.67130  0.89590  Biso   1.000  C
  C16      1.0000 0.58750  0.84150  0.80250  Biso   1.000  C
  Dy3      1.0000 0.02282  0.39572  0.15881  Biso   1.000  Dy
  Dy4      1.0000 0.07811  0.26525  0.03659  Biso   1.000  Dy
  S3       1.0000 0.07987  0.16470  0.81920  Biso   1.000  S
  S4       1.0000 0.14156  0.16340  0.28650  Biso   1.000  S
  O18      1.0000 0.35100  0.08250  0.44200  Biso   1.000  O
  O19      1.0000 0.40690  0.18100  0.48020  Biso   1.000  O
  O20      1.0000 0.17110  0.39650  0.37520  Biso   1.000  O
  O21      1.0000 0.11620  0.33020  0.22380  Biso   1.000  O
  O22      1.0000 0.11470  0.16680  0.16330  Biso   1.000  O
  O23      1.0000 0.10750  0.19890  0.32800  Biso   1.000  O
  O24      1.0000 0.15660  0.08870  0.32240  Biso   1.000  O
  O25      1.0000 0.07210  0.38820  0.72720  Biso   1.000  O
  O26      1.0000 0.06460  0.33330  0.86350  Biso   1.000  O
  O27      1.0000 0.33190  0.20730  0.91760  Biso   1.000  O
  O28      1.0000 0.28510  0.10210  0.89440  Biso   1.000  O
  O29      1.0000 0.02880  0.19950  0.73340  Biso   1.000  O
  O30      1.0000 0.08900  0.08920  0.79660  Biso   1.000  O
  O31      1.0000 0.08360  0.17060  0.92950  Biso   1.000  O
  O32      1.0000 0.05190  0.39060  0.02410  Biso   1.000  O
  H16      1.0000 0.07700  0.42290  0.03460  Biso   1.000  H
  O33      1.0000 0.01450  0.27040  0.10580  Biso   1.000  O
  H17      1.0000 0.02080  0.23630  0.15280  Biso   1.000  H
  O34      1.0000 0.05040  0.42410  0.34340  Biso   1.000  O
  H18      1.0000 0.05630  0.38470  0.38140  Biso   1.000  H
  H19      1.0000 0.26000  0.46340  0.52300  Biso   1.000  H
  H20      1.0000 0.02820  0.39260  0.51340  Biso   1.000  H
  H21      1.0000 0.87470  0.46370  0.34720  Biso   1.000  H
  H22      1.0000 0.03520  0.03910  0.18480  Biso   1.000  H
  H23      1.0000 0.08950  0.03650  0.94460  Biso   1.000  H
  H24      1.0000 0.02880  0.11450  0.04360  Biso   1.000  H
  C17      1.0000 0.31200  0.27900  0.41320  Biso   1.000  C
  H25      1.0000 0.34780  0.30240  0.43860  Biso   1.000  H
  C18      1.0000 0.26390  0.32120  0.38170  Biso   1.000  C
  H26      1.0000 0.26760  0.37390  0.38700  Biso   1.000  H
  C19      1.0000 0.21070  0.29100  0.34320  Biso   1.000  C
  C20      1.0000 0.20610  0.21310  0.33490  Biso   1.000  C
  C21      1.0000 0.25490  0.16900  0.36580  Biso   1.000  C
  H27      1.0000 0.25150  0.11640  0.35820  Biso   1.000  H
  C22      1.0000 0.30780  0.20230  0.40740  Biso   1.000  C
  C23      1.0000 0.35970  0.15290  0.44630  Biso   1.000  C
  C24      1.0000 0.16190  0.34180  0.31150  Biso   1.000  C
  C25      1.0000 0.23590  0.21600  0.86810  Biso   1.000  C
  C26      1.0000 0.18750  0.17780  0.85200  Biso   1.000  C
  H28      1.0000 0.18760  0.12490  0.85480  Biso   1.000  H
  C27      1.0000 0.13870  0.21740  0.83160  Biso   1.000  C
  C28      1.0000 0.13880  0.29360  0.82600  Biso   1.000  C
  C29      1.0000 0.18660  0.33270  0.83910  Biso   1.000  C
  H29      1.0000 0.18580  0.38530  0.83240  Biso   1.000  H
  C30      1.0000 0.23510  0.29260  0.86210  Biso   1.000  C
  H30      1.0000 0.26840  0.31840  0.87390  Biso   1.000  H
  C31      1.0000 0.28800  0.17130  0.89590  Biso   1.000  C
  C32      1.0000 0.08750  0.34150  0.80250  Biso   1.000  C
  Dy5      1.0000 0.47718  0.89572  0.84119  Biso   1.000  Dy
  Dy6      1.0000 0.42189  0.76525  0.96341  Biso   1.000  Dy
  S5       1.0000 0.42013  0.66470  0.18080  Biso   1.000  S
  S6       1.0000 0.35844  0.66340  0.71350  Biso   1.000  S
  O35      1.0000 0.14900  0.58250  0.55800  Biso   1.000  O
  O36      1.0000 0.09310  0.68100  0.51980  Biso   1.000  O
  O37      1.0000 0.32890  0.89650  0.62480  Biso   1.000  O
  O38      1.0000 0.38380  0.83020  0.77620  Biso   1.000  O
  O39      1.0000 0.38530  0.66680  0.83670  Biso   1.000  O
  O40      1.0000 0.39250  0.69890  0.67200  Biso   1.000  O
  O41      1.0000 0.34340  0.58870  0.67760  Biso   1.000  O
  O42      1.0000 0.42790  0.88820  0.27280  Biso   1.000  O
  O43      1.0000 0.43540  0.83330  0.13650  Biso   1.000  O
  O44      1.0000 0.16810  0.70730  0.08240  Biso   1.000  O
  O45      1.0000 0.21490  0.60210  0.10560  Biso   1.000  O
  O46      1.0000 0.47120  0.69950  0.26660  Biso   1.000  O
  O47      1.0000 0.41100  0.58920  0.20340  Biso   1.000  O
  O48      1.0000 0.41640  0.67060  0.07050  Biso   1.000  O
  O49      1.0000 0.44810  0.89060  0.97590  Biso   1.000  O
  H31      1.0000 0.42300  0.92290  0.96540  Biso   1.000  H
  O50      1.0000 0.48550  0.77040  0.89420  Biso   1.000  O
  H32      1.0000 0.47920  0.73630  0.84720  Biso   1.000  H
  O51      1.0000 0.44960  0.92410  0.65660  Biso   1.000  O
  H33      1.0000 0.44370  0.88470  0.61860  Biso   1.000  H
  H34      1.0000 0.24000  0.96340  0.47700  Biso   1.000  H
  H35      1.0000 0.47180  0.89260  0.48660  Biso   1.000  H
  H36      1.0000 0.62530  0.96370  0.65280  Biso   1.000  H
  H37      1.0000 0.46480  0.53910  0.81520  Biso   1.000  H
  H38      1.0000 0.41050  0.53650  0.05540  Biso   1.000  H
  H39      1.0000 0.47120  0.61450  0.95640  Biso   1.000  H
  C33      1.0000 0.18800  0.77900  0.58680  Biso   1.000  C
  H40      1.0000 0.15220  0.80240  0.56140  Biso   1.000  H
  C34      1.0000 0.23610  0.82120  0.61830  Biso   1.000  C
  H41      1.0000 0.23240  0.87390  0.61300  Biso   1.000  H
  C35      1.0000 0.28930  0.79100  0.65680  Biso   1.000  C
  C36      1.0000 0.29390  0.71310  0.66510  Biso   1.000  C
  C37      1.0000 0.24510  0.66900  0.63420  Biso   1.000  C
  H42      1.0000 0.24850  0.61640  0.64180  Biso   1.000  H
  C38      1.0000 0.19220  0.70230  0.59260  Biso   1.000  C
  C39      1.0000 0.14030  0.65290  0.55370  Biso   1.000  C
  C40      1.0000 0.33810  0.84180  0.68850  Biso   1.000  C
  C41      1.0000 0.26410  0.71600  0.13190  Biso   1.000  C
  C42      1.0000 0.31250  0.67780  0.14800  Biso   1.000  C
  H43      1.0000 0.31240  0.62490  0.14520  Biso   1.000  H
  C43      1.0000 0.36130  0.71740  0.16840  Biso   1.000  C
  C44      1.0000 0.36120  0.79360  0.17400  Biso   1.000  C
  C45      1.0000 0.31340  0.83270  0.16090  Biso   1.000  C
  H44      1.0000 0.31420  0.88530  0.16760  Biso   1.000  H
  C46      1.0000 0.26490  0.79260  0.13790  Biso   1.000  C
  H45      1.0000 0.23160  0.81840  0.12610  Biso   1.000  H
  C47      1.0000 0.21200  0.67130  0.10410  Biso   1.000  C
  C48      1.0000 0.41250  0.84150  0.19750  Biso   1.000  C
  Dy7      1.0000 0.97718  0.39572  0.84119  Biso   1.000  Dy
  Dy8      1.0000 0.92189  0.26525  0.96341  Biso   1.000  Dy
  S7       1.0000 0.92013  0.16470  0.18080  Biso   1.000  S
  S8       1.0000 0.85844  0.16340  0.71350  Biso   1.000  S
  O52      1.0000 0.64900  0.08250  0.55800  Biso   1.000  O
  O53      1.0000 0.59310  0.18100  0.51980  Biso   1.000  O
  O54      1.0000 0.82890  0.39650  0.62480  Biso   1.000  O
  O55      1.0000 0.88380  0.33020  0.77620  Biso   1.000  O
  O56      1.0000 0.88530  0.16680  0.83670  Biso   1.000  O
  O57      1.0000 0.89250  0.19890  0.67200  Biso   1.000  O
  O58      1.0000 0.84340  0.08870  0.67760  Biso   1.000  O
  O59      1.0000 0.92790  0.38820  0.27280  Biso   1.000  O
  O60      1.0000 0.93540  0.33330  0.13650  Biso   1.000  O
  O61      1.0000 0.66810  0.20730  0.08240  Biso   1.000  O
  O62      1.0000 0.71490  0.10210  0.10560  Biso   1.000  O
  O63      1.0000 0.97120  0.19950  0.26660  Biso   1.000  O
  O64      1.0000 0.91100  0.08920  0.20340  Biso   1.000  O
  O65      1.0000 0.91640  0.17060  0.07050  Biso   1.000  O
  O66      1.0000 0.94810  0.39060  0.97590  Biso   1.000  O
  H46      1.0000 0.92300  0.42290  0.96540  Biso   1.000  H
  O67      1.0000 0.98550  0.27040  0.89420  Biso   1.000  O
  H47      1.0000 0.97920  0.23630  0.84720  Biso   1.000  H
  O68      1.0000 0.94960  0.42410  0.65660  Biso   1.000  O
  H48      1.0000 0.94370  0.38470  0.61860  Biso   1.000  H
  H49      1.0000 0.74000  0.46340  0.47700  Biso   1.000  H
  H50      1.0000 0.97180  0.39260  0.48660  Biso   1.000  H
  H51      1.0000 0.12530  0.46370  0.65280  Biso   1.000  H
  H52      1.0000 0.96480  0.03910  0.81520  Biso   1.000  H
  H53      1.0000 0.91050  0.03650  0.05540  Biso   1.000  H
  H54      1.0000 0.97120  0.11450  0.95640  Biso   1.000  H
  C49      1.0000 0.68800  0.27900  0.58680  Biso   1.000  C
  H55      1.0000 0.65220  0.30240  0.56140  Biso   1.000  H
  C50      1.0000 0.73610  0.32120  0.61830  Biso   1.000  C
  H56      1.0000 0.73240  0.37390  0.61300  Biso   1.000  H
  C51      1.0000 0.78930  0.29100  0.65680  Biso   1.000  C
  C52      1.0000 0.79390  0.21310  0.66510  Biso   1.000  C
  C53      1.0000 0.74510  0.16900  0.63420  Biso   1.000  C
  H57      1.0000 0.74850  0.11640  0.64180  Biso   1.000  H
  C54      1.0000 0.69220  0.20230  0.59260  Biso   1.000  C
  C55      1.0000 0.64030  0.15290  0.55370  Biso   1.000  C
  C56      1.0000 0.83810  0.34180  0.68850  Biso   1.000  C
  C57      1.0000 0.76410  0.21600  0.13190  Biso   1.000  C
  C58      1.0000 0.81250  0.17780  0.14800  Biso   1.000  C
  H58      1.0000 0.81240  0.12490  0.14520  Biso   1.000  H
  C59      1.0000 0.86130  0.21740  0.16840  Biso   1.000  C
  C60      1.0000 0.86120  0.29360  0.17400  Biso   1.000  C
  C61      1.0000 0.81340  0.33270  0.16090  Biso   1.000  C
  H59      1.0000 0.81420  0.38530  0.16760  Biso   1.000  H
  C62      1.0000 0.76490  0.29260  0.13790  Biso   1.000  C
  H60      1.0000 0.73160  0.31840  0.12610  Biso   1.000  H
  C63      1.0000 0.71200  0.17130  0.10410  Biso   1.000  C
  C64      1.0000 0.91250  0.34150  0.19750  Biso   1.000  C
  Dy9      1.0000 0.47718  0.10428  0.84119  Biso   1.000  Dy
  Dy10     1.0000 0.42189  0.23475  0.96341  Biso   1.000  Dy
  S9       1.0000 0.42013  0.33530  0.18080  Biso   1.000  S
  S10      1.0000 0.35844  0.33660  0.71350  Biso   1.000  S
  O69      1.0000 0.14900  0.41750  0.55800  Biso   1.000  O
  O70      1.0000 0.09310  0.31900  0.51980  Biso   1.000  O
  O71      1.0000 0.32890  0.10350  0.62480  Biso   1.000  O
  O72      1.0000 0.38380  0.16980  0.77620  Biso   1.000  O
  O73      1.0000 0.38530  0.33320  0.83670  Biso   1.000  O
  O74      1.0000 0.39250  0.30110  0.67200  Biso   1.000  O
  O75      1.0000 0.34340  0.41130  0.67760  Biso   1.000  O
  O76      1.0000 0.42790  0.11180  0.27280  Biso   1.000  O
  O77      1.0000 0.43540  0.16670  0.13650  Biso   1.000  O
  O78      1.0000 0.16810  0.29270  0.08240  Biso   1.000  O
  O79      1.0000 0.21490  0.39790  0.10560  Biso   1.000  O
  O80      1.0000 0.47120  0.30050  0.26660  Biso   1.000  O
  O81      1.0000 0.41100  0.41080  0.20340  Biso   1.000  O
  O82      1.0000 0.41640  0.32940  0.07050  Biso   1.000  O
  O83      1.0000 0.44810  0.10940  0.97590  Biso   1.000  O
  H61      1.0000 0.42300  0.07710  0.96540  Biso   1.000  H
  O84      1.0000 0.48550  0.22960  0.89420  Biso   1.000  O
  H62      1.0000 0.47920  0.26370  0.84720  Biso   1.000  H
  O85      1.0000 0.44960  0.07590  0.65660  Biso   1.000  O
  H63      1.0000 0.44370  0.11530  0.61860  Biso   1.000  H
  H64      1.0000 0.24000  0.03660  0.47700  Biso   1.000  H
  H65      1.0000 0.47180  0.10740  0.48660  Biso   1.000  H
  H66      1.0000 0.62530  0.03630  0.65280  Biso   1.000  H
  H67      1.0000 0.46480  0.46090  0.81520  Biso   1.000  H
  H68      1.0000 0.41050  0.46350  0.05540  Biso   1.000  H
  H69      1.0000 0.47120  0.38550  0.95640  Biso   1.000  H
  C65      1.0000 0.18800  0.22100  0.58680  Biso   1.000  C
  H70      1.0000 0.15220  0.19760  0.56140  Biso   1.000  H
  C66      1.0000 0.23610  0.17880  0.61830  Biso   1.000  C
  H71      1.0000 0.23240  0.12610  0.61300  Biso   1.000  H
  C67      1.0000 0.28930  0.20900  0.65680  Biso   1.000  C
  C68      1.0000 0.29390  0.28690  0.66510  Biso   1.000  C
  C69      1.0000 0.24510  0.33100  0.63420  Biso   1.000  C
  H72      1.0000 0.24850  0.38360  0.64180  Biso   1.000  H
  C70      1.0000 0.19220  0.29770  0.59260  Biso   1.000  C
  C71      1.0000 0.14030  0.34710  0.55370  Biso   1.000  C
  C72      1.0000 0.33810  0.15820  0.68850  Biso   1.000  C
  C73      1.0000 0.26410  0.28400  0.13190  Biso   1.000  C
  C74      1.0000 0.31250  0.32220  0.14800  Biso   1.000  C
  H73      1.0000 0.31240  0.37510  0.14520  Biso   1.000  H
  C75      1.0000 0.36130  0.28260  0.16840  Biso   1.000  C
  C76      1.0000 0.36120  0.20640  0.17400  Biso   1.000  C
  C77      1.0000 0.31340  0.16730  0.16090  Biso   1.000  C
  H74      1.0000 0.31420  0.11470  0.16760  Biso   1.000  H
  C78      1.0000 0.26490  0.20740  0.13790  Biso   1.000  C
  H75      1.0000 0.23160  0.18160  0.12610  Biso   1.000  H
  C79      1.0000 0.21200  0.32870  0.10410  Biso   1.000  C
  C80      1.0000 0.41250  0.15850  0.19750  Biso   1.000  C
  Dy11     1.0000 0.97718  0.60428  0.84119  Biso   1.000  Dy
  Dy12     1.0000 0.92189  0.73475  0.96341  Biso   1.000  Dy
  S11      1.0000 0.92013  0.83530  0.18080  Biso   1.000  S
  S12      1.0000 0.85844  0.83660  0.71350  Biso   1.000  S
  O86      1.0000 0.64900  0.91750  0.55800  Biso   1.000  O
  O87      1.0000 0.59310  0.81900  0.51980  Biso   1.000  O
  O88      1.0000 0.82890  0.60350  0.62480  Biso   1.000  O
  O89      1.0000 0.88380  0.66980  0.77620  Biso   1.000  O
  O90      1.0000 0.88530  0.83320  0.83670  Biso   1.000  O
  O91      1.0000 0.89250  0.80110  0.67200  Biso   1.000  O
  O92      1.0000 0.84340  0.91130  0.67760  Biso   1.000  O
  O93      1.0000 0.92790  0.61180  0.27280  Biso   1.000  O
  O94      1.0000 0.93540  0.66670  0.13650  Biso   1.000  O
  O95      1.0000 0.66810  0.79270  0.08240  Biso   1.000  O
  O96      1.0000 0.71490  0.89790  0.10560  Biso   1.000  O
  O97      1.0000 0.97120  0.80050  0.26660  Biso   1.000  O
  O98      1.0000 0.91100  0.91080  0.20340  Biso   1.000  O
  O99      1.0000 0.91640  0.82940  0.07050  Biso   1.000  O
  O100     1.0000 0.94810  0.60940  0.97590  Biso   1.000  O
  H76      1.0000 0.92300  0.57710  0.96540  Biso   1.000  H
  O101     1.0000 0.98550  0.72960  0.89420  Biso   1.000  O
  H77      1.0000 0.97920  0.76370  0.84720  Biso   1.000  H
  O102     1.0000 0.94960  0.57590  0.65660  Biso   1.000  O
  H78      1.0000 0.94370  0.61530  0.61860  Biso   1.000  H
  H79      1.0000 0.74000  0.53660  0.47700  Biso   1.000  H
  H80      1.0000 0.97180  0.60740  0.48660  Biso   1.000  H
  H81      1.0000 0.12530  0.53630  0.65280  Biso   1.000  H
  H82      1.0000 0.96480  0.96090  0.81520  Biso   1.000  H
  H83      1.0000 0.91050  0.96350  0.05540  Biso   1.000  H
  H84      1.0000 0.97120  0.88550  0.95640  Biso   1.000  H
  C81      1.0000 0.68800  0.72100  0.58680  Biso   1.000  C
  H85      1.0000 0.65220  0.69760  0.56140  Biso   1.000  H
  C82      1.0000 0.73610  0.67880  0.61830  Biso   1.000  C
  H86      1.0000 0.73240  0.62610  0.61300  Biso   1.000  H
  C83      1.0000 0.78930  0.70900  0.65680  Biso   1.000  C
  C84      1.0000 0.79390  0.78690  0.66510  Biso   1.000  C
  C85      1.0000 0.74510  0.83100  0.63420  Biso   1.000  C
  H87      1.0000 0.74850  0.88360  0.64180  Biso   1.000  H
  C86      1.0000 0.69220  0.79770  0.59260  Biso   1.000  C
  C87      1.0000 0.64030  0.84710  0.55370  Biso   1.000  C
  C88      1.0000 0.83810  0.65820  0.68850  Biso   1.000  C
  C89      1.0000 0.76410  0.78400  0.13190  Biso   1.000  C
  C90      1.0000 0.81250  0.82220  0.14800  Biso   1.000  C
  H88      1.0000 0.81240  0.87510  0.14520  Biso   1.000  H
  C91      1.0000 0.86130  0.78260  0.16840  Biso   1.000  C
  C92      1.0000 0.86120  0.70640  0.17400  Biso   1.000  C
  C93      1.0000 0.81340  0.66730  0.16090  Biso   1.000  C
  H89      1.0000 0.81420  0.61470  0.16760  Biso   1.000  H
  C94      1.0000 0.76490  0.70740  0.13790  Biso   1.000  C
  H90      1.0000 0.73160  0.68160  0.12610  Biso   1.000  H
  C95      1.0000 0.71200  0.82870  0.10410  Biso   1.000  C
  C96      1.0000 0.91250  0.65850  0.19750  Biso   1.000  C
  Dy13     1.0000 0.52282  0.10428  0.15881  Biso   1.000  Dy
  Dy14     1.0000 0.57811  0.23475  0.03659  Biso   1.000  Dy
  S13      1.0000 0.57987  0.33530  0.81920  Biso   1.000  S
  S14      1.0000 0.64156  0.33660  0.28650  Biso   1.000  S
  O103     1.0000 0.85100  0.41750  0.44200  Biso   1.000  O
  O104     1.0000 0.90690  0.31900  0.48020  Biso   1.000  O
  O105     1.0000 0.67110  0.10350  0.37520  Biso   1.000  O
  O106     1.0000 0.61620  0.16980  0.22380  Biso   1.000  O
  O107     1.0000 0.61470  0.33320  0.16330  Biso   1.000  O
  O108     1.0000 0.60750  0.30110  0.32800  Biso   1.000  O
  O109     1.0000 0.65660  0.41130  0.32240  Biso   1.000  O
  O110     1.0000 0.57210  0.11180  0.72720  Biso   1.000  O
  O111     1.0000 0.56460  0.16670  0.86350  Biso   1.000  O
  O112     1.0000 0.83190  0.29270  0.91760  Biso   1.000  O
  O113     1.0000 0.78510  0.39790  0.89440  Biso   1.000  O
  O114     1.0000 0.52880  0.30050  0.73340  Biso   1.000  O
  O115     1.0000 0.58900  0.41080  0.79660  Biso   1.000  O
  O116     1.0000 0.58360  0.32940  0.92950  Biso   1.000  O
  O117     1.0000 0.55190  0.10940  0.02410  Biso   1.000  O
  H91      1.0000 0.57700  0.07710  0.03460  Biso   1.000  H
  O118     1.0000 0.51450  0.22960  0.10580  Biso   1.000  O
  H92      1.0000 0.52080  0.26370  0.15280  Biso   1.000  H
  O119     1.0000 0.55040  0.07590  0.34340  Biso   1.000  O
  H93      1.0000 0.55630  0.11530  0.38140  Biso   1.000  H
  H94      1.0000 0.76000  0.03660  0.52300  Biso   1.000  H
  H95      1.0000 0.52820  0.10740  0.51340  Biso   1.000  H
  H96      1.0000 0.37470  0.03630  0.34720  Biso   1.000  H
  H97      1.0000 0.53520  0.46090  0.18480  Biso   1.000  H
  H98      1.0000 0.58950  0.46350  0.94460  Biso   1.000  H
  H99      1.0000 0.52880  0.38550  0.04360  Biso   1.000  H
  C97      1.0000 0.81200  0.22100  0.41320  Biso   1.000  C
  H100     1.0000 0.84780  0.19760  0.43860  Biso   1.000  H
  C98      1.0000 0.76390  0.17880  0.38170  Biso   1.000  C
  H101     1.0000 0.76760  0.12610  0.38700  Biso   1.000  H
  C99      1.0000 0.71070  0.20900  0.34320  Biso   1.000  C
  C100     1.0000 0.70610  0.28690  0.33490  Biso   1.000  C
  C101     1.0000 0.75490  0.33100  0.36580  Biso   1.000  C
  H102     1.0000 0.75150  0.38360  0.35820  Biso   1.000  H
  C102     1.0000 0.80780  0.29770  0.40740  Biso   1.000  C
  C103     1.0000 0.85970  0.34710  0.44630  Biso   1.000  C
  C104     1.0000 0.66190  0.15820  0.31150  Biso   1.000  C
  C105     1.0000 0.73590  0.28400  0.86810  Biso   1.000  C
  C106     1.0000 0.68750  0.32220  0.85200  Biso   1.000  C
  H103     1.0000 0.68760  0.37510  0.85480  Biso   1.000  H
  C107     1.0000 0.63870  0.28260  0.83160  Biso   1.000  C
  C108     1.0000 0.63880  0.20640  0.82600  Biso   1.000  C
  C109     1.0000 0.68660  0.16730  0.83910  Biso   1.000  C
  H104     1.0000 0.68580  0.11470  0.83240  Biso   1.000  H
  C110     1.0000 0.73510  0.20740  0.86210  Biso   1.000  C
  H105     1.0000 0.76840  0.18160  0.87390  Biso   1.000  H
  C111     1.0000 0.78800  0.32870  0.89590  Biso   1.000  C
  C112     1.0000 0.58750  0.15850  0.80250  Biso   1.000  C
  Dy15     1.0000 0.02282  0.60428  0.15881  Biso   1.000  Dy
  Dy16     1.0000 0.07811  0.73475  0.03659  Biso   1.000  Dy
  S15      1.0000 0.07987  0.83530  0.81920  Biso   1.000  S
  S16      1.0000 0.14156  0.83660  0.28650  Biso   1.000  S
  O120     1.0000 0.35100  0.91750  0.44200  Biso   1.000  O
  O121     1.0000 0.40690  0.81900  0.48020  Biso   1.000  O
  O122     1.0000 0.17110  0.60350  0.37520  Biso   1.000  O
  O123     1.0000 0.11620  0.66980  0.22380  Biso   1.000  O
  O124     1.0000 0.11470  0.83320  0.16330  Biso   1.000  O
  O125     1.0000 0.10750  0.80110  0.32800  Biso   1.000  O
  O126     1.0000 0.15660  0.91130  0.32240  Biso   1.000  O
  O127     1.0000 0.07210  0.61180  0.72720  Biso   1.000  O
  O128     1.0000 0.06460  0.66670  0.86350  Biso   1.000  O
  O129     1.0000 0.33190  0.79270  0.91760  Biso   1.000  O
  O130     1.0000 0.28510  0.89790  0.89440  Biso   1.000  O
  O131     1.0000 0.02880  0.80050  0.73340  Biso   1.000  O
  O132     1.0000 0.08900  0.91080  0.79660  Biso   1.000  O
  O133     1.0000 0.08360  0.82940  0.92950  Biso   1.000  O
  O134     1.0000 0.05190  0.60940  0.02410  Biso   1.000  O
  H106     1.0000 0.07700  0.57710  0.03460  Biso   1.000  H
  O135     1.0000 0.01450  0.72960  0.10580  Biso   1.000  O
  H107     1.0000 0.02080  0.76370  0.15280  Biso   1.000  H
  O136     1.0000 0.05040  0.57590  0.34340  Biso   1.000  O
  H108     1.0000 0.05630  0.61530  0.38140  Biso   1.000  H
  H109     1.0000 0.26000  0.53660  0.52300  Biso   1.000  H
  H110     1.0000 0.02820  0.60740  0.51340  Biso   1.000  H
  H111     1.0000 0.87470  0.53630  0.34720  Biso   1.000  H
  H112     1.0000 0.03520  0.96090  0.18480  Biso   1.000  H
  H113     1.0000 0.08950  0.96350  0.94460  Biso   1.000  H
  H114     1.0000 0.02880  0.88550  0.04360  Biso   1.000  H
  C113     1.0000 0.31200  0.72100  0.41320  Biso   1.000  C
  H115     1.0000 0.34780  0.69760  0.43860  Biso   1.000  H
  C114     1.0000 0.26390  0.67880  0.38170  Biso   1.000  C
  H116     1.0000 0.26760  0.62610  0.38700  Biso   1.000  H
  C115     1.0000 0.21070  0.70900  0.34320  Biso   1.000  C
  C116     1.0000 0.20610  0.78690  0.33490  Biso   1.000  C
  C117     1.0000 0.25490  0.83100  0.36580  Biso   1.000  C
  H117     1.0000 0.25150  0.88360  0.35820  Biso   1.000  H
  C118     1.0000 0.30780  0.79770  0.40740  Biso   1.000  C
  C119     1.0000 0.35970  0.84710  0.44630  Biso   1.000  C
  C120     1.0000 0.16190  0.65820  0.31150  Biso   1.000  C
  C121     1.0000 0.23590  0.78400  0.86810  Biso   1.000  C
  C122     1.0000 0.18750  0.82220  0.85200  Biso   1.000  C
  H118     1.0000 0.18760  0.87510  0.85480  Biso   1.000  H
  C123     1.0000 0.13870  0.78260  0.83160  Biso   1.000  C
  C124     1.0000 0.13880  0.70640  0.82600  Biso   1.000  C
  C125     1.0000 0.18660  0.66730  0.83910  Biso   1.000  C
  H119     1.0000 0.18580  0.61470  0.83240  Biso   1.000  H
  C126     1.0000 0.23510  0.70740  0.86210  Biso   1.000  C
  H120     1.0000 0.26840  0.68160  0.87390  Biso   1.000  H
  C127     1.0000 0.28800  0.82870  0.89590  Biso   1.000  C
  C128     1.0000 0.08750  0.65850  0.80250  Biso   1.000  C
  Dy17     1.0000 0.47743  0.00000  0.33995  Biso   1.000  Dy
  Dy18     1.0000 0.63278  0.00000  0.41307  Biso   1.000  Dy
  O137     1.0000 0.58250  0.00000  0.21130  Biso   1.000  O
  H121     1.0000 0.60380  0.00000  0.18200  Biso   1.000  H
  O138     1.0000 0.47000  0.00000  0.15850  Biso   1.000  O
  H122     1.0000 0.43630  0.00000  0.10460  Biso   1.000  H
  O139     1.0000 0.73910  0.00000  0.51900  Biso   1.000  O
  O140     1.0000 0.38220  0.00000  0.31710  Biso   1.000  O
  Dy19     1.0000 0.97743  0.50000  0.33995  Biso   1.000  Dy
  Dy20     1.0000 0.13278  0.50000  0.41307  Biso   1.000  Dy
  O141     1.0000 0.08250  0.50000  0.21130  Biso   1.000  O
  H123     1.0000 0.10380  0.50000  0.18200  Biso   1.000  H
  O142     1.0000 0.97000  0.50000  0.15850  Biso   1.000  O
  H124     1.0000 0.93630  0.50000  0.10460  Biso   1.000  H
  O143     1.0000 0.23910  0.50000  0.51900  Biso   1.000  O
  O144     1.0000 0.88220  0.50000  0.31710  Biso   1.000  O
  Dy21     1.0000 0.52257  0.00000  0.66005  Biso   1.000  Dy
  Dy22     1.0000 0.36722  0.00000  0.58693  Biso   1.000  Dy
  O145     1.0000 0.41750  0.00000  0.78870  Biso   1.000  O
  H125     1.0000 0.39620  0.00000  0.81800  Biso   1.000  H
  O146     1.0000 0.53000  0.00000  0.84150  Biso   1.000  O
  H126     1.0000 0.56370  0.00000  0.89540  Biso   1.000  H
  O147     1.0000 0.26090  0.00000  0.48100  Biso   1.000  O
  O148     1.0000 0.61780  0.00000  0.68290  Biso   1.000  O
  Dy23     1.0000 0.02257  0.50000  0.66005  Biso   1.000  Dy
  Dy24     1.0000 0.86722  0.50000  0.58693  Biso   1.000  Dy
  O149     1.0000 0.91750  0.50000  0.78870  Biso   1.000  O
  H127     1.0000 0.89620  0.50000  0.81800  Biso   1.000  H
  O150     1.0000 0.03000  0.50000  0.84150  Biso   1.000  O
  H128     1.0000 0.06370  0.50000  0.89540  Biso   1.000  H
  O151     1.0000 0.76090  0.50000  0.48100  Biso   1.000  O
  O152     1.0000 0.11780  0.50000  0.68290  Biso   1.000  O
  Na1      1.0000 0.62840  0.50000  0.17070  Biso   1.000  Na
  Na2      1.0000 0.86360  0.50000  0.94160  Biso   1.000  Na
  O153     1.0000 0.53500  0.50000  0.15010  Biso   1.000  O
  O154     1.0000 0.72140  0.50000  0.19450  Biso   1.000  O
  H129     1.0000 0.73450  0.50000  0.14990  Biso   1.000  H
  H130     1.0000 0.75170  0.50000  0.25640  Biso   1.000  H
  O155     1.0000 0.58960  0.50000  0.98370  Biso   1.000  O
  Na3      1.0000 0.12840  0.00000  0.17070  Biso   1.000  Na
  Na4      1.0000 0.36360  0.00000  0.94160  Biso   1.000  Na
  O156     1.0000 0.03500  0.00000  0.15010  Biso   1.000  O
  O157     1.0000 0.22140  0.00000  0.19450  Biso   1.000  O
  H131     1.0000 0.23450  0.00000  0.14990  Biso   1.000  H
  H132     1.0000 0.25170  0.00000  0.25640  Biso   1.000  H
  O158     1.0000 0.08960  0.00000  0.98370  Biso   1.000  O
  Na5      1.0000 0.37160  0.50000  0.82930  Biso   1.000  Na
  Na6      1.0000 0.13640  0.50000  0.05840  Biso   1.000  Na
  O159     1.0000 0.46500  0.50000  0.84990  Biso   1.000  O
  O160     1.0000 0.27860  0.50000  0.80550  Biso   1.000  O
  H133     1.0000 0.26550  0.50000  0.85010  Biso   1.000  H
  H134     1.0000 0.24830  0.50000  0.74360  Biso   1.000  H
  O161     1.0000 0.41040  0.50000  0.01630  Biso   1.000  O
  Na7      1.0000 0.87160  0.00000  0.82930  Biso   1.000  Na
  Na8      1.0000 0.63640  0.00000  0.05840  Biso   1.000  Na
  O162     1.0000 0.96500  0.00000  0.84990  Biso   1.000  O
  O163     1.0000 0.77860  0.00000  0.80550  Biso   1.000  O
  H135     1.0000 0.76550  0.00000  0.85010  Biso   1.000  H
  H136     1.0000 0.74830  0.00000  0.74360  Biso   1.000  H
  O164     1.0000 0.91040  0.00000  0.01630  Biso   1.000  O
  O165     1.0000 0.50000  0.92040  0.50000  Biso   1.000  O
  O166     1.0000 0.00000  0.42040  0.50000  Biso   1.000  O
  O167     1.0000 0.50000  0.07960  0.50000  Biso   1.000  O
  O168     1.0000 0.00000  0.57960  0.50000  Biso   1.000  O
  O169     1.0000 0.50000  0.63990  0.00000  Biso   1.000  O
  O170     1.0000 0.00000  0.13990  0.00000  Biso   1.000  O
  O171     1.0000 0.50000  0.36010  0.00000  Biso   1.000  O
  O172     1.0000 0.00000  0.86010  0.00000  Biso   1.000  O
