data_ic501849g_si_002_freeONLY
_audit_creation_date              2015-08-19
_audit_creation_method            'Materials Studio'
_symmetry_space_group_name_H-M    'P1'
_symmetry_Int_Tables_number       1
_symmetry_cell_setting            triclinic
loop_
_symmetry_equiv_pos_as_xyz
  x,y,z
_cell_length_a                    11.0749
_cell_length_b                    12.2094
_cell_length_c                    19.5074
_cell_angle_alpha                 92.4596
_cell_angle_beta                  90.0000
_cell_angle_gamma                 116.9710
loop_
_atom_site_label
_atom_site_type_symbol
_atom_site_fract_x
_atom_site_fract_y
_atom_site_fract_z
_atom_site_U_iso_or_equiv
_atom_site_adp_type
_atom_site_occupancy
Cu1    Cu    0.54585   0.03826   0.43765   0.01267  Uiso   1.00
Cu2    Cu    0.18698   0.24372   0.85030   0.01267  Uiso   1.00
Cu3    Cu    0.50759   0.96174   0.56235   0.01267  Uiso   1.00
Cu4    Cu    0.09681   0.39584   0.80516   0.01267  Uiso   1.00
Cu5    Cu    0.94326   0.75628   0.14970   0.01267  Uiso   1.00
Cu6    Cu    0.70097   0.60416   0.19484   0.01267  Uiso   1.00
H1     H     0.00850   0.17000   0.44620   0.01267  Uiso   1.00
H2     H     0.40580   0.72300   0.63110   0.01267  Uiso   1.00
H3     H     0.49920   0.28640   0.36250   0.01267  Uiso   1.00
H4     H     0.15630   0.42320   0.47870   0.01267  Uiso   1.00
H5     H     0.68490   0.75040   0.74250   0.01267  Uiso   1.00
H6     H     0.42860   0.74000   0.71040   0.01267  Uiso   1.00
H7     H     0.73310   0.57680   0.52130   0.01267  Uiso   1.00
H8     H     0.49850   0.52900   0.99280   0.01267  Uiso   1.00
H9     H     0.78010   0.94260   0.65020   0.01267  Uiso   1.00
H10    H     0.32460   0.07460   0.31430   0.01267  Uiso   1.00
H11    H     0.49290   0.72200   0.83170   0.01267  Uiso   1.00
H12    H     0.47300   0.93640   0.76380   0.01267  Uiso   1.00
H13    H     0.68280   0.27700   0.36890   0.01267  Uiso   1.00
H14    H     0.83750   0.05740   0.34980   0.01267  Uiso   1.00
H15    H     0.90250   0.28780   0.60090   0.01267  Uiso   1.00
H16    H     0.77090   0.27800   0.16830   0.01267  Uiso   1.00
H17    H     0.26410   0.94280   0.76610   0.01267  Uiso   1.00
H18    H     0.89830   0.96460   0.33410   0.01267  Uiso   1.00
H19    H     0.79910   0.77360   0.79800   0.01267  Uiso   1.00
H20    H     0.59660   0.37300   0.30840   0.01267  Uiso   1.00
H21    H     0.07400   0.23900   0.58590   0.01267  Uiso   1.00
H22    H     0.14570   0.81060   0.34750   0.01267  Uiso   1.00
H23    H     0.69290   0.95160   0.26260   0.01267  Uiso   1.00
H24    H     0.61470   0.71220   0.39910   0.01267  Uiso   1.00
H25    H     0.93370   0.03540   0.66590   0.01267  Uiso   1.00
H26    H     0.79020   0.87600   0.97440   0.01267  Uiso   1.00
H27    H     0.83850   0.83000   0.55380   0.01267  Uiso   1.00
H28    H     0.96640   0.89880   0.73050   0.01267  Uiso   1.00
H29    H     0.33510   0.18940   0.65250   0.01267  Uiso   1.00
H30    H     0.32130   0.05720   0.23390   0.01267  Uiso   1.00
H31    H     0.21280   0.71360   0.63750   0.01267  Uiso   1.00
H32    H     0.82620   0.48720   0.38150   0.01267  Uiso   1.00
H33    H     0.25000   0.92540   0.68570   0.01267  Uiso   1.00
H34    H     0.48140   0.03880   0.71510   0.01267  Uiso   1.00
H35    H     0.68860   0.26000   0.28960   0.01267  Uiso   1.00
H36    H     0.22360   0.62700   0.69160   0.01267  Uiso   1.00
H37    H     0.74130   0.04840   0.73740   0.01267  Uiso   1.00
H38    H     0.13890   0.62840   0.51680   0.01267  Uiso   1.00
H39    H     0.06760   0.10120   0.26950   0.01267  Uiso   1.00
H40    H     0.53660   0.06360   0.23620   0.01267  Uiso   1.00
H41    H     0.05670   0.19140   0.32680   0.01267  Uiso   1.00
H42    H     0.44260   0.96120   0.28490   0.01267  Uiso   1.00
H43    H     0.84450   0.88620   0.44520   0.01267  Uiso   1.00
H44    H     0.91590   0.76120   0.52000   0.01267  Uiso   1.00
H45    H     0.02550   0.22640   0.20200   0.01267  Uiso   1.00
H46    H     0.69180   0.64020   0.58290   0.01267  Uiso   1.00
H47    H     0.83500   0.76100   0.41410   0.01267  Uiso   1.00
H48    H     0.15470   0.23880   0.48000   0.01267  Uiso   1.00
H49    H     0.91420   0.12400   0.02560   0.01267  Uiso   1.00
H50    H     0.05160   0.35980   0.41710   0.01267  Uiso   1.00
H51    H     0.95830   0.11380   0.55480   0.01267  Uiso   1.00
H52    H     0.33900   0.51280   0.61850   0.01267  Uiso   1.00
H53    H     0.51050   0.37160   0.48320   0.01267  Uiso   1.00
H54    H     0.93450   0.24960   0.25750   0.01267  Uiso   1.00
H55    H     0.96950   0.47100   0.00720   0.01267  Uiso   1.00
H56    H     0.86530   0.80860   0.67320   0.01267  Uiso   1.00
C1     C     0.90250   0.19100   0.04240   0.01267  Uiso   1.00
C2     C     0.65240   0.70220   0.99440   0.01267  Uiso   1.00
C3     C     0.16110   0.73760   0.43720   0.01267  Uiso   1.00
C4     C     0.46370   0.36620   0.52350   0.01267  Uiso   1.00
C5     C     0.80330   0.86600   0.21880   0.01267  Uiso   1.00
C6     C     0.93490   0.39920   0.03120   0.01267  Uiso   1.00
C7     C     0.00820   0.13200   0.28960   0.01267  Uiso   1.00
C8     C     0.06430   0.23280   0.48030   0.01267  Uiso   1.00
C9     C     0.95830   0.18860   0.23670   0.01267  Uiso   1.00
C10    C     0.71470   0.92980   0.85650   0.01267  Uiso   1.00
C11    C     0.90410   0.25640   0.55400   0.01267  Uiso   1.00
C12    C     0.00440   0.20200   0.55010   0.01267  Uiso   1.00
C13    C     0.91160   0.54880   0.39470   0.01267  Uiso   1.00
C14    C     0.47510   0.60640   0.90790   0.01267  Uiso   1.00
C15    C     0.93730   0.13400   0.78120   0.01267  Uiso   1.00
C16    C     0.35790   0.25620   0.62520   0.01267  Uiso   1.00
C17    C     0.81110   0.02360   0.74910   0.01267  Uiso   1.00
C18    C     0.45260   0.15880   0.53870   0.01267  Uiso   1.00
C19    C     0.86870   0.39360   0.09210   0.01267  Uiso   1.00
C20    C     0.76970   0.81140   0.76330   0.01267  Uiso   1.00
C21    C     0.87620   0.86800   0.71040   0.01267  Uiso   1.00
C22    C     0.53570   0.60080   0.96880   0.01267  Uiso   1.00
C23    C     0.64770   0.74360   0.44600   0.01267  Uiso   1.00
C24    C     0.09750   0.63380   0.47650   0.01267  Uiso   1.00
C25    C     0.76260   0.15940   0.53160   0.01267  Uiso   1.00
C26    C     0.91250   0.65740   0.28780   0.01267  Uiso   1.00
C27    C     0.65290   0.81520   0.89630   0.01267  Uiso   1.00
C28    C     0.71710   0.69420   0.06090   0.01267  Uiso   1.00
C29    C     0.97690   0.64900   0.35430   0.01267  Uiso   1.00
C30    C     0.83150   0.76720   0.51970   0.01267  Uiso   1.00
C31    C     0.48690   0.04920   0.27860   0.01267  Uiso   1.00
C32    C     0.39040   0.76260   0.67200   0.01267  Uiso   1.00
C33    C     0.10170   0.74380   0.37480   0.01267  Uiso   1.00
C34    C     0.25510   0.34260   0.71220   0.01267  Uiso   1.00
C35    C     0.87930   0.02740   0.31500   0.01267  Uiso   1.00
C36    C     0.42350   0.26240   0.56280   0.01267  Uiso   1.00
C37    C     0.38010   0.09600   0.27380   0.01267  Uiso   1.00
C38    C     0.36280   0.45120   0.60530   0.01267  Uiso   1.00
C39    C     0.06910   0.35580   0.46540   0.01267  Uiso   1.00
C40    C     0.29380   0.84120   0.46130   0.01267  Uiso   1.00
C41    C     0.71150   0.80900   0.95760   0.01267  Uiso   1.00
C42    C     0.85050   0.49960   0.12170   0.01267  Uiso   1.00
C43    C     0.53410   0.71620   0.87200   0.01267  Uiso   1.00
C44    C     0.43390   0.46060   0.54450   0.01267  Uiso   1.00
C45    C     0.60320   0.84060   0.46840   0.01267  Uiso   1.00
C46    C     0.83770   0.18480   0.10370   0.01267  Uiso   1.00
C47    C     0.95020   0.29780   0.00560   0.01267  Uiso   1.00
C48    C     0.78490   0.07020   0.14350   0.01267  Uiso   1.00
C49    C     0.28410   0.90400   0.72620   0.01267  Uiso   1.00
C50    C     0.54390   0.28760   0.31960   0.01267  Uiso   1.00
C51    C     0.90340   0.43300   0.49990   0.01267  Uiso   1.00
C52    C     0.02290   0.30580   0.93910   0.01267  Uiso   1.00
C53    C     0.35090   0.50040   0.87830   0.01267  Uiso   1.00
C54    C     0.85190   0.97260   0.68500   0.01267  Uiso   1.00
C55    C     0.62780   0.23740   0.32800   0.01267  Uiso   1.00
C56    C     0.47040   0.56700   0.50010   0.01267  Uiso   1.00
C57    C     0.43770   0.95080   0.72140   0.01267  Uiso   1.00
C58    C     0.81790   0.28380   0.12800   0.01267  Uiso   1.00
C59    C     0.25630   0.71240   0.68040   0.01267  Uiso   1.00
C60    C     0.32790   0.35100   0.64570   0.01267  Uiso   1.00
C61    C     0.80240   0.79800   0.44990   0.01267  Uiso   1.00
C62    C     0.97330   0.53940   0.45550   0.01267  Uiso   1.00
C63    C     0.71330   0.64420   0.53460   0.01267  Uiso   1.00
C64    C     0.78750   0.97640   0.25090   0.01267  Uiso   1.00
N1     N     0.96110   0.35880   0.50750   0.01267  Uiso   1.00
N2     N     0.60230   0.64120   0.49250   0.01267  Uiso   1.00
N3     N     0.83678   0.08056   0.20720   0.01267  Uiso   1.00
N4     N     0.75622   0.91944   0.79280   0.01267  Uiso   1.00
O1     O     0.84300   0.76320   0.06787   0.01267  Uiso   1.00
O2     O     0.01496   0.52252   0.77990   0.01267  Uiso   1.00
O3     O     0.21930   0.77280   0.73150   0.01267  Uiso   1.00
O4     O     0.29440   0.14320   0.87500   0.01267  Uiso   1.00
O5     O     0.49244   0.47748   0.22010   0.01267  Uiso   1.00
O6     O     0.02088   0.37796   0.89700   0.01267  Uiso   1.00
O7     O     0.33480   0.39560   0.89060   0.01267  Uiso   1.00
O8     O     0.38366   0.58372   0.46960   0.01267  Uiso   1.00
O9     O     0.73089   0.14738   0.46864   0.01267  Uiso   1.00
O10    O     0.44650   0.22720   0.26850   0.01267  Uiso   1.00
O11    O     0.64292   0.62204   0.10300   0.01267  Uiso   1.00
O12    O     0.58351   0.85262   0.53136   0.01267  Uiso   1.00
O13    O     0.27241   0.52482   0.84284   0.01267  Uiso   1.00
O14    O     0.27010   0.27820   0.75717   0.01267  Uiso   1.00
O15    O     0.57674   0.11028   0.33382   0.01267  Uiso   1.00
O16    O     0.35728   0.91936   0.41810   0.01267  Uiso   1.00
O17    O     0.91391   0.89042   0.19065   0.01267  Uiso   1.00
O18    O     0.78545   0.59830   0.28185   0.01267  Uiso   1.00
O19    O     0.18715   0.40170   0.71815   0.01267  Uiso   1.00
O20    O     0.33192   0.84064   0.52159   0.01267  Uiso   1.00
O21    O     0.79994   0.41628   0.53040   0.01267  Uiso   1.00
O22    O     0.46646   0.88972   0.66618   0.01267  Uiso   1.00
O23    O     0.74759   0.47518   0.15716   0.01267  Uiso   1.00
O24    O     0.70652   0.76184   0.22733   0.01267  Uiso   1.00
O25    O     0.49128   0.15936   0.47841   0.01267  Uiso   1.00
O26    O     0.72713   0.02786   0.88080   0.01267  Uiso   1.00
O27    O     0.93920   0.60440   0.10940   0.01267  Uiso   1.00
O28    O     0.59425   0.90290   0.42163   0.01267  Uiso   1.00
O29    O     0.43792   0.08064   0.58190   0.01267  Uiso   1.00
O30    O     0.69135   0.09710   0.57837   0.01267  Uiso   1.00
O31    O     0.15120   0.85680   0.12500   0.01267  Uiso   1.00
O32    O     0.69927   0.97214   0.11920   0.01267  Uiso   1.00
O33    O     0.07980   0.23680   0.93213   0.01267  Uiso   1.00
O34    O     0.02349   0.10958   0.80935   0.01267  Uiso   1.00
O35    O     0.94468   0.23816   0.77267   0.01267  Uiso   1.00
O36    O     0.99190   0.72180   0.24283   0.01267  Uiso   1.00
