data_ic5011133_si_002_freeONLY
_audit_creation_date              2015-08-19
_audit_creation_method            'Materials Studio'
_symmetry_space_group_name_H-M    'P1'
_symmetry_Int_Tables_number       1
_symmetry_cell_setting            triclinic
loop_
_symmetry_equiv_pos_as_xyz
  x,y,z
_cell_length_a                    11.2534
_cell_length_b                    16.2117
_cell_length_c                    33.3116
_cell_angle_alpha                 90.0000
_cell_angle_beta                  96.7974
_cell_angle_gamma                 90.0000
loop_
_atom_site_label
_atom_site_type_symbol
_atom_site_fract_x
_atom_site_fract_y
_atom_site_fract_z
_atom_site_U_iso_or_equiv
_atom_site_adp_type
_atom_site_occupancy
Co1    Co    0.16520   0.56590   0.14658   0.01267  Uiso   1.00
Co2    Co    0.07724   0.54075   0.46406   0.01267  Uiso   1.00
Co3    Co    0.57724   0.95925   0.96406   0.01267  Uiso   1.00
Co4    Co    0.87837   0.49286   0.11403   0.01267  Uiso   1.00
Co5    Co    0.04791   0.42050   0.19503   0.01267  Uiso   1.00
Co6    Co    0.62163   0.99286   0.38597   0.01267  Uiso   1.00
Co7    Co    0.12163   0.50714   0.88597   0.01267  Uiso   1.00
Co8    Co    0.42276   0.04075   0.03594   0.01267  Uiso   1.00
Co9    Co    0.54791   0.07950   0.69503   0.01267  Uiso   1.00
Co10   Co    0.95209   0.57950   0.80497   0.01267  Uiso   1.00
Co11   Co    0.66520   0.93410   0.64658   0.01267  Uiso   1.00
Co12   Co    0.45209   0.92050   0.30497   0.01267  Uiso   1.00
Co13   Co    0.92276   0.45925   0.53594   0.01267  Uiso   1.00
Co14   Co    0.33480   0.06590   0.35342   0.01267  Uiso   1.00
Co15   Co    0.37837   0.00714   0.61403   0.01267  Uiso   1.00
Co16   Co    0.83480   0.43410   0.85342   0.01267  Uiso   1.00
H1     H     0.74400   0.33050   0.24240   0.01267  Uiso   1.00
H2     H     0.26040   0.68240   0.38080   0.01267  Uiso   1.00
H3     H     0.83950   0.70760   0.56910   0.01267  Uiso   1.00
H4     H     0.44230   0.03210   0.19460   0.01267  Uiso   1.00
H5     H     0.82600   0.72860   0.44830   0.01267  Uiso   1.00
H6     H     0.73960   0.31760   0.61920   0.01267  Uiso   1.00
H7     H     0.33950   0.79240   0.06910   0.01267  Uiso   1.00
H8     H     0.80640   0.40980   0.98740   0.01267  Uiso   1.00
H9     H     0.43040   0.55290   0.53810   0.01267  Uiso   1.00
H10    H     0.09780   0.78730   0.11790   0.01267  Uiso   1.00
H11    H     0.56960   0.44710   0.46190   0.01267  Uiso   1.00
H12    H     0.27980   0.69550   0.26180   0.01267  Uiso   1.00
H13    H     0.67400   0.22860   0.05170   0.01267  Uiso   1.00
H14    H     0.94230   0.46790   0.69460   0.01267  Uiso   1.00
H15    H     0.19360   0.59020   0.01260   0.01267  Uiso   1.00
H16    H     0.93040   0.94710   0.03810   0.01267  Uiso   1.00
H17    H     0.66050   0.20760   0.93090   0.01267  Uiso   1.00
H18    H     0.17400   0.27140   0.55170   0.01267  Uiso   1.00
H19    H     0.05770   0.53210   0.30540   0.01267  Uiso   1.00
H20    H     0.72020   0.30450   0.73820   0.01267  Uiso   1.00
H21    H     0.32600   0.77140   0.94830   0.01267  Uiso   1.00
H22    H     0.77920   0.72860   0.05760   0.01267  Uiso   1.00
H23    H     0.24400   0.16950   0.74240   0.01267  Uiso   1.00
H24    H     0.38730   0.34090   0.24170   0.01267  Uiso   1.00
H25    H     0.95340   0.97770   0.33650   0.01267  Uiso   1.00
H26    H     0.69360   0.90980   0.51260   0.01267  Uiso   1.00
H27    H     0.61270   0.65910   0.75830   0.01267  Uiso   1.00
H28    H     0.16050   0.29240   0.43090   0.01267  Uiso   1.00
H29    H     0.11270   0.84090   0.25830   0.01267  Uiso   1.00
H30    H     0.55770   0.96790   0.80540   0.01267  Uiso   1.00
H31    H     0.22080   0.27140   0.94240   0.01267  Uiso   1.00
H32    H     0.22020   0.19550   0.23820   0.01267  Uiso   1.00
H33    H     0.75600   0.83050   0.25760   0.01267  Uiso   1.00
H34    H     0.23960   0.18240   0.11920   0.01267  Uiso   1.00
H35    H     0.77980   0.80450   0.76180   0.01267  Uiso   1.00
H36    H     0.88730   0.15910   0.74170   0.01267  Uiso   1.00
H37    H     0.90220   0.21270   0.88210   0.01267  Uiso   1.00
H38    H     0.54660   0.47770   0.16350   0.01267  Uiso   1.00
H39    H     0.25600   0.66950   0.75760   0.01267  Uiso   1.00
H40    H     0.45340   0.52230   0.83650   0.01267  Uiso   1.00
H41    H     0.30640   0.09020   0.48740   0.01267  Uiso   1.00
H42    H     0.40220   0.28730   0.38210   0.01267  Uiso   1.00
H43    H     0.72080   0.22860   0.44240   0.01267  Uiso   1.00
H44    H     0.76040   0.81760   0.88080   0.01267  Uiso   1.00
H45    H     0.59780   0.71270   0.61790   0.01267  Uiso   1.00
H46    H     0.27920   0.77140   0.55760   0.01267  Uiso   1.00
H47    H     0.06960   0.05290   0.96190   0.01267  Uiso   1.00
H48    H     0.04660   0.02230   0.66350   0.01267  Uiso   1.00
C1     C     0.07699   0.23330   0.78209   0.01267  Uiso   1.00
C2     C     0.40212   0.06600   0.11622   0.01267  Uiso   1.00
C3     C     0.90391   0.62380   0.50591   0.01267  Uiso   1.00
C4     C     0.76933   0.35870   0.98843   0.01267  Uiso   1.00
C5     C     0.84185   0.76580   0.06325   0.01267  Uiso   1.00
C6     C     0.93379   0.82680   0.25209   0.01267  Uiso   1.00
C7     C     0.73067   0.85870   0.51157   0.01267  Uiso   1.00
C8     C     0.33642   0.59180   0.79962   0.01267  Uiso   1.00
C9     C     0.13734   0.27530   0.16954   0.01267  Uiso   1.00
C10    C     0.28866   0.12840   0.56446   0.01267  Uiso   1.00
C11    C     0.74757   0.82820   0.78347   0.01267  Uiso   1.00
C12    C     0.83642   0.90820   0.29962   0.01267  Uiso   1.00
C13    C     0.06621   0.17320   0.74791   0.01267  Uiso   1.00
C14    C     0.63734   0.22470   0.66954   0.01267  Uiso   1.00
C15    C     0.76484   0.81470   0.54714   0.01267  Uiso   1.00
C16    C     0.09788   0.56600   0.38378   0.01267  Uiso   1.00
C17    C     0.83473   0.39320   0.72323   0.01267  Uiso   1.00
C18    C     0.34185   0.73420   0.56325   0.01267  Uiso   1.00
C19    C     0.36266   0.77530   0.33046   0.01267  Uiso   1.00
C20    C     0.23067   0.64130   0.01157   0.01267  Uiso   1.00
C21    C     0.06745   0.10360   0.94875   0.01267  Uiso   1.00
C22    C     0.26933   0.14130   0.48843   0.01267  Uiso   1.00
C23    C     0.34351   0.79380   0.00841   0.01267  Uiso   1.00
C24    C     0.63774   0.56880   0.58714   0.01267  Uiso   1.00
C25    C     0.96914   0.12480   0.92124   0.01267  Uiso   1.00
C26    C     0.42301   0.73330   0.71791   0.01267  Uiso   1.00
C27    C     0.55703   0.16220   0.38933   0.01267  Uiso   1.00
C28    C     0.25243   0.17180   0.21653   0.01267  Uiso   1.00
C29    C     0.78866   0.37160   0.06446   0.01267  Uiso   1.00
C30    C     0.86266   0.72470   0.83046   0.01267  Uiso   1.00
C31    C     0.23541   0.66460   0.35461   0.01267  Uiso   1.00
C32    C     0.21134   0.62840   0.93554   0.01267  Uiso   1.00
C33    C     0.05703   0.33780   0.88933   0.01267  Uiso   1.00
C34    C     0.63327   0.92720   0.73507   0.01267  Uiso   1.00
C35    C     0.46695   0.30060   0.40095   0.01267  Uiso   1.00
C36    C     0.22953   0.63830   0.51393   0.01267  Uiso   1.00
C37    C     0.73541   0.83540   0.85461   0.01267  Uiso   1.00
C38    C     0.23765   0.64750   0.08655   0.01267  Uiso   1.00
C39    C     0.66201   0.34160   0.45641   0.01267  Uiso   1.00
C40    C     0.24756   0.17430   0.52526   0.01267  Uiso   1.00
C41    C     0.78135   0.79890   0.82265   0.01267  Uiso   1.00
C42    C     0.74756   0.32570   0.02526   0.01267  Uiso   1.00
C43    C     0.43379   0.67320   0.75209   0.01267  Uiso   1.00
C44    C     0.55179   0.43980   0.18459   0.01267  Uiso   1.00
C45    C     0.32653   0.44890   0.18493   0.01267  Uiso   1.00
C46    C     0.65815   0.26580   0.43675   0.01267  Uiso   1.00
C47    C     0.18997   0.25020   0.52697   0.01267  Uiso   1.00
C48    C     0.09609   0.37620   0.49409   0.01267  Uiso   1.00
C49    C     0.11546   0.57320   0.30956   0.01267  Uiso   1.00
C50    C     0.71865   0.29890   0.67735   0.01267  Uiso   1.00
C51    C     0.44821   0.56020   0.81541   0.01267  Uiso   1.00
C52    C     0.72390   0.93350   0.31670   0.01267  Uiso   1.00
C53    C     0.88454   0.42680   0.69044   0.01267  Uiso   1.00
C54    C     0.96695   0.19940   0.90095   0.01267  Uiso   1.00
C55    C     0.27047   0.13830   0.98607   0.01267  Uiso   1.00
C56    C     0.73516   0.31470   0.95286   0.01267  Uiso   1.00
C57    C     0.26235   0.14750   0.41345   0.01267  Uiso   1.00
C58    C     0.54341   0.64170   0.76851   0.01267  Uiso   1.00
C59    C     0.94297   0.66220   0.11067   0.01267  Uiso   1.00
C60    C     0.61546   0.92680   0.80956   0.01267  Uiso   1.00
C61    C     0.92301   0.76670   0.21791   0.01267  Uiso   1.00
C62    C     0.16201   0.15840   0.95641   0.01267  Uiso   1.00
C63    C     0.15815   0.23420   0.93675   0.01267  Uiso   1.00
C64    C     0.84774   0.39870   0.65164   0.01267  Uiso   1.00
C65    C     0.16527   0.60680   0.27677   0.01267  Uiso   1.00
C66    C     0.86673   0.42720   0.76493   0.01267  Uiso   1.00
C67    C     0.65226   0.89870   0.84836   0.01267  Uiso   1.00
C68    C     0.17347   0.94890   0.31507   0.01267  Uiso   1.00
C69    C     0.36673   0.07280   0.26493   0.01267  Uiso   1.00
C70    C     0.95659   0.14170   0.73149   0.01267  Uiso   1.00
C71    C     0.26459   0.16460   0.14539   0.01267  Uiso   1.00
C72    C     0.56745   0.39640   0.44875   0.01267  Uiso   1.00
C73    C     0.76459   0.33540   0.64539   0.01267  Uiso   1.00
C74    C     0.55207   0.58550   0.79947   0.01267  Uiso   1.00
C75    C     0.86226   0.06880   0.91286   0.01267  Uiso   1.00
C76    C     0.53086   0.62480   0.57876   0.01267  Uiso   1.00
C77    C     0.68065   0.23780   0.95445   0.01267  Uiso   1.00
C78    C     0.83799   0.84160   0.04359   0.01267  Uiso   1.00
C79    C     0.04341   0.85830   0.26851   0.01267  Uiso   1.00
C80    C     0.77047   0.36170   0.48607   0.01267  Uiso   1.00
C81    C     0.44793   0.41450   0.20053   0.01267  Uiso   1.00
C82    C     0.34774   0.10130   0.15164   0.01267  Uiso   1.00
C83    C     0.90212   0.43400   0.61622   0.01267  Uiso   1.00
C84    C     0.73765   0.85250   0.58655   0.01267  Uiso   1.00
C85    C     0.82985   0.85190   0.26815   0.01267  Uiso   1.00
C86    C     0.68997   0.24980   0.02697   0.01267  Uiso   1.00
C87    C     0.40391   0.87620   0.00591   0.01267  Uiso   1.00
C88    C     0.77610   0.43350   0.18330   0.01267  Uiso   1.00
C89    C     0.81003   0.74980   0.47303   0.01267  Uiso   1.00
C90    C     0.32985   0.64810   0.76815   0.01267  Uiso   1.00
C91    C     0.05179   0.06020   0.68459   0.01267  Uiso   1.00
C92    C     0.71134   0.87160   0.43554   0.01267  Uiso   1.00
C93    C     0.28135   0.70110   0.32265   0.01267  Uiso   1.00
C94    C     0.06159   0.25470   0.90879   0.01267  Uiso   1.00
C95    C     0.75244   0.82570   0.47474   0.01267  Uiso   1.00
C96    C     0.84351   0.70620   0.50841   0.01267  Uiso   1.00
C97    C     0.75243   0.32820   0.71653   0.01267  Uiso   1.00
C98    C     0.46914   0.37520   0.42124   0.01267  Uiso   1.00
C99    C     0.43255   0.60360   0.55125   0.01267  Uiso   1.00
C100   C     0.56159   0.24530   0.40879   0.01267  Uiso   1.00
C101   C     0.94793   0.08550   0.70053   0.01267  Uiso   1.00
C102   C     0.05207   0.91450   0.29947   0.01267  Uiso   1.00
C103   C     0.15226   0.60130   0.34836   0.01267  Uiso   1.00
C104   C     0.23516   0.18530   0.45286   0.01267  Uiso   1.00
C105   C     0.67015   0.35190   0.23185   0.01267  Uiso   1.00
C106   C     0.31003   0.75020   0.97303   0.01267  Uiso   1.00
C107   C     0.66527   0.89320   0.77677   0.01267  Uiso   1.00
C108   C     0.94821   0.93980   0.31541   0.01267  Uiso   1.00
C109   C     0.59788   0.93400   0.88378   0.01267  Uiso   1.00
C110   C     0.16358   0.09180   0.70038   0.01267  Uiso   1.00
C111   C     0.15649   0.29380   0.49159   0.01267  Uiso   1.00
C112   C     0.13327   0.57280   0.23507   0.01267  Uiso   1.00
C113   C     0.59609   0.12380   0.99409   0.01267  Uiso   1.00
C114   C     0.03086   0.87520   0.07876   0.01267  Uiso   1.00
C115   C     0.21865   0.20110   0.17735   0.01267  Uiso   1.00
C116   C     0.56621   0.32680   0.24791   0.01267  Uiso   1.00
C117   C     0.27610   0.06650   0.68330   0.01267  Uiso   1.00
C118   C     0.24757   0.67180   0.28347   0.01267  Uiso   1.00
C119   C     0.18065   0.26220   0.45445   0.01267  Uiso   1.00
C120   C     0.33799   0.65840   0.54359   0.01267  Uiso   1.00
C121   C     0.57699   0.26670   0.28209   0.01267  Uiso   1.00
C122   C     0.81935   0.73780   0.54555   0.01267  Uiso   1.00
C123   C     0.93841   0.74530   0.09121   0.01267  Uiso   1.00
C124   C     0.38454   0.07320   0.19044   0.01267  Uiso   1.00
C125   C     0.17015   0.14810   0.73185   0.01267  Uiso   1.00
C126   C     0.65649   0.20620   0.99159   0.01267  Uiso   1.00
C127   C     0.93255   0.89640   0.05125   0.01267  Uiso   1.00
C128   C     0.43841   0.75470   0.59121   0.01267  Uiso   1.00
C129   C     0.53305   0.69940   0.59905   0.01267  Uiso   1.00
C130   C     0.03305   0.80060   0.09905   0.01267  Uiso   1.00
C131   C     0.13774   0.93120   0.08714   0.01267  Uiso   1.00
C132   C     0.31935   0.76220   0.04555   0.01267  Uiso   1.00
C133   C     0.66358   0.40820   0.20038   0.01267  Uiso   1.00
C134   C     0.82653   0.05110   0.68493   0.01267  Uiso   1.00
C135   C     0.26484   0.68530   0.04714   0.01267  Uiso   1.00
C136   C     0.22390   0.56650   0.81670   0.01267  Uiso   1.00
C137   C     0.76235   0.35250   0.91345   0.01267  Uiso   1.00
C138   C     0.25244   0.67430   0.97474   0.01267  Uiso   1.00
C139   C     0.67347   0.55110   0.81507   0.01267  Uiso   1.00
C140   C     0.72953   0.86170   0.01393   0.01267  Uiso   1.00
C141   C     0.45659   0.35830   0.23149   0.01267  Uiso   1.00
C142   C     0.33473   0.10680   0.22323   0.01267  Uiso   1.00
C143   C     0.36226   0.43120   0.41286   0.01267  Uiso   1.00
C144   C     0.44297   0.83780   0.61067   0.01267  Uiso   1.00
O1     O     0.12792   0.39080   0.90532   0.01267  Uiso   1.00
O2     O     0.82066   0.00000   0.65576   0.01267  Uiso   1.00
O3     O     0.77655   0.08610   0.88925   0.01267  Uiso   1.00
O4     O     0.74172   0.07470   0.70272   0.01267  Uiso   1.00
O5     O     0.84215   0.42090   0.58125   0.01267  Uiso   1.00
O6     O     0.87059   0.40150   0.19969   0.01267  Uiso   1.00
O7     O     0.62792   0.10920   0.40532   0.01267  Uiso   1.00
O8     O     0.07760   0.41840   0.46220   0.01267  Uiso   1.00
O9     O     0.67672   0.91800   0.58512   0.01267  Uiso   1.00
O10    O     0.87208   0.60920   0.09468   0.01267  Uiso   1.00
O11    O     0.72459   0.31920   0.88029   0.01267  Uiso   1.00
O12    O     0.06932   0.39800   0.52812   0.01267  Uiso   1.00
O13    O     0.17934   0.00000   0.34424   0.01267  Uiso   1.00
O14    O     0.91729   0.70060   0.80099   0.01267  Uiso   1.00
O15    O     0.42240   0.91840   0.03780   0.01267  Uiso   1.00
O16    O     0.58271   0.20060   0.69901   0.01267  Uiso   1.00
O17    O     0.87038   0.99970   0.93408   0.01267  Uiso   1.00
O18    O     0.37105   0.80660   0.36435   0.01267  Uiso   1.00
O19    O     0.17672   0.58200   0.08512   0.01267  Uiso   1.00
O20    O     0.83190   0.73420   0.20470   0.01267  Uiso   1.00
O21    O     0.29332   0.06160   0.99112   0.01267  Uiso   1.00
O22    O     0.47463   0.25340   0.29593   0.01267  Uiso   1.00
O23    O     0.76574   0.48370   0.15474   0.01267  Uiso   1.00
O24    O     0.44536   0.01560   0.26756   0.01267  Uiso   1.00
O25    O     0.55464   0.98440   0.73244   0.01267  Uiso   1.00
O26    O     0.70668   0.93840   0.00888   0.01267  Uiso   1.00
O27    O     0.43068   0.89800   0.97188   0.01267  Uiso   1.00
O28    O     0.23426   0.51630   0.84526   0.01267  Uiso   1.00
O29    O     0.08271   0.29940   0.19901   0.01267  Uiso   1.00
O30    O     0.01710   0.64980   0.14160   0.01267  Uiso   1.00
O31    O     0.77541   0.81920   0.61971   0.01267  Uiso   1.00
O32    O     0.20879   0.66410   0.90289   0.01267  Uiso   1.00
O33    O     0.92240   0.58160   0.53780   0.01267  Uiso   1.00
O34    O     0.26574   0.01630   0.65474   0.01267  Uiso   1.00
O35    O     0.97463   0.24660   0.79593   0.01267  Uiso   1.00
O36    O     0.32968   0.19500   0.00358   0.01267  Uiso   1.00
O37    O     0.25828   0.92530   0.29728   0.01267  Uiso   1.00
O38    O     0.37059   0.09850   0.69969   0.01267  Uiso   1.00
O39    O     0.93068   0.60200   0.47188   0.01267  Uiso   1.00
O40    O     0.66810   0.23420   0.29530   0.01267  Uiso   1.00
O41    O     0.04468   0.46858   0.13788   0.01267  Uiso   1.00
O42    O     0.94536   0.48440   0.76756   0.01267  Uiso   1.00
O43    O     0.48290   0.14980   0.35840   0.01267  Uiso   1.00
O44    O     0.51710   0.85020   0.64160   0.01267  Uiso   1.00
O45    O     0.79332   0.43840   0.49112   0.01267  Uiso   1.00
O46    O     0.67032   0.80500   0.99642   0.01267  Uiso   1.00
O47    O     0.82328   0.41800   0.91488   0.01267  Uiso   1.00
O48    O     0.27655   0.41390   0.38925   0.01267  Uiso   1.00
O49    O     0.70879   0.83590   0.40289   0.01267  Uiso   1.00
O50    O     0.31619   0.10080   0.29339   0.01267  Uiso   1.00
O51    O     0.54468   0.03142   0.63788   0.01267  Uiso   1.00
O52    O     0.22345   0.91390   0.11075   0.01267  Uiso   1.00
O53    O     0.34215   0.07910   0.08125   0.01267  Uiso   1.00
O54    O     0.12895   0.30660   0.13565   0.01267  Uiso   1.00
O55    O     0.37208   0.89080   0.59468   0.01267  Uiso   1.00
O56    O     0.17707   0.55540   0.93877   0.01267  Uiso   1.00
O57    O     0.24172   0.42530   0.20272   0.01267  Uiso   1.00
O58    O     0.15785   0.57910   0.41875   0.01267  Uiso   1.00
O59    O     0.02537   0.75340   0.20407   0.01267  Uiso   1.00
O60    O     0.62895   0.19340   0.63565   0.01267  Uiso   1.00
O61    O     0.17032   0.69500   0.49642   0.01267  Uiso   1.00
O62    O     0.41729   0.79940   0.30099   0.01267  Uiso   1.00
O63    O     0.95532   0.53142   0.86212   0.01267  Uiso   1.00
O64    O     0.18381   0.60080   0.20661   0.01267  Uiso   1.00
O65    O     0.45532   0.96858   0.36212   0.01267  Uiso   1.00
O66    O     0.56932   0.10200   0.02812   0.01267  Uiso   1.00
O67    O     0.05464   0.51560   0.23244   0.01267  Uiso   1.00
O68    O     0.32066   0.50000   0.15576   0.01267  Uiso   1.00
O69    O     0.16810   0.26580   0.79530   0.01267  Uiso   1.00
O70    O     0.79121   0.33590   0.09711   0.01267  Uiso   1.00
O71    O     0.82293   0.44460   0.06123   0.01267  Uiso   1.00
O72    O     0.98290   0.35020   0.85840   0.01267  Uiso   1.00
O73    O     0.50216   0.97140   0.87926   0.01267  Uiso   1.00
O74    O     0.32293   0.05540   0.56123   0.01267  Uiso   1.00
O75    O     0.12941   0.59850   0.80031   0.01267  Uiso   1.00
O76    O     0.82968   0.30500   0.50358   0.01267  Uiso   1.00
O77    O     0.81619   0.39920   0.79339   0.01267  Uiso   1.00
O78    O     0.52537   0.74660   0.70407   0.01267  Uiso   1.00
O79    O     0.27541   0.68080   0.11971   0.01267  Uiso   1.00
O80    O     0.29121   0.16410   0.59711   0.01267  Uiso   1.00
O81    O     0.72345   0.58610   0.61075   0.01267  Uiso   1.00
O82    O     0.73426   0.98370   0.34526   0.01267  Uiso   1.00
O83    O     0.37038   0.50030   0.43408   0.01267  Uiso   1.00
O84    O     0.75828   0.57470   0.79728   0.01267  Uiso   1.00
O85    O     0.00216   0.52860   0.37926   0.01267  Uiso   1.00
O86    O     0.87105   0.69340   0.86435   0.01267  Uiso   1.00
O87    O     0.68381   0.89920   0.70661   0.01267  Uiso   1.00
O88    O     0.12962   0.00030   0.06592   0.01267  Uiso   1.00
O89    O     0.20668   0.56160   0.50888   0.01267  Uiso   1.00
O90    O     0.22459   0.18080   0.38029   0.01267  Uiso   1.00
O91    O     0.32328   0.08200   0.41488   0.01267  Uiso   1.00
O92    O     0.57760   0.08160   0.96220   0.01267  Uiso   1.00
O93    O     0.62941   0.90150   0.30031   0.01267  Uiso   1.00
O94    O     0.65785   0.92090   0.91875   0.01267  Uiso   1.00
O95    O     0.49784   0.02860   0.12074   0.01267  Uiso   1.00
O96    O     0.99784   0.47140   0.62074   0.01267  Uiso   1.00
O97    O     0.67707   0.94460   0.43877   0.01267  Uiso   1.00
O98    O     0.33190   0.76580   0.70470   0.01267  Uiso   1.00
O99    O     0.62962   0.49970   0.56592   0.01267  Uiso   1.00
O100   O     0.67934   0.50000   0.84424   0.01267  Uiso   1.00
