data_ic501898x_si_004_freeONLY
_audit_creation_date              2015-08-19
_audit_creation_method            'Materials Studio'
_symmetry_space_group_name_H-M    'P1'
_symmetry_Int_Tables_number       1
_symmetry_cell_setting            triclinic
loop_
_symmetry_equiv_pos_as_xyz
  x,y,z
_cell_length_a                    10.5434
_cell_length_b                    20.7244
_cell_length_c                    20.7244
_cell_angle_alpha                 86.2900
_cell_angle_beta                  75.2636
_cell_angle_gamma                 75.2635
loop_
_atom_site_label
_atom_site_type_symbol
_atom_site_fract_x
_atom_site_fract_y
_atom_site_fract_z
_atom_site_U_iso_or_equiv
_atom_site_adp_type
_atom_site_occupancy
Co1    Co    0.03389   0.68985   0.22555   0.01267  Uiso   1.00
Co2    Co    0.74056   0.22555   0.81015   0.01267  Uiso   1.00
Co3    Co    0.27626   0.27445   0.68985   0.01267  Uiso   1.00
Co4    Co    0.44929   0.81015   0.27445   0.01267  Uiso   1.00
Co5    Co    0.25944   0.77445   0.18985   0.01267  Uiso   1.00
Co6    Co    0.55071   0.18985   0.72555   0.01267  Uiso   1.00
Co7    Co    0.96611   0.31015   0.77445   0.01267  Uiso   1.00
Co8    Co    0.72374   0.72555   0.31015   0.01267  Uiso   1.00
H1     H     0.00460   0.91850   0.20470   0.01267  Uiso   1.00
H2     H     0.38130   0.13190   0.87190   0.01267  Uiso   1.00
H3     H     0.42610   0.00200   0.20220   0.01267  Uiso   1.00
H4     H     0.74680   0.87190   0.36810   0.01267  Uiso   1.00
H5     H     0.99540   0.08150   0.79530   0.01267  Uiso   1.00
H6     H     0.92310   0.70470   0.08150   0.01267  Uiso   1.00
H7     H     0.43790   0.16840   0.38900   0.01267  Uiso   1.00
H8     H     0.25320   0.12810   0.63190   0.01267  Uiso   1.00
H9     H     0.51360   0.51640   0.11280   0.01267  Uiso   1.00
H10    H     0.56210   0.83160   0.61100   0.01267  Uiso   1.00
H11    H     0.09860   0.97010   0.77670   0.01267  Uiso   1.00
H12    H     0.87530   0.22330   0.47010   0.01267  Uiso   1.00
H13    H     0.50470   0.66840   0.88900   0.01267  Uiso   1.00
H14    H     0.51320   0.37190   0.86810   0.01267  Uiso   1.00
H15    H     0.07690   0.29530   0.91850   0.01267  Uiso   1.00
H16    H     0.82690   0.61100   0.66840   0.01267  Uiso   1.00
H17    H     0.49530   0.33160   0.11100   0.01267  Uiso   1.00
H18    H     0.62830   0.79780   0.50200   0.01267  Uiso   1.00
H19    H     0.17200   0.97300   0.10040   0.01267  Uiso   1.00
H20    H     0.13030   0.49800   0.29780   0.01267  Uiso   1.00
H21    H     0.39370   0.11100   0.16840   0.01267  Uiso   1.00
H22    H     0.72760   0.10040   0.52700   0.01267  Uiso   1.00
H23    H     0.61870   0.86810   0.12810   0.01267  Uiso   1.00
H24    H     0.77750   0.43570   0.08150   0.01267  Uiso   1.00
H25    H     0.11490   0.63190   0.37190   0.01267  Uiso   1.00
H26    H     0.64280   0.98360   0.38720   0.01267  Uiso   1.00
H27    H     0.34540   0.52990   0.72330   0.01267  Uiso   1.00
H28    H     0.57190   0.29780   0.00200   0.01267  Uiso   1.00
H29    H     0.25460   0.47300   0.60040   0.01267  Uiso   1.00
H30    H     0.57390   0.99800   0.79780   0.01267  Uiso   1.00
H31    H     0.88510   0.36810   0.62810   0.01267  Uiso   1.00
H32    H     0.37360   0.11280   0.98360   0.01267  Uiso   1.00
H33    H     0.20930   0.79530   0.41850   0.01267  Uiso   1.00
H34    H     0.90140   0.02990   0.22330   0.01267  Uiso   1.00
H35    H     0.35720   0.01640   0.61280   0.01267  Uiso   1.00
H36    H     0.79470   0.06430   0.41850   0.01267  Uiso   1.00
H37    H     0.12470   0.77670   0.52990   0.01267  Uiso   1.00
H38    H     0.62780   0.58150   0.29530   0.01267  Uiso   1.00
H39    H     0.21320   0.58150   0.56430   0.01267  Uiso   1.00
H40    H     0.37170   0.20220   0.49800   0.01267  Uiso   1.00
H41    H     0.85500   0.39960   0.97300   0.01267  Uiso   1.00
H42    H     0.60630   0.88900   0.83160   0.01267  Uiso   1.00
H43    H     0.97000   0.38720   0.51640   0.01267  Uiso   1.00
H44    H     0.37220   0.41850   0.70470   0.01267  Uiso   1.00
H45    H     0.85900   0.91850   0.93570   0.01267  Uiso   1.00
H46    H     0.78680   0.41850   0.43570   0.01267  Uiso   1.00
H47    H     0.74540   0.52700   0.39960   0.01267  Uiso   1.00
H48    H     0.20530   0.93570   0.58150   0.01267  Uiso   1.00
H49    H     0.14100   0.08150   0.06430   0.01267  Uiso   1.00
H50    H     0.27240   0.89960   0.47300   0.01267  Uiso   1.00
H51    H     0.82800   0.02700   0.89960   0.01267  Uiso   1.00
H52    H     0.14500   0.60040   0.02700   0.01267  Uiso   1.00
H53    H     0.03000   0.61280   0.48360   0.01267  Uiso   1.00
H54    H     0.48640   0.48360   0.88720   0.01267  Uiso   1.00
H55    H     0.62640   0.88720   0.01640   0.01267  Uiso   1.00
H56    H     0.93130   0.72330   0.97010   0.01267  Uiso   1.00
H57    H     0.17310   0.38900   0.33160   0.01267  Uiso   1.00
H58    H     0.22250   0.56430   0.91850   0.01267  Uiso   1.00
H59    H     0.79070   0.20470   0.58150   0.01267  Uiso   1.00
H60    H     0.65460   0.47010   0.27670   0.01267  Uiso   1.00
H61    H     0.48680   0.62810   0.13190   0.01267  Uiso   1.00
H62    H     0.42810   0.70220   0.99800   0.01267  Uiso   1.00
H63    H     0.06870   0.27670   0.02990   0.01267  Uiso   1.00
H64    H     0.86970   0.50200   0.70220   0.01267  Uiso   1.00
C1     C     0.37197   0.61216   0.89150   0.01267  Uiso   1.00
C2     C     0.09196   0.40660   0.68168   0.01267  Uiso   1.00
C3     C     0.82853   0.24088   0.56846   0.01267  Uiso   1.00
C4     C     0.06033   0.48189   0.32525   0.01267  Uiso   1.00
C5     C     0.86213   0.74088   0.06846   0.01267  Uiso   1.00
C6     C     0.70927   0.09253   0.43413   0.01267  Uiso   1.00
C7     C     0.22636   0.68168   0.09340   0.01267  Uiso   1.00
C8     C     0.23995   0.98051   0.69359   0.01267  Uiso   1.00
C9     C     0.08951   0.21597   0.14121   0.01267  Uiso   1.00
C10    C     0.65101   0.91660   0.84578   0.01267  Uiso   1.00
C11    C     0.50144   0.81832   0.40660   0.01267  Uiso   1.00
C12    C     0.88500   0.33853   0.59627   0.01267  Uiso   1.00
C13    C     0.48275   0.31187   0.76563   0.01267  Uiso   1.00
C14    C     0.51725   0.68813   0.23437   0.01267  Uiso   1.00
C15    C     0.14340   0.56587   0.59253   0.01267  Uiso   1.00
C16    C     0.93496   0.35012   0.52936   0.01267  Uiso   1.00
C17    C     0.86904   0.99834   0.25238   0.01267  Uiso   1.00
C18    C     0.38558   0.67475   0.98189   0.01267  Uiso   1.00
C19    C     0.53568   0.52936   0.14988   0.01267  Uiso   1.00
C20    C     0.43419   0.89911   0.71891   0.01267  Uiso   1.00
C21    C     0.60301   0.56846   0.25912   0.01267  Uiso   1.00
C22    C     0.79462   0.26563   0.68813   0.01267  Uiso   1.00
C23    C     0.71492   0.97064   0.35012   0.01267  Uiso   1.00
C24    C     0.19820   0.06587   0.09253   0.01267  Uiso   1.00
C25    C     0.98413   0.39150   0.38784   0.01267  Uiso   1.00
C26    C     0.49679   0.15422   0.41660   0.01267  Uiso   1.00
C27    C     0.68024   0.09340   0.81832   0.01267  Uiso   1.00
C28    C     0.08661   0.41660   0.34578   0.01267  Uiso   1.00
C29    C     0.86738   0.75238   0.00166   0.01267  Uiso   1.00
C30    C     0.54924   0.61612   0.21720   0.01267  Uiso   1.00
C31    C     0.24838   0.23437   0.81187   0.01267  Uiso   1.00
C32    C     0.49856   0.18168   0.59340   0.01267  Uiso   1.00
C33    C     0.69811   0.02403   0.84395   0.01267  Uiso   1.00
C34    C     0.58744   0.40719   0.18293   0.01267  Uiso   1.00
C35    C     0.93975   0.81187   0.26563   0.01267  Uiso   1.00
C36    C     0.73593   0.40747   0.06587   0.01267  Uiso   1.00
C37    C     0.00537   0.31707   0.40719   0.01267  Uiso   1.00
C38    C     0.43239   0.65422   0.91660   0.01267  Uiso   1.00
C39    C     0.78305   0.99918   0.88592   0.01267  Uiso   1.00
C40    C     0.90804   0.59340   0.31832   0.01267  Uiso   1.00
C41    C     0.01587   0.60850   0.61216   0.01267  Uiso   1.00
C42    C     0.31980   0.16147   0.90373   0.01267  Uiso   1.00
C43    C     0.69452   0.35879   0.21597   0.01267  Uiso   1.00
C44    C     0.06025   0.18813   0.73437   0.01267  Uiso   1.00
C45    C     0.17147   0.75912   0.43154   0.01267  Uiso   1.00
C46    C     0.27786   0.65605   0.02403   0.01267  Uiso   1.00
C47    C     0.30548   0.64121   0.78403   0.01267  Uiso   1.00
C48    C     0.77037   0.81707   0.90719   0.01267  Uiso   1.00
C49    C     0.68556   0.85012   0.02936   0.01267  Uiso   1.00
C50    C     0.31444   0.14988   0.97064   0.01267  Uiso   1.00
C51    C     0.78223   0.38592   0.00082   0.01267  Uiso   1.00
C52    C     0.76005   0.01949   0.30641   0.01267  Uiso   1.00
C53    C     0.55221   0.60089   0.78109   0.01267  Uiso   1.00
C54    C     0.33103   0.88592   0.50082   0.01267  Uiso   1.00
C55    C     0.56761   0.34578   0.08340   0.01267  Uiso   1.00
C56    C     0.36747   0.01811   0.17475   0.01267  Uiso   1.00
C57    C     0.26347   0.10850   0.11216   0.01267  Uiso   1.00
C58    C     0.58595   0.48051   0.19359   0.01267  Uiso   1.00
C59    C     0.94669   0.28403   0.35879   0.01267  Uiso   1.00
C60    C     0.68020   0.83853   0.09627   0.01267  Uiso   1.00
C61    C     0.85660   0.43413   0.40747   0.01267  Uiso   1.00
C62    C     0.30189   0.97597   0.15605   0.01267  Uiso   1.00
C63    C     0.16536   0.71720   0.38388   0.01267  Uiso   1.00
C64    C     0.22046   0.19359   0.01949   0.01267  Uiso   1.00
C65    C     0.11500   0.66147   0.40373   0.01267  Uiso   1.00
C66    C     0.31976   0.90660   0.18168   0.01267  Uiso   1.00
C67    C     0.61976   0.50166   0.24762   0.01267  Uiso   1.00
C68    C     0.50321   0.84578   0.58340   0.01267  Uiso   1.00
C69    C     0.83464   0.28280   0.61612   0.01267  Uiso   1.00
C70    C     0.75162   0.76563   0.18813   0.01267  Uiso   1.00
C71    C     0.05331   0.71597   0.64121   0.01267  Uiso   1.00
C72    C     0.06941   0.06846   0.75912   0.01267  Uiso   1.00
C73    C     0.93059   0.93154   0.24088   0.01267  Uiso   1.00
C74    C     0.83185   0.49918   0.38592   0.01267  Uiso   1.00
C75    C     0.76928   0.14121   0.28403   0.01267  Uiso   1.00
C76    C     0.46432   0.47064   0.85012   0.01267  Uiso   1.00
C77    C     0.44779   0.39911   0.21891   0.01267  Uiso   1.00
C78    C     0.80180   0.93413   0.90747   0.01267  Uiso   1.00
C79    C     0.41405   0.51949   0.80641   0.01267  Uiso   1.00
C80    C     0.93391   0.52403   0.34395   0.01267  Uiso   1.00
C81    C     0.67756   0.09281   0.31707   0.01267  Uiso   1.00
C82    C     0.21695   0.00082   0.11408   0.01267  Uiso   1.00
C83    C     0.45778   0.17475   0.48189   0.01267  Uiso   1.00
C84    C     0.51873   0.59627   0.16147   0.01267  Uiso   1.00
C85    C     0.28508   0.02936   0.64988   0.01267  Uiso   1.00
C86    C     0.22963   0.18293   0.09281   0.01267  Uiso   1.00
C87    C     0.88256   0.88388   0.28280   0.01267  Uiso   1.00
C88    C     0.54206   0.15605   0.52403   0.01267  Uiso   1.00
C89    C     0.32244   0.90719   0.68293   0.01267  Uiso   1.00
C90    C     0.99463   0.68293   0.59281   0.01267  Uiso   1.00
C91    C     0.62803   0.38784   0.10850   0.01267  Uiso   1.00
C92    C     0.91339   0.58340   0.65422   0.01267  Uiso   1.00
C93    C     0.93967   0.51811   0.67475   0.01267  Uiso   1.00
C94    C     0.77647   0.90373   0.33853   0.01267  Uiso   1.00
C95    C     0.21777   0.61408   0.99918   0.01267  Uiso   1.00
C96    C     0.63253   0.98189   0.82525   0.01267  Uiso   1.00
C97    C     0.61442   0.32525   0.01811   0.01267  Uiso   1.00
C98    C     0.62437   0.11216   0.39150   0.01267  Uiso   1.00
C99    C     0.48127   0.40373   0.83853   0.01267  Uiso   1.00
C100   C     0.23356   0.21720   0.88388   0.01267  Uiso   1.00
C101   C     0.72214   0.34395   0.97597   0.01267  Uiso   1.00
C102   C     0.06609   0.47597   0.65605   0.01267  Uiso   1.00
C103   C     0.56581   0.10089   0.28109   0.01267  Uiso   1.00
C104   C     0.84690   0.71891   0.60089   0.01267  Uiso   1.00
C105   C     0.45076   0.38388   0.78280   0.01267  Uiso   1.00
C106   C     0.15310   0.28109   0.39911   0.01267  Uiso   1.00
C107   C     0.39699   0.43154   0.74088   0.01267  Uiso   1.00
C108   C     0.33330   0.21891   0.10089   0.01267  Uiso   1.00
C109   C     0.29073   0.90747   0.56587   0.01267  Uiso   1.00
C110   C     0.26407   0.59253   0.93413   0.01267  Uiso   1.00
C111   C     0.91049   0.78403   0.85879   0.01267  Uiso   1.00
C112   C     0.13262   0.24762   0.99834   0.01267  Uiso   1.00
C113   C     0.22353   0.09627   0.66147   0.01267  Uiso   1.00
C114   C     0.66670   0.78109   0.89911   0.01267  Uiso   1.00
C115   C     0.13787   0.25912   0.93154   0.01267  Uiso   1.00
C116   C     0.77954   0.80641   0.98051   0.01267  Uiso   1.00
C117   C     0.73653   0.89150   0.88784   0.01267  Uiso   1.00
C118   C     0.12142   0.74762   0.49834   0.01267  Uiso   1.00
C119   C     0.16815   0.50082   0.61408   0.01267  Uiso   1.00
C120   C     0.38024   0.49834   0.75238   0.01267  Uiso   1.00
C121   C     0.34899   0.08340   0.15422   0.01267  Uiso   1.00
C122   C     0.41256   0.59281   0.81707   0.01267  Uiso   1.00
C123   C     0.06646   0.69359   0.51949   0.01267  Uiso   1.00
C124   C     0.06504   0.64988   0.47064   0.01267  Uiso   1.00
C125   C     0.45794   0.84395   0.47597   0.01267  Uiso   1.00
C126   C     0.20538   0.73437   0.31187   0.01267  Uiso   1.00
C127   C     0.66897   0.11408   0.49918   0.01267  Uiso   1.00
C128   C     0.23072   0.85879   0.71597   0.01267  Uiso   1.00
C129   C     0.87858   0.25238   0.50166   0.01267  Uiso   1.00
C130   C     0.54222   0.82525   0.51811   0.01267  Uiso   1.00
C131   C     0.13096   0.00166   0.74762   0.01267  Uiso   1.00
C132   C     0.76644   0.78280   0.11612   0.01267  Uiso   1.00
C133   C     0.77364   0.31832   0.90660   0.01267  Uiso   1.00
C134   C     0.11744   0.11612   0.71720   0.01267  Uiso   1.00
C135   C     0.93354   0.30641   0.48051   0.01267  Uiso   1.00
C136   C     0.37563   0.88784   0.60850   0.01267  Uiso   1.00
O1     O     0.24026   0.78886   0.29522   0.01267  Uiso   1.00
O2     O     0.90161   0.76726   0.30412   0.01267  Uiso   1.00
O3     O     0.79427   0.30412   0.73274   0.01267  Uiso   1.00
O4     O     0.57443   0.16027   0.63207   0.01267  Uiso   1.00
O5     O     0.28208   0.72375   0.10909   0.01267  Uiso   1.00
O6     O     0.99417   0.39091   0.72375   0.01267  Uiso   1.00
O7     O     0.02912   0.79522   0.21114   0.01267  Uiso   1.00
O8     O     0.09839   0.23274   0.69588   0.01267  Uiso   1.00
O9     O     0.26530   0.86793   0.16027   0.01267  Uiso   1.00
O10    O     0.47299   0.73274   0.19588   0.01267  Uiso   1.00
O11    O     0.13323   0.66027   0.13207   0.01267  Uiso   1.00
O12    O     0.75974   0.21114   0.70478   0.01267  Uiso   1.00
O13    O     0.71792   0.27625   0.89091   0.01267  Uiso   1.00
O14    O     0.52701   0.26726   0.80412   0.01267  Uiso   1.00
O15    O     0.00583   0.60909   0.27625   0.01267  Uiso   1.00
O16    O     0.86677   0.33973   0.86793   0.01267  Uiso   1.00
O17    O     0.46452   0.29522   0.71114   0.01267  Uiso   1.00
O18    O     0.39117   0.89091   0.22375   0.01267  Uiso   1.00
O19    O     0.42557   0.83973   0.36793   0.01267  Uiso   1.00
O20    O     0.79350   0.63207   0.33973   0.01267  Uiso   1.00
O21    O     0.66887   0.80412   0.23274   0.01267  Uiso   1.00
O22    O     0.53548   0.70478   0.28886   0.01267  Uiso   1.00
O23    O     0.97088   0.20478   0.78886   0.01267  Uiso   1.00
O24    O     0.20650   0.36793   0.66027   0.01267  Uiso   1.00
O25    O     0.38508   0.22375   0.60909   0.01267  Uiso   1.00
O26    O     0.20573   0.69588   0.26726   0.01267  Uiso   1.00
O27    O     0.82434   0.71114   0.20478   0.01267  Uiso   1.00
O28    O     0.33113   0.19588   0.76726   0.01267  Uiso   1.00
O29    O     0.61492   0.77625   0.39091   0.01267  Uiso   1.00
O30    O     0.60883   0.10909   0.77625   0.01267  Uiso   1.00
O31    O     0.17566   0.28886   0.79522   0.01267  Uiso   1.00
O32    O     0.73470   0.13207   0.83973   0.01267  Uiso   1.00
F1     F     0.79372   0.14196   0.21800   0.01267  Uiso   1.00
F2     F     0.40619   0.42611   0.28031   0.01267  Uiso   1.00
F3     F     0.33401   0.22702   0.16436   0.01267  Uiso   1.00
F4     F     0.22539   0.27298   0.33564   0.01267  Uiso   1.00
F5     F     0.81235   0.30150   0.37560   0.01267  Uiso   1.00
F6     F     0.45810   0.18640   0.07000   0.01267  Uiso   1.00
F7     F     0.06432   0.28200   0.14196   0.01267  Uiso   1.00
F8     F     0.01055   0.80150   0.87560   0.01267  Uiso   1.00
F9     F     0.50163   0.16436   0.27298   0.01267  Uiso   1.00
F10    F     0.11385   0.87560   0.69850   0.01267  Uiso   1.00
F11    F     0.28327   0.70336   0.80530   0.01267  Uiso   1.00
F12    F     0.21450   0.31360   0.43000   0.01267  Uiso   1.00
F13    F     0.78550   0.68640   0.57000   0.01267  Uiso   1.00
F14    F     0.01172   0.78200   0.64196   0.01267  Uiso   1.00
F15    F     0.81205   0.37560   0.19850   0.01267  Uiso   1.00
F16    F     0.98945   0.19850   0.12440   0.01267  Uiso   1.00
F17    F     0.16770   0.21969   0.42611   0.01267  Uiso   1.00
F18    F     0.66599   0.77298   0.83564   0.01267  Uiso   1.00
F19    F     0.83230   0.78031   0.57389   0.01267  Uiso   1.00
F20    F     0.49837   0.83564   0.72702   0.01267  Uiso   1.00
F21    F     0.56103   0.66436   0.77298   0.01267  Uiso   1.00
F22    F     0.98663   0.30530   0.29664   0.01267  Uiso   1.00
F23    F     0.59381   0.57389   0.71969   0.01267  Uiso   1.00
F24    F     0.20628   0.85804   0.78200   0.01267  Uiso   1.00
F25    F     0.18795   0.62440   0.80150   0.01267  Uiso   1.00
F26    F     0.01337   0.69470   0.70336   0.01267  Uiso   1.00
F27    F     0.29193   0.79664   0.69470   0.01267  Uiso   1.00
F28    F     0.91143   0.80530   0.79664   0.01267  Uiso   1.00
F29    F     0.88615   0.12440   0.30150   0.01267  Uiso   1.00
F30    F     0.35550   0.43000   0.18640   0.01267  Uiso   1.00
F31    F     0.43897   0.33564   0.22702   0.01267  Uiso   1.00
F32    F     0.38739   0.92611   0.78031   0.01267  Uiso   1.00
F33    F     0.77461   0.72702   0.66436   0.01267  Uiso   1.00
F34    F     0.70807   0.20336   0.30530   0.01267  Uiso   1.00
F35    F     0.68650   0.71969   0.92611   0.01267  Uiso   1.00
F36    F     0.64450   0.57000   0.81360   0.01267  Uiso   1.00
F37    F     0.08857   0.19470   0.20336   0.01267  Uiso   1.00
F38    F     0.61261   0.07389   0.21969   0.01267  Uiso   1.00
F39    F     0.98828   0.21800   0.35804   0.01267  Uiso   1.00
F40    F     0.52810   0.93000   0.68640   0.01267  Uiso   1.00
F41    F     0.54190   0.81360   0.93000   0.01267  Uiso   1.00
F42    F     0.34632   0.64196   0.71800   0.01267  Uiso   1.00
F43    F     0.65368   0.35804   0.28200   0.01267  Uiso   1.00
F44    F     0.31350   0.28031   0.07389   0.01267  Uiso   1.00
F45    F     0.47190   0.07000   0.31360   0.01267  Uiso   1.00
F46    F     0.71673   0.29664   0.19470   0.01267  Uiso   1.00
F47    F     0.18765   0.69850   0.62440   0.01267  Uiso   1.00
F48    F     0.93568   0.71800   0.85804   0.01267  Uiso   1.00
