data_image0
_cell_length_a       7.772
_cell_length_b       18.629
_cell_length_c       19.518
_cell_angle_alpha    90
_cell_angle_beta     104.23
_cell_angle_gamma    90

_symmetry_space_group_name_H-M    "P 1"
_symmetry_int_tables_number       1

loop_
  _symmetry_equiv_pos_as_xyz
  'x, y, z'

loop_
  _atom_site_label
  _atom_site_occupancy
  _atom_site_fract_x
  _atom_site_fract_y
  _atom_site_fract_z
  _atom_site_thermal_displace_type
  _atom_site_B_iso_or_equiv
  _atom_site_type_symbol
  Co1      1.0000 0.70410  0.56004  0.97052  Biso   1.000  Co
  Co2      1.0000 0.80199  0.93997  0.03536  Biso   1.000  Co
  O1       1.0000 0.97290  0.91897  0.14029  Biso   1.000  O
  H1       1.0000 0.01090  0.87610  0.14530  Biso   1.000  H
  H2       1.0000 0.89730  0.92800  0.16420  Biso   1.000  H
  O2       1.0000 0.01190  0.91818  0.99730  Biso   1.000  O
  O3       1.0000 0.19780  0.95562  0.93553  Biso   1.000  O
  O4       1.0000 0.79960  0.66555  0.97217  Biso   1.000  O
  O5       1.0000 0.91530  0.58923  0.91099  Biso   1.000  O
  O6       1.0000 0.51120  0.58124  0.87790  Biso   1.000  O
  H3       1.0000 0.47160  0.62260  0.86490  Biso   1.000  H
  H4       1.0000 0.41890  0.54910  0.85580  Biso   1.000  H
  O7       1.0000 0.91980  0.53963  0.06195  Biso   1.000  O
  O8       1.0000 0.39410  0.72396  0.83797  Biso   1.000  O
  O9       1.0000 0.09890  0.72352  0.65924  Biso   1.000  O
  O10      1.0000 0.56760  0.58648  0.57852  Biso   1.000  O
  O11      1.0000 0.70230  0.66645  0.52881  Biso   1.000  O
  O12      1.0000 0.55100  0.92585  0.53860  Biso   1.000  O
  O13      1.0000 0.28470  0.95326  0.55316  Biso   1.000  O
  N1       1.0000 0.62160  0.96180  0.93580  Biso   1.000  N
  C1       1.0000 0.77380  0.96660  0.82320  Biso   1.000  C
  H5       1.0000 0.82450  0.92100  0.81630  Biso   1.000  H
  H6       1.0000 0.86570  0.00230  0.83410  Biso   1.000  H
  H7       1.0000 0.68780  0.98010  0.78080  Biso   1.000  H
  C2       1.0000 0.68540  0.96130  0.88280  Biso   1.000  C
  C3       1.0000 0.10780  0.90780  0.95560  Biso   1.000  C
  C4       1.0000 0.12290  0.83295  0.92990  Biso   1.000  C
  C5       1.0000 0.01130  0.77952  0.94465  Biso   1.000  C
  H8       1.0000 0.92660  0.79040  0.96940  Biso   1.000  H
  C6       1.0000 0.02860  0.70956  0.92173  Biso   1.000  C
  C7       1.0000 0.15750  0.69300  0.88570  Biso   1.000  C
  H9       1.0000 0.16880  0.64630  0.87070  Biso   1.000  H
  C8       1.0000 0.26950  0.74680  0.87210  Biso   1.000  C
  C9       1.0000 0.25260  0.81680  0.89340  Biso   1.000  C
  H10      1.0000 0.32630  0.85270  0.88360  Biso   1.000  H
  C10      1.0000 0.90890  0.65170  0.93560  Biso   1.000  C
  C11      1.0000 0.51210  0.77610  0.81940  Biso   1.000  C
  H11      1.0000 0.58490  0.79840  0.86160  Biso   1.000  H
  H12      1.0000 0.44510  0.81310  0.78950  Biso   1.000  H
  C12      1.0000 0.62650  0.73520  0.78040  Biso   1.000  C
  H13      1.0000 0.55000  0.70840  0.74220  Biso   1.000  H
  H14      1.0000 0.69810  0.70090  0.81260  Biso   1.000  H
  C13      1.0000 0.74950  0.78280  0.74970  Biso   1.000  C
  H15      1.0000 0.82330  0.81170  0.78690  Biso   1.000  H
  H16      1.0000 0.67960  0.81490  0.71450  Biso   1.000  H
  C14      1.0000 0.86640  0.73520  0.71580  Biso   1.000  C
  H17      1.0000 0.93950  0.70520  0.75220  Biso   1.000  H
  H18      1.0000 0.79060  0.70380  0.68170  Biso   1.000  H
  C15      1.0000 0.98530  0.77630  0.67940  Biso   1.000  C
  H19      1.0000 0.91560  0.80100  0.63810  Biso   1.000  H
  H20      1.0000 0.05500  0.81140  0.71120  Biso   1.000  H
  C16      1.0000 0.22490  0.74570  0.62520  Biso   1.000  C
  C17      1.0000 0.24810  0.81610  0.60720  Biso   1.000  C
  H21      1.0000 0.17650  0.85220  0.61810  Biso   1.000  H
  C18      1.0000 0.38090  0.83266  0.57230  Biso   1.000  C
  C19      1.0000 0.48940  0.77915  0.55660  Biso   1.000  C
  H22      1.0000 0.57850  0.79050  0.53420  Biso   1.000  H
  C20      1.0000 0.46390  0.70812  0.57474  Biso   1.000  C
  C21      1.0000 0.33250  0.69108  0.60910  Biso   1.000  C
  H23      1.0000 0.31600  0.64380  0.62120  Biso   1.000  H
  C22      1.0000 0.40730  0.90900  0.55270  Biso   1.000  C
  C23      1.0000 0.58250  0.65050  0.55870  Biso   1.000  C
  Co3      1.0000 0.29590  0.06004  0.52948  Biso   1.000  Co
  Co4      1.0000 0.19801  0.43997  0.46464  Biso   1.000  Co
  O14      1.0000 0.02710  0.41897  0.35971  Biso   1.000  O
  H24      1.0000 0.98910  0.37610  0.35470  Biso   1.000  H
  H25      1.0000 0.10270  0.42800  0.33580  Biso   1.000  H
  O15      1.0000 0.98810  0.41818  0.50270  Biso   1.000  O
  O16      1.0000 0.80220  0.45562  0.56447  Biso   1.000  O
  O17      1.0000 0.20040  0.16555  0.52783  Biso   1.000  O
  O18      1.0000 0.08470  0.08923  0.58901  Biso   1.000  O
  O19      1.0000 0.48880  0.08124  0.62210  Biso   1.000  O
  H26      1.0000 0.52840  0.12260  0.63510  Biso   1.000  H
  H27      1.0000 0.58110  0.04910  0.64420  Biso   1.000  H
  O20      1.0000 0.08020  0.03963  0.43805  Biso   1.000  O
  O21      1.0000 0.60590  0.22396  0.66203  Biso   1.000  O
  O22      1.0000 0.90110  0.22352  0.84076  Biso   1.000  O
  O23      1.0000 0.43240  0.08648  0.92148  Biso   1.000  O
  O24      1.0000 0.29770  0.16645  0.97119  Biso   1.000  O
  O25      1.0000 0.44900  0.42585  0.96140  Biso   1.000  O
  O26      1.0000 0.71530  0.45326  0.94684  Biso   1.000  O
  N2       1.0000 0.37840  0.46180  0.56420  Biso   1.000  N
  C24      1.0000 0.22620  0.46660  0.67680  Biso   1.000  C
  H28      1.0000 0.17550  0.42100  0.68370  Biso   1.000  H
  H29      1.0000 0.13430  0.50230  0.66590  Biso   1.000  H
  H30      1.0000 0.31220  0.48010  0.71920  Biso   1.000  H
  C25      1.0000 0.31460  0.46130  0.61720  Biso   1.000  C
  C26      1.0000 0.89220  0.40780  0.54440  Biso   1.000  C
  C27      1.0000 0.87710  0.33295  0.57010  Biso   1.000  C
  C28      1.0000 0.98870  0.27952  0.55535  Biso   1.000  C
  H31      1.0000 0.07340  0.29040  0.53060  Biso   1.000  H
  C29      1.0000 0.97140  0.20956  0.57827  Biso   1.000  C
  C30      1.0000 0.84250  0.19300  0.61430  Biso   1.000  C
  H32      1.0000 0.83120  0.14630  0.62930  Biso   1.000  H
  C31      1.0000 0.73050  0.24680  0.62790  Biso   1.000  C
  C32      1.0000 0.74740  0.31680  0.60660  Biso   1.000  C
  H33      1.0000 0.67370  0.35270  0.61640  Biso   1.000  H
  C33      1.0000 0.09110  0.15170  0.56440  Biso   1.000  C
  C34      1.0000 0.48790  0.27610  0.68060  Biso   1.000  C
  H34      1.0000 0.41510  0.29840  0.63840  Biso   1.000  H
  H35      1.0000 0.55490  0.31310  0.71050  Biso   1.000  H
  C35      1.0000 0.37350  0.23520  0.71960  Biso   1.000  C
  H36      1.0000 0.45000  0.20840  0.75780  Biso   1.000  H
  H37      1.0000 0.30190  0.20090  0.68740  Biso   1.000  H
  C36      1.0000 0.25050  0.28280  0.75030  Biso   1.000  C
  H38      1.0000 0.17670  0.31170  0.71310  Biso   1.000  H
  H39      1.0000 0.32040  0.31490  0.78550  Biso   1.000  H
  C37      1.0000 0.13360  0.23520  0.78420  Biso   1.000  C
  H40      1.0000 0.06050  0.20520  0.74780  Biso   1.000  H
  H41      1.0000 0.20940  0.20380  0.81830  Biso   1.000  H
  C38      1.0000 0.01470  0.27630  0.82060  Biso   1.000  C
  H42      1.0000 0.08440  0.30100  0.86190  Biso   1.000  H
  H43      1.0000 0.94500  0.31140  0.78880  Biso   1.000  H
  C39      1.0000 0.77510  0.24570  0.87480  Biso   1.000  C
  C40      1.0000 0.75190  0.31610  0.89280  Biso   1.000  C
  H44      1.0000 0.82350  0.35220  0.88190  Biso   1.000  H
  C41      1.0000 0.61910  0.33266  0.92770  Biso   1.000  C
  C42      1.0000 0.51060  0.27915  0.94340  Biso   1.000  C
  H45      1.0000 0.42150  0.29050  0.96580  Biso   1.000  H
  C43      1.0000 0.53610  0.20812  0.92526  Biso   1.000  C
  C44      1.0000 0.66750  0.19108  0.89090  Biso   1.000  C
  H46      1.0000 0.68400  0.14380  0.87880  Biso   1.000  H
  C45      1.0000 0.59270  0.40900  0.94730  Biso   1.000  C
  C46      1.0000 0.41750  0.15050  0.94130  Biso   1.000  C
  Co5      1.0000 0.29590  0.43996  0.02948  Biso   1.000  Co
  Co6      1.0000 0.19801  0.06003  0.96464  Biso   1.000  Co
  O27      1.0000 0.02710  0.08103  0.85971  Biso   1.000  O
  H47      1.0000 0.98910  0.12390  0.85470  Biso   1.000  H
  H48      1.0000 0.10270  0.07200  0.83580  Biso   1.000  H
  O28      1.0000 0.98810  0.08182  0.00270  Biso   1.000  O
  O29      1.0000 0.80220  0.04438  0.06447  Biso   1.000  O
  O30      1.0000 0.20040  0.33445  0.02783  Biso   1.000  O
  O31      1.0000 0.08470  0.41077  0.08901  Biso   1.000  O
  O32      1.0000 0.48880  0.41876  0.12210  Biso   1.000  O
  H49      1.0000 0.52840  0.37740  0.13510  Biso   1.000  H
  H50      1.0000 0.58110  0.45090  0.14420  Biso   1.000  H
  O33      1.0000 0.08020  0.46037  0.93805  Biso   1.000  O
  O34      1.0000 0.60590  0.27604  0.16203  Biso   1.000  O
  O35      1.0000 0.90110  0.27648  0.34076  Biso   1.000  O
  O36      1.0000 0.43240  0.41352  0.42148  Biso   1.000  O
  O37      1.0000 0.29770  0.33355  0.47119  Biso   1.000  O
  O38      1.0000 0.44900  0.07415  0.46140  Biso   1.000  O
  O39      1.0000 0.71530  0.04674  0.44684  Biso   1.000  O
  N3       1.0000 0.37840  0.03820  0.06420  Biso   1.000  N
  C47      1.0000 0.22620  0.03340  0.17680  Biso   1.000  C
  H51      1.0000 0.17550  0.07900  0.18370  Biso   1.000  H
  H52      1.0000 0.13430  0.99770  0.16590  Biso   1.000  H
  H53      1.0000 0.31220  0.01990  0.21920  Biso   1.000  H
  C48      1.0000 0.31460  0.03870  0.11720  Biso   1.000  C
  C49      1.0000 0.89220  0.09220  0.04440  Biso   1.000  C
  C50      1.0000 0.87710  0.16705  0.07010  Biso   1.000  C
  C51      1.0000 0.98870  0.22048  0.05535  Biso   1.000  C
  H54      1.0000 0.07340  0.20960  0.03060  Biso   1.000  H
  C52      1.0000 0.97140  0.29044  0.07827  Biso   1.000  C
  C53      1.0000 0.84250  0.30700  0.11430  Biso   1.000  C
  H55      1.0000 0.83120  0.35370  0.12930  Biso   1.000  H
  C54      1.0000 0.73050  0.25320  0.12790  Biso   1.000  C
  C55      1.0000 0.74740  0.18320  0.10660  Biso   1.000  C
  H56      1.0000 0.67370  0.14730  0.11640  Biso   1.000  H
  C56      1.0000 0.09110  0.34830  0.06440  Biso   1.000  C
  C57      1.0000 0.48790  0.22390  0.18060  Biso   1.000  C
  H57      1.0000 0.41510  0.20160  0.13840  Biso   1.000  H
  H58      1.0000 0.55490  0.18690  0.21050  Biso   1.000  H
  C58      1.0000 0.37350  0.26480  0.21960  Biso   1.000  C
  H59      1.0000 0.45000  0.29160  0.25780  Biso   1.000  H
  H60      1.0000 0.30190  0.29910  0.18740  Biso   1.000  H
  C59      1.0000 0.25050  0.21720  0.25030  Biso   1.000  C
  H61      1.0000 0.17670  0.18830  0.21310  Biso   1.000  H
  H62      1.0000 0.32040  0.18510  0.28550  Biso   1.000  H
  C60      1.0000 0.13360  0.26480  0.28420  Biso   1.000  C
  H63      1.0000 0.06050  0.29480  0.24780  Biso   1.000  H
  H64      1.0000 0.20940  0.29620  0.31830  Biso   1.000  H
  C61      1.0000 0.01470  0.22370  0.32060  Biso   1.000  C
  H65      1.0000 0.08440  0.19900  0.36190  Biso   1.000  H
  H66      1.0000 0.94500  0.18860  0.28880  Biso   1.000  H
  C62      1.0000 0.77510  0.25430  0.37480  Biso   1.000  C
  C63      1.0000 0.75190  0.18390  0.39280  Biso   1.000  C
  H67      1.0000 0.82350  0.14780  0.38190  Biso   1.000  H
  C64      1.0000 0.61910  0.16734  0.42770  Biso   1.000  C
  C65      1.0000 0.51060  0.22085  0.44340  Biso   1.000  C
  H68      1.0000 0.42150  0.20950  0.46580  Biso   1.000  H
  C66      1.0000 0.53610  0.29188  0.42526  Biso   1.000  C
  C67      1.0000 0.66750  0.30892  0.39090  Biso   1.000  C
  H69      1.0000 0.68400  0.35620  0.37880  Biso   1.000  H
  C68      1.0000 0.59270  0.09100  0.44730  Biso   1.000  C
  C69      1.0000 0.41750  0.34950  0.44130  Biso   1.000  C
  Co7      1.0000 0.70410  0.93996  0.47052  Biso   1.000  Co
  Co8      1.0000 0.80199  0.56003  0.53536  Biso   1.000  Co
  O40      1.0000 0.97290  0.58103  0.64029  Biso   1.000  O
  H70      1.0000 0.01090  0.62390  0.64530  Biso   1.000  H
  H71      1.0000 0.89730  0.57200  0.66420  Biso   1.000  H
  O41      1.0000 0.01190  0.58182  0.49730  Biso   1.000  O
  O42      1.0000 0.19780  0.54438  0.43553  Biso   1.000  O
  O43      1.0000 0.79960  0.83445  0.47217  Biso   1.000  O
  O44      1.0000 0.91530  0.91077  0.41099  Biso   1.000  O
  O45      1.0000 0.51120  0.91876  0.37790  Biso   1.000  O
  H72      1.0000 0.47160  0.87740  0.36490  Biso   1.000  H
  H73      1.0000 0.41890  0.95090  0.35580  Biso   1.000  H
  O46      1.0000 0.91980  0.96037  0.56195  Biso   1.000  O
  O47      1.0000 0.39410  0.77604  0.33797  Biso   1.000  O
  O48      1.0000 0.09890  0.77648  0.15924  Biso   1.000  O
  O49      1.0000 0.56760  0.91352  0.07852  Biso   1.000  O
  O50      1.0000 0.70230  0.83355  0.02881  Biso   1.000  O
  O51      1.0000 0.55100  0.57415  0.03860  Biso   1.000  O
  O52      1.0000 0.28470  0.54674  0.05316  Biso   1.000  O
  N4       1.0000 0.62160  0.53820  0.43580  Biso   1.000  N
  C70      1.0000 0.77380  0.53340  0.32320  Biso   1.000  C
  H74      1.0000 0.82450  0.57900  0.31630  Biso   1.000  H
  H75      1.0000 0.86570  0.49770  0.33410  Biso   1.000  H
  H76      1.0000 0.68780  0.51990  0.28080  Biso   1.000  H
  C71      1.0000 0.68540  0.53870  0.38280  Biso   1.000  C
  C72      1.0000 0.10780  0.59220  0.45560  Biso   1.000  C
  C73      1.0000 0.12290  0.66705  0.42990  Biso   1.000  C
  C74      1.0000 0.01130  0.72048  0.44465  Biso   1.000  C
  H77      1.0000 0.92660  0.70960  0.46940  Biso   1.000  H
  C75      1.0000 0.02860  0.79044  0.42173  Biso   1.000  C
  C76      1.0000 0.15750  0.80700  0.38570  Biso   1.000  C
  H78      1.0000 0.16880  0.85370  0.37070  Biso   1.000  H
  C77      1.0000 0.26950  0.75320  0.37210  Biso   1.000  C
  C78      1.0000 0.25260  0.68320  0.39340  Biso   1.000  C
  H79      1.0000 0.32630  0.64730  0.38360  Biso   1.000  H
  C79      1.0000 0.90890  0.84830  0.43560  Biso   1.000  C
  C80      1.0000 0.51210  0.72390  0.31940  Biso   1.000  C
  H80      1.0000 0.58490  0.70160  0.36160  Biso   1.000  H
  H81      1.0000 0.44510  0.68690  0.28950  Biso   1.000  H
  C81      1.0000 0.62650  0.76480  0.28040  Biso   1.000  C
  H82      1.0000 0.55000  0.79160  0.24220  Biso   1.000  H
  H83      1.0000 0.69810  0.79910  0.31260  Biso   1.000  H
  C82      1.0000 0.74950  0.71720  0.24970  Biso   1.000  C
  H84      1.0000 0.82330  0.68830  0.28690  Biso   1.000  H
  H85      1.0000 0.67960  0.68510  0.21450  Biso   1.000  H
  C83      1.0000 0.86640  0.76480  0.21580  Biso   1.000  C
  H86      1.0000 0.93950  0.79480  0.25220  Biso   1.000  H
  H87      1.0000 0.79060  0.79620  0.18170  Biso   1.000  H
  C84      1.0000 0.98530  0.72370  0.17940  Biso   1.000  C
  H88      1.0000 0.91560  0.69900  0.13810  Biso   1.000  H
  H89      1.0000 0.05500  0.68860  0.21120  Biso   1.000  H
  C85      1.0000 0.22490  0.75430  0.12520  Biso   1.000  C
  C86      1.0000 0.24810  0.68390  0.10720  Biso   1.000  C
  H90      1.0000 0.17650  0.64780  0.11810  Biso   1.000  H
  C87      1.0000 0.38090  0.66734  0.07230  Biso   1.000  C
  C88      1.0000 0.48940  0.72085  0.05660  Biso   1.000  C
  H91      1.0000 0.57850  0.70950  0.03420  Biso   1.000  H
  C89      1.0000 0.46390  0.79188  0.07474  Biso   1.000  C
  C90      1.0000 0.33250  0.80892  0.10910  Biso   1.000  C
  H92      1.0000 0.31600  0.85620  0.12120  Biso   1.000  H
  C91      1.0000 0.40730  0.59100  0.05270  Biso   1.000  C
  C92      1.0000 0.58250  0.84950  0.05870  Biso   1.000  C
