data_ic500323r_si_002_freeONLY
_audit_creation_date              2015-08-19
_audit_creation_method            'Materials Studio'
_symmetry_space_group_name_H-M    'P1'
_symmetry_Int_Tables_number       1
_symmetry_cell_setting            triclinic
loop_
_symmetry_equiv_pos_as_xyz
  x,y,z
_cell_length_a                    10.9555
_cell_length_b                    14.4397
_cell_length_c                    14.7173
_cell_angle_alpha                 85.0620
_cell_angle_beta                  69.9830
_cell_angle_gamma                 78.3780
loop_
_atom_site_label
_atom_site_type_symbol
_atom_site_fract_x
_atom_site_fract_y
_atom_site_fract_z
_atom_site_U_iso_or_equiv
_atom_site_adp_type
_atom_site_occupancy
Fe1    Fe    0.53309   0.25057   0.50532   0.01267  Uiso   1.00
Fe2    Fe    0.46691   0.74943   0.49468   0.01267  Uiso   1.00
Fe3    Fe    0.89094   0.75094   0.98346   0.01267  Uiso   1.00
Fe4    Fe    0.10906   0.24906   0.01654   0.01267  Uiso   1.00
H1     H     0.33020   0.16640   0.46700   0.01267  Uiso   1.00
H2     H     0.85450   0.78880   0.57990   0.01267  Uiso   1.00
H3     H     0.95050   0.09080   0.84540   0.01267  Uiso   1.00
H4     H     0.89470   0.59450   0.38050   0.01267  Uiso   1.00
H5     H     0.38330   0.43110   0.44710   0.01267  Uiso   1.00
H6     H     0.10530   0.40550   0.61950   0.01267  Uiso   1.00
H7     H     0.31430   0.93190   0.44810   0.01267  Uiso   1.00
H8     H     0.92050   0.10900   0.36220   0.01267  Uiso   1.00
H9     H     0.21860   0.54770   0.07750   0.01267  Uiso   1.00
H10    H     0.61670   0.56890   0.55290   0.01267  Uiso   1.00
H11    H     0.73210   0.33210   0.55460   0.01267  Uiso   1.00
H12    H     0.82440   0.58390   0.81800   0.01267  Uiso   1.00
H13    H     0.88780   0.97150   0.95950   0.01267  Uiso   1.00
H14    H     0.01310   0.77940   0.75860   0.01267  Uiso   1.00
H15    H     0.19940   0.48280   0.40160   0.01267  Uiso   1.00
H16    H     0.04950   0.90920   0.15460   0.01267  Uiso   1.00
H17    H     0.91850   0.28240   0.59920   0.01267  Uiso   1.00
H18    H     0.14550   0.21120   0.42010   0.01267  Uiso   1.00
H19    H     0.26790   0.66790   0.44540   0.01267  Uiso   1.00
H20    H     0.68570   0.06810   0.55190   0.01267  Uiso   1.00
H21    H     0.80060   0.51720   0.59840   0.01267  Uiso   1.00
H22    H     0.17560   0.41610   0.18200   0.01267  Uiso   1.00
H23    H     0.07950   0.89100   0.63780   0.01267  Uiso   1.00
H24    H     0.11220   0.02850   0.04050   0.01267  Uiso   1.00
H25    H     0.78140   0.45230   0.92250   0.01267  Uiso   1.00
H26    H     0.05810   0.28200   0.73250   0.01267  Uiso   1.00
H27    H     0.12830   0.98900   0.40490   0.01267  Uiso   1.00
H28    H     0.66980   0.83360   0.53300   0.01267  Uiso   1.00
H29    H     0.98690   0.22060   0.24140   0.01267  Uiso   1.00
H30    H     0.94190   0.71800   0.26750   0.01267  Uiso   1.00
H31    H     0.87170   0.01100   0.59510   0.01267  Uiso   1.00
H32    H     0.08150   0.71760   0.40080   0.01267  Uiso   1.00
Pt1    Pt    0.26684   0.50737   0.74616   0.01267  Uiso   1.00
Pt2    Pt    0.33494   0.00326   0.74723   0.01267  Uiso   1.00
Pt3    Pt    0.66506   0.99674   0.25277   0.01267  Uiso   1.00
Pt4    Pt    0.73316   0.49263   0.25384   0.01267  Uiso   1.00
C1     C     0.22390   0.41760   0.41550   0.01267  Uiso   1.00
C2     C     0.03960   0.90960   0.70340   0.01267  Uiso   1.00
C3     C     0.15490   0.92280   0.41250   0.01267  Uiso   1.00
C4     C     0.33350   0.38600   0.44260   0.01267  Uiso   1.00
C5     C     0.00040   0.15660   0.22370   0.01267  Uiso   1.00
C6     C     0.96580   0.50610   0.70690   0.01267  Uiso   1.00
C7     C     0.87130   0.52210   0.79840   0.01267  Uiso   1.00
C8     C     0.84790   0.44330   0.86080   0.01267  Uiso   1.00
C9     C     0.71960   0.09690   0.15260   0.01267  Uiso   1.00
C10    C     0.87000   0.39790   0.16500   0.01267  Uiso   1.00
C11    C     0.39760   0.10430   0.65180   0.01267  Uiso   1.00
C12    C     0.28040   0.90310   0.84740   0.01267  Uiso   1.00
C13    C     0.12760   0.76300   0.41030   0.01267  Uiso   1.00
C14    C     0.08280   0.86000   0.39710   0.01267  Uiso   1.00
C15    C     0.66650   0.61400   0.55740   0.01267  Uiso   1.00
C16    C     0.96150   0.58320   0.31910   0.01267  Uiso   1.00
C17    C     0.15210   0.55670   0.13920   0.01267  Uiso   1.00
C18    C     0.19210   0.25760   0.42670   0.01267  Uiso   1.00
C19    C     0.07330   0.04460   0.10680   0.01267  Uiso   1.00
C20    C     0.14910   0.35300   0.40880   0.01267  Uiso   1.00
C21    C     0.96040   0.09040   0.29660   0.01267  Uiso   1.00
C22    C     0.39410   0.40760   0.65690   0.01267  Uiso   1.00
C23    C     0.03660   0.97250   0.17410   0.01267  Uiso   1.00
C24    C     0.03420   0.49390   0.29310   0.01267  Uiso   1.00
C25    C     0.03850   0.41680   0.68090   0.01267  Uiso   1.00
C26    C     0.79280   0.59060   0.15150   0.01267  Uiso   1.00
C27    C     0.20720   0.40940   0.84850   0.01267  Uiso   1.00
C28    C     0.76080   0.26630   0.56290   0.01267  Uiso   1.00
C29    C     0.28540   0.09490   0.85330   0.01267  Uiso   1.00
C30    C     0.80790   0.74240   0.57330   0.01267  Uiso   1.00
C31    C     0.23920   0.73370   0.43710   0.01267  Uiso   1.00
C32    C     0.96340   0.02750   0.82590   0.01267  Uiso   1.00
C33    C     0.87240   0.23700   0.58970   0.01267  Uiso   1.00
C34    C     0.32870   0.60720   0.64680   0.01267  Uiso   1.00
C35    C     0.73400   0.11210   0.56110   0.01267  Uiso   1.00
C36    C     0.62060   0.09230   0.35490   0.01267  Uiso   1.00
C37    C     0.97970   0.99700   0.27210   0.01267  Uiso   1.00
C38    C     0.13000   0.60210   0.83500   0.01267  Uiso   1.00
C39    C     0.60240   0.89570   0.34820   0.01267  Uiso   1.00
C40    C     0.12870   0.47790   0.20160   0.01267  Uiso   1.00
C41    C     0.02030   0.00300   0.72790   0.01267  Uiso   1.00
C42    C     0.91720   0.14000   0.60290   0.01267  Uiso   1.00
C43    C     0.71460   0.90510   0.14670   0.01267  Uiso   1.00
C44    C     0.30300   0.23140   0.45400   0.01267  Uiso   1.00
C45    C     0.69700   0.76860   0.54600   0.01267  Uiso   1.00
C46    C     0.00910   0.34400   0.74910   0.01267  Uiso   1.00
C47    C     0.84510   0.07720   0.58750   0.01267  Uiso   1.00
C48    C     0.99090   0.65600   0.25090   0.01267  Uiso   1.00
C49    C     0.60590   0.59240   0.34310   0.01267  Uiso   1.00
C50    C     0.99960   0.84340   0.77630   0.01267  Uiso   1.00
C51    C     0.67130   0.39280   0.35320   0.01267  Uiso   1.00
C52    C     0.85090   0.64700   0.59120   0.01267  Uiso   1.00
C53    C     0.37940   0.90770   0.64510   0.01267  Uiso   1.00
C54    C     0.26600   0.88790   0.43890   0.01267  Uiso   1.00
C55    C     0.92670   0.95540   0.89320   0.01267  Uiso   1.00
C56    C     0.77610   0.58240   0.58450   0.01267  Uiso   1.00
S1     S     0.01123   0.61252   0.62202   0.01267  Uiso   1.00
S2     S     0.98877   0.38748   0.37798   0.01267  Uiso   1.00
S3     S     0.92290   0.89968   0.36722   0.01267  Uiso   1.00
S4     S     0.07710   0.10032   0.63278   0.01267  Uiso   1.00
N1     N     0.40500   0.84860   0.58970   0.01267  Uiso   1.00
N2     N     0.44100   0.16250   0.59880   0.01267  Uiso   1.00
N3     N     0.08390   0.64370   0.16390   0.01267  Uiso   1.00
N4     N     0.45980   0.35000   0.60170   0.01267  Uiso   1.00
N5     N     0.62740   0.33820   0.41060   0.01267  Uiso   1.00
N6     N     0.25060   0.84620   0.90640   0.01267  Uiso   1.00
N7     N     0.95360   0.34700   0.11400   0.01267  Uiso   1.00
N8     N     0.74940   0.15380   0.09360   0.01267  Uiso   1.00
N9     N     0.94290   0.86450   0.87030   0.01267  Uiso   1.00
N10    N     0.54020   0.65000   0.39830   0.01267  Uiso   1.00
N11    N     0.37500   0.29420   0.46320   0.01267  Uiso   1.00
N12    N     0.69070   0.20490   0.54790   0.01267  Uiso   1.00
N13    N     0.16950   0.35660   0.90890   0.01267  Uiso   1.00
N14    N     0.91610   0.35630   0.83610   0.01267  Uiso   1.00
N15    N     0.83050   0.64340   0.09110   0.01267  Uiso   1.00
N16    N     0.75050   0.85440   0.08330   0.01267  Uiso   1.00
N17    N     0.62500   0.70580   0.53680   0.01267  Uiso   1.00
N18    N     0.55900   0.83750   0.40120   0.01267  Uiso   1.00
N19    N     0.59500   0.15140   0.41030   0.01267  Uiso   1.00
N20    N     0.37260   0.66180   0.58940   0.01267  Uiso   1.00
N21    N     0.04640   0.65300   0.88600   0.01267  Uiso   1.00
N22    N     0.30930   0.79510   0.45210   0.01267  Uiso   1.00
N23    N     0.24950   0.14560   0.91670   0.01267  Uiso   1.00
N24    N     0.05710   0.13550   0.12970   0.01267  Uiso   1.00
O1     O     0.03230   0.78240   0.03870   0.01267  Uiso   1.00
O2     O     0.96770   0.21760   0.96130   0.01267  Uiso   1.00
O3     O     0.25700   0.27000   0.07290   0.01267  Uiso   1.00
O4     O     0.74300   0.73000   0.92710   0.01267  Uiso   1.00
