data_ic7025158-file001_freeONLY
_audit_creation_date              2015-08-19
_audit_creation_method            'Materials Studio'
_symmetry_space_group_name_H-M    'P1'
_symmetry_Int_Tables_number       1
_symmetry_cell_setting            triclinic
loop_
_symmetry_equiv_pos_as_xyz
  x,y,z
_cell_length_a                    9.0550
_cell_length_b                    9.0550
_cell_length_c                    14.4468
_cell_angle_alpha                 90.0000
_cell_angle_beta                  90.0000
_cell_angle_gamma                 120.0000
loop_
_atom_site_label
_atom_site_type_symbol
_atom_site_fract_x
_atom_site_fract_y
_atom_site_fract_z
_atom_site_U_iso_or_equiv
_atom_site_adp_type
_atom_site_occupancy
Si1    Si    0.66667   0.33334   0.20412   0.01267  Uiso   1.00
Si2    Si    0.66667   0.33334   0.60310   0.01267  Uiso   1.00
Si3    Si    0.33333   0.66666   0.10310   0.01267  Uiso   1.00
Si4    Si    0.33333   0.66666   0.70412   0.01267  Uiso   1.00
I1     I     0.66667   0.33334   0.40370   0.01267  Uiso   1.00
I2     I     0.40176   0.00001   0.15366   0.01267  Uiso   1.00
I3     I     0.40175   0.40176   0.65366   0.01267  Uiso   1.00
I4     I     0.33333   0.66666   0.90370   0.01267  Uiso   1.00
I5     I     0.59825   0.59824   0.15366   0.01267  Uiso   1.00
I6     I    -0.00001   0.40175   0.15366   0.01267  Uiso   1.00
I7     I     0.59824  -0.00001   0.65366   0.01267  Uiso   1.00
I8     I     0.00001   0.59825   0.65366   0.01267  Uiso   1.00
