data_ic7014034-file001_freeONLY
_audit_creation_date              2015-08-19
_audit_creation_method            'Materials Studio'
_symmetry_space_group_name_H-M    'P1'
_symmetry_Int_Tables_number       1
_symmetry_cell_setting            triclinic
loop_
_symmetry_equiv_pos_as_xyz
  x,y,z
_cell_length_a                    17.0474
_cell_length_b                    17.0474
_cell_length_c                    32.5880
_cell_angle_alpha                 94.1421
_cell_angle_beta                  94.1421
_cell_angle_gamma                 107.5550
loop_
_atom_site_label
_atom_site_type_symbol
_atom_site_fract_x
_atom_site_fract_y
_atom_site_fract_z
_atom_site_U_iso_or_equiv
_atom_site_adp_type
_atom_site_occupancy
Zn1    Zn    0.22035   0.24579   0.37570   0.01267  Uiso   1.00
Zn2    Zn    0.25312   0.23668   0.96701   0.01267  Uiso   1.00
Zn3    Zn    0.23668   0.25312   0.46701   0.01267  Uiso   1.00
Zn4    Zn    0.24579   0.22035   0.87570   0.01267  Uiso   1.00
H1     H     0.08680   0.22640   0.23170   0.01267  Uiso   1.00
H2     H     0.33410   0.25310   0.30980   0.01267  Uiso   1.00
H3     H     0.26240   0.49260   0.98090   0.01267  Uiso   1.00
H4     H     0.99110   0.24170   0.48200   0.01267  Uiso   1.00
H5     H     0.84120   0.17160   0.85220   0.01267  Uiso   1.00
H6     H     0.32080   0.24620   0.17400   0.01267  Uiso   1.00
H7     H     0.96020   0.23040   0.35710   0.01267  Uiso   1.00
H8     H     0.47950   0.29370   0.35910   0.01267  Uiso   1.00
H9     H     0.26680   0.15420   0.60530   0.01267  Uiso   1.00
H10    H     0.25630   0.72510   0.95920   0.01267  Uiso   1.00
H11    H     0.22390   0.49790   0.36930   0.01267  Uiso   1.00
H12    H     0.27400   0.74380   0.88180   0.01267  Uiso   1.00
H13    H     0.98350   0.18070   0.85580   0.01267  Uiso   1.00
H14    H     0.25090   0.33150   0.73950   0.01267  Uiso   1.00
H15    H     0.21730   0.99990   0.47940   0.01267  Uiso   1.00
H16    H     0.61470   0.30050   0.35680   0.01267  Uiso   1.00
H17    H     0.20870   0.36590   0.60750   0.01267  Uiso   1.00
H18    H     0.22200   0.63800   0.49730   0.01267  Uiso   1.00
H19    H     0.25520   0.62980   0.97660   0.01267  Uiso   1.00
H20    H     0.63800   0.22200   0.99730   0.01267  Uiso   1.00
H21    H     0.21720   0.86200   0.47580   0.01267  Uiso   1.00
H22    H     0.24070   0.50810   0.49440   0.01267  Uiso   1.00
H23    H     0.35930   0.20950   0.03690   0.01267  Uiso   1.00
H24    H     0.20660   0.62700   0.37240   0.01267  Uiso   1.00
H25    H     0.72510   0.25630   0.45920   0.01267  Uiso   1.00
H26    H     0.24070   0.82550   0.86090   0.01267  Uiso   1.00
H27    H     0.74380   0.27400   0.38180   0.01267  Uiso   1.00
H28    H     0.23040   0.96020   0.85710   0.01267  Uiso   1.00
H29    H     0.30050   0.61470   0.85680   0.01267  Uiso   1.00
H30    H     0.20950   0.35930   0.53690   0.01267  Uiso   1.00
H31    H     0.82550   0.24070   0.36090   0.01267  Uiso   1.00
H32    H     0.27520   0.15500   0.53550   0.01267  Uiso   1.00
H33    H     0.36590   0.20870   0.10750   0.01267  Uiso   1.00
H34    H     0.86170   0.25530   0.48650   0.01267  Uiso   1.00
H35    H     0.49260   0.26240   0.48090   0.01267  Uiso   1.00
H36    H     0.18070   0.98350   0.35580   0.01267  Uiso   1.00
H37    H     0.33150   0.25090   0.23950   0.01267  Uiso   1.00
H38    H     0.17160   0.84120   0.35220   0.01267  Uiso   1.00
H39    H     0.22450   0.09410   0.80280   0.01267  Uiso   1.00
H40    H     0.24170   0.99110   0.98200   0.01267  Uiso   1.00
H41    H     0.50810   0.24070   0.99440   0.01267  Uiso   1.00
H42    H     0.99990   0.21730   0.97940   0.01267  Uiso   1.00
H43    H     0.62980   0.25520   0.47660   0.01267  Uiso   1.00
H44    H     0.86200   0.21720   0.97580   0.01267  Uiso   1.00
H45    H     0.24620   0.32080   0.67400   0.01267  Uiso   1.00
H46    H     0.15300   0.23560   0.16790   0.01267  Uiso   1.00
H47    H     0.29370   0.47950   0.85910   0.01267  Uiso   1.00
H48    H     0.09410   0.22450   0.30280   0.01267  Uiso   1.00
H49    H     0.49790   0.22390   0.86930   0.01267  Uiso   1.00
H50    H     0.15420   0.26680   0.10530   0.01267  Uiso   1.00
H51    H     0.23560   0.15300   0.66790   0.01267  Uiso   1.00
H52    H     0.25530   0.86170   0.98650   0.01267  Uiso   1.00
H53    H     0.62700   0.20660   0.87240   0.01267  Uiso   1.00
H54    H     0.22640   0.08680   0.73170   0.01267  Uiso   1.00
H55    H     0.15500   0.27520   0.03550   0.01267  Uiso   1.00
H56    H     0.25310   0.33410   0.80980   0.01267  Uiso   1.00
C1     C     0.27025   0.38359   0.92060   0.01267  Uiso   1.00
C2     C     0.23325   0.53239   0.46959   0.01267  Uiso   1.00
C3     C     0.20968   0.88652   0.45113   0.01267  Uiso   1.00
C4     C     0.95774   0.24306   0.45760   0.01267  Uiso   1.00
C5     C     0.23174   0.13786   0.74715   0.01267  Uiso   1.00
C6     C     0.24681   0.28195   0.75205   0.01267  Uiso   1.00
C7     C     0.52635   0.22345   0.89542   0.01267  Uiso   1.00
C8     C     0.96848   0.20992   0.95338   0.01267  Uiso   1.00
C9     C     0.26405   0.59875   0.95297   0.01267  Uiso   1.00
C10    C     0.31742   0.22218   0.05127   0.01267  Uiso   1.00
C11    C     0.83213   0.24967   0.42440   0.01267  Uiso   1.00
C12    C     0.38359   0.27025   0.42060   0.01267  Uiso   1.00
C13    C     0.13786   0.23174   0.24715   0.01267  Uiso   1.00
C14    C     0.14306   0.23154   0.28939   0.01267  Uiso   1.00
C15    C     0.20615   0.09403   0.41990   0.01267  Uiso   1.00
C16    C     0.59875   0.26405   0.45297   0.01267  Uiso   1.00
C17    C     0.25007   0.88153   0.96023   0.01267  Uiso   1.00
C18    C     0.23154   0.14306   0.78939   0.01267  Uiso   1.00
C19    C     0.21356   0.60264   0.39716   0.01267  Uiso   1.00
C20    C     0.19885   0.84115   0.41363   0.01267  Uiso   1.00
C21    C     0.23772   0.98768   0.91901   0.01267  Uiso   1.00
C22    C     0.64514   0.21346   0.93540   0.01267  Uiso   1.00
C23    C     0.51040   0.28660   0.38325   0.01267  Uiso   1.00
C24    C     0.32217   0.22263   0.09316   0.01267  Uiso   1.00
C25    C     0.60264   0.21356   0.89716   0.01267  Uiso   1.00
C26    C     0.19717   0.25963   0.05031   0.01267  Uiso   1.00
C27    C     0.20992   0.96848   0.45338   0.01267  Uiso   1.00
C28    C     0.25782   0.19858   0.59171   0.01267  Uiso   1.00
C29    C     0.28908   0.58892   0.88154   0.01267  Uiso   1.00
C30    C     0.84115   0.19885   0.91363   0.01267  Uiso   1.00
C31    C     0.51665   0.26615   0.45544   0.01267  Uiso   1.00
C32    C     0.95850   0.18710   0.88047   0.01267  Uiso   1.00
C33    C     0.24010   0.21088   0.72737   0.01267  Uiso   1.00
C34    C     0.40447   0.24155   0.92880   0.01267  Uiso   1.00
C35    C     0.21346   0.64514   0.43540   0.01267  Uiso   1.00
C36    C     0.24155   0.40447   0.42880   0.01267  Uiso   1.00
C37    C     0.24182   0.85998   0.88537   0.01267  Uiso   1.00
C38    C     0.19858   0.25782   0.09171   0.01267  Uiso   1.00
C39    C     0.60931   0.22281   0.97130   0.01267  Uiso   1.00
C40    C     0.98768   0.23772   0.41901   0.01267  Uiso   1.00
C41    C     0.07322   0.23442   0.41681   0.01267  Uiso   1.00
C42    C     0.24325   0.26915   0.65986   0.01267  Uiso   1.00
C43    C     0.24306   0.95774   0.95760   0.01267  Uiso   1.00
C44    C     0.28660   0.51040   0.88325   0.01267  Uiso   1.00
C45    C     0.18710   0.95850   0.38047   0.01267  Uiso   1.00
C46    C     0.23285   0.48975   0.43105   0.01267  Uiso   1.00
C47    C     0.93967   0.23573   0.38312   0.01267  Uiso   1.00
C48    C     0.22281   0.60931   0.47130   0.01267  Uiso   1.00
C49    C     0.26329   0.24331   0.11488   0.01267  Uiso   1.00
C50    C     0.24770   0.28350   0.79388   0.01267  Uiso   1.00
C51    C     0.26915   0.24325   0.15986   0.01267  Uiso   1.00
C52    C     0.28350   0.24770   0.29388   0.01267  Uiso   1.00
C53    C     0.58892   0.28908   0.38154   0.01267  Uiso   1.00
C54    C     0.47300   0.27402   0.41933   0.01267  Uiso   1.00
C55    C     0.27474   0.63266   0.91639   0.01267  Uiso   1.00
C56    C     0.88153   0.25007   0.46023   0.01267  Uiso   1.00
C57    C     0.22345   0.52635   0.39542   0.01267  Uiso   1.00
C58    C     0.22263   0.32217   0.59316   0.01267  Uiso   1.00
C59    C     0.87412   0.18388   0.87806   0.01267  Uiso   1.00
C60    C     0.26615   0.51665   0.95544   0.01267  Uiso   1.00
C61    C     0.23442   0.07322   0.91681   0.01267  Uiso   1.00
C62    C     0.21088   0.24010   0.22737   0.01267  Uiso   1.00
C63    C     0.23918   0.20482   0.68212   0.01267  Uiso   1.00
C64    C     0.23573   0.93967   0.88312   0.01267  Uiso   1.00
C65    C     0.25963   0.19717   0.55031   0.01267  Uiso   1.00
C66    C     0.24967   0.83213   0.92440   0.01267  Uiso   1.00
C67    C     0.24331   0.26329   0.61488   0.01267  Uiso   1.00
C68    C     0.48975   0.23285   0.93105   0.01267  Uiso   1.00
C69    C     0.53239   0.23325   0.96959   0.01267  Uiso   1.00
C70    C     0.28195   0.24681   0.25205   0.01267  Uiso   1.00
C71    C     0.88652   0.20968   0.95113   0.01267  Uiso   1.00
C72    C     0.85998   0.24182   0.38537   0.01267  Uiso   1.00
C73    C     0.18388   0.87412   0.37806   0.01267  Uiso   1.00
C74    C     0.00340   0.19918   0.91747   0.01267  Uiso   1.00
C75    C     0.27402   0.47300   0.91933   0.01267  Uiso   1.00
C76    C     0.63266   0.27474   0.41639   0.01267  Uiso   1.00
C77    C     0.22218   0.31742   0.55127   0.01267  Uiso   1.00
C78    C     0.20482   0.23918   0.18212   0.01267  Uiso   1.00
C79    C     0.09403   0.20615   0.91990   0.01267  Uiso   1.00
C80    C     0.19918   0.00340   0.41747   0.01267  Uiso   1.00
N1     N     0.75839   0.20011   0.90808   0.01267  Uiso   1.00
N2     N     0.74666   0.25894   0.43538   0.01267  Uiso   1.00
N3     N     0.24113   0.21591   0.81298   0.01267  Uiso   1.00
N4     N     0.72164   0.26956   0.40539   0.01267  Uiso   1.00
N5     N     0.25894   0.74666   0.93538   0.01267  Uiso   1.00
N6     N     0.23909   0.25607   0.52970   0.01267  Uiso   1.00
N7     N     0.72778   0.20742   0.94112   0.01267  Uiso   1.00
N8     N     0.20742   0.72778   0.44112   0.01267  Uiso   1.00
N9     N     0.21591   0.24113   0.31298   0.01267  Uiso   1.00
N10    N     0.25607   0.23909   0.02970   0.01267  Uiso   1.00
N11    N     0.26956   0.72164   0.90539   0.01267  Uiso   1.00
N12    N     0.20011   0.75839   0.40808   0.01267  Uiso   1.00
O1     O     0.34301   0.26745   0.38620   0.01267  Uiso   1.00
O2     O     0.37637   0.25453   0.96214   0.01267  Uiso   1.00
O3     O     0.22626   0.09838   0.88222   0.01267  Uiso   1.00
O4     O     0.36712   0.23506   0.89397   0.01267  Uiso   1.00
O5     O     0.11620   0.24016   0.45063   0.01267  Uiso   1.00
O6     O     0.24016   0.11620   0.95063   0.01267  Uiso   1.00
O7     O     0.35617   0.26961   0.45512   0.01267  Uiso   1.00
O8     O     0.21620   0.13182   0.45514   0.01267  Uiso   1.00
O9     O     0.23506   0.36712   0.39397   0.01267  Uiso   1.00
O10    O     0.13182   0.21620   0.95514   0.01267  Uiso   1.00
O11    O     0.20612   0.12684   0.38601   0.01267  Uiso   1.00
O12    O     0.25453   0.37637   0.46214   0.01267  Uiso   1.00
O13    O     0.26961   0.35617   0.95512   0.01267  Uiso   1.00
O14    O     0.09838   0.22626   0.38222   0.01267  Uiso   1.00
O15    O     0.26745   0.34301   0.88620   0.01267  Uiso   1.00
O16    O     0.12684   0.20612   0.88601   0.01267  Uiso   1.00
Zn5    Zn    0.76332   0.74688   0.53299   0.01267  Uiso   1.00
Zn6    Zn    0.75421   0.77965   0.12430   0.01267  Uiso   1.00
Zn7    Zn    0.77965   0.75421   0.62430   0.01267  Uiso   1.00
Zn8    Zn    0.74688   0.76332   0.03299   0.01267  Uiso   1.00
H57    H     0.76960   0.03980   0.14290   0.01267  Uiso   1.00
H58    H     0.01650   0.81930   0.14420   0.01267  Uiso   1.00
H59    H     0.74690   0.66590   0.19020   0.01267  Uiso   1.00
H60    H     0.79340   0.37300   0.62760   0.01267  Uiso   1.00
H61    H     0.73320   0.84580   0.39470   0.01267  Uiso   1.00
H62    H     0.75930   0.17450   0.13910   0.01267  Uiso   1.00
H63    H     0.84700   0.76440   0.83210   0.01267  Uiso   1.00
H64    H     0.90590   0.77550   0.69720   0.01267  Uiso   1.00
H65    H     0.37020   0.74480   0.52340   0.01267  Uiso   1.00
H66    H     0.72480   0.84500   0.46450   0.01267  Uiso   1.00
H67    H     0.03980   0.76960   0.64290   0.01267  Uiso   1.00
H68    H     0.36200   0.77800   0.00270   0.01267  Uiso   1.00
H69    H     0.84580   0.73320   0.89470   0.01267  Uiso   1.00
H70    H     0.77610   0.50210   0.63070   0.01267  Uiso   1.00
H71    H     0.67920   0.75380   0.82600   0.01267  Uiso   1.00
H72    H     0.91320   0.77360   0.76830   0.01267  Uiso   1.00
H73    H     0.77550   0.90590   0.19720   0.01267  Uiso   1.00
H74    H     0.74470   0.13830   0.01350   0.01267  Uiso   1.00
H75    H     0.76440   0.84700   0.33210   0.01267  Uiso   1.00
H76    H     0.27490   0.74370   0.54080   0.01267  Uiso   1.00
H77    H     0.79130   0.63410   0.39250   0.01267  Uiso   1.00
H78    H     0.82840   0.15880   0.64780   0.01267  Uiso   1.00
H79    H     0.17450   0.75930   0.63910   0.01267  Uiso   1.00
H80    H     0.74480   0.37020   0.02340   0.01267  Uiso   1.00
H81    H     0.78280   0.13800   0.52420   0.01267  Uiso   1.00
H82    H     0.75830   0.00890   0.01800   0.01267  Uiso   1.00
H83    H     0.15880   0.82840   0.14780   0.01267  Uiso   1.00
H84    H     0.00890   0.75830   0.51800   0.01267  Uiso   1.00
H85    H     0.81930   0.01650   0.64420   0.01267  Uiso   1.00
H86    H     0.78270   0.00010   0.52060   0.01267  Uiso   1.00
H87    H     0.64070   0.79050   0.96310   0.01267  Uiso   1.00
H88    H     0.13830   0.74470   0.51350   0.01267  Uiso   1.00
H89    H     0.66590   0.74690   0.69020   0.01267  Uiso   1.00
H90    H     0.77360   0.91320   0.26830   0.01267  Uiso   1.00
H91    H     0.66850   0.74910   0.76050   0.01267  Uiso   1.00
H92    H     0.63410   0.79130   0.89250   0.01267  Uiso   1.00
H93    H     0.79050   0.64070   0.46310   0.01267  Uiso   1.00
H94    H     0.69950   0.38530   0.14320   0.01267  Uiso   1.00
H95    H     0.72600   0.25620   0.11820   0.01267  Uiso   1.00
H96    H     0.00010   0.78270   0.02060   0.01267  Uiso   1.00
H97    H     0.13800   0.78280   0.02420   0.01267  Uiso   1.00
H98    H     0.77800   0.36200   0.50270   0.01267  Uiso   1.00
H99    H     0.84500   0.72480   0.96450   0.01267  Uiso   1.00
H100   H     0.75380   0.67920   0.32600   0.01267  Uiso   1.00
H101   H     0.70630   0.52050   0.14090   0.01267  Uiso   1.00
H102   H     0.25620   0.72600   0.61820   0.01267  Uiso   1.00
H103   H     0.38530   0.69950   0.64320   0.01267  Uiso   1.00
H104   H     0.37300   0.79340   0.12760   0.01267  Uiso   1.00
H105   H     0.50740   0.73760   0.51910   0.01267  Uiso   1.00
H106   H     0.75930   0.49190   0.50560   0.01267  Uiso   1.00
H107   H     0.73760   0.50740   0.01910   0.01267  Uiso   1.00
H108   H     0.49190   0.75930   0.00560   0.01267  Uiso   1.00
H109   H     0.74370   0.27490   0.04080   0.01267  Uiso   1.00
H110   H     0.52050   0.70630   0.64090   0.01267  Uiso   1.00
H111   H     0.50210   0.77610   0.13070   0.01267  Uiso   1.00
H112   H     0.74910   0.66850   0.26050   0.01267  Uiso   1.00
C81    C     0.75675   0.73085   0.34014   0.01267  Uiso   1.00
C82    C     0.36734   0.72526   0.58361   0.01267  Uiso   1.00
C83    C     0.99660   0.80082   0.08253   0.01267  Uiso   1.00
C84    C     0.75230   0.71650   0.20612   0.01267  Uiso   1.00
C85    C     0.76228   0.01232   0.08099   0.01267  Uiso   1.00
C86    C     0.76846   0.85694   0.21061   0.01267  Uiso   1.00
C87    C     0.76558   0.92678   0.08319   0.01267  Uiso   1.00
C88    C     0.04150   0.81290   0.11953   0.01267  Uiso   1.00
C89    C     0.75033   0.16787   0.07560   0.01267  Uiso   1.00
C90    C     0.76675   0.46761   0.53041   0.01267  Uiso   1.00
C91    C     0.35486   0.78654   0.06460   0.01267  Uiso   1.00
C92    C     0.74993   0.11847   0.03977   0.01267  Uiso   1.00
C93    C     0.80115   0.15885   0.58637   0.01267  Uiso   1.00
C94    C     0.04226   0.75694   0.54240   0.01267  Uiso   1.00
C95    C     0.06033   0.76427   0.61688   0.01267  Uiso   1.00
C96    C     0.86214   0.76826   0.75285   0.01267  Uiso   1.00
C97    C     0.76826   0.86214   0.25285   0.01267  Uiso   1.00
C98    C     0.75694   0.04226   0.04240   0.01267  Uiso   1.00
C99    C     0.47365   0.77655   0.10458   0.01267  Uiso   1.00
C100   C     0.80082   0.99660   0.58253   0.01267  Uiso   1.00
C101   C     0.79518   0.76082   0.81788   0.01267  Uiso   1.00
C102   C     0.03152   0.79008   0.04662   0.01267  Uiso   1.00
C103   C     0.72598   0.52700   0.08067   0.01267  Uiso   1.00
C104   C     0.78654   0.35486   0.56460   0.01267  Uiso   1.00
C105   C     0.71092   0.41108   0.11846   0.01267  Uiso   1.00
C106   C     0.73671   0.75669   0.88512   0.01267  Uiso   1.00
C107   C     0.80283   0.74037   0.94969   0.01267  Uiso   1.00
C108   C     0.68258   0.77782   0.94873   0.01267  Uiso   1.00
C109   C     0.75319   0.71805   0.24795   0.01267  Uiso   1.00
C110   C     0.77655   0.47365   0.60458   0.01267  Uiso   1.00
C111   C     0.12588   0.81612   0.12194   0.01267  Uiso   1.00
C112   C     0.15885   0.80115   0.08637   0.01267  Uiso   1.00
C113   C     0.79008   0.03152   0.54662   0.01267  Uiso   1.00
C114   C     0.76427   0.06033   0.11688   0.01267  Uiso   1.00
C115   C     0.51025   0.76715   0.06895   0.01267  Uiso   1.00
C116   C     0.72526   0.36734   0.08361   0.01267  Uiso   1.00
C117   C     0.73385   0.48335   0.04456   0.01267  Uiso   1.00
C118   C     0.71340   0.48960   0.11675   0.01267  Uiso   1.00
C119   C     0.76715   0.51025   0.56895   0.01267  Uiso   1.00
C120   C     0.81290   0.04150   0.61953   0.01267  Uiso   1.00
C121   C     0.16787   0.75033   0.57560   0.01267  Uiso   1.00
C122   C     0.41108   0.71092   0.61846   0.01267  Uiso   1.00
C123   C     0.79385   0.90597   0.58010   0.01267  Uiso   1.00
C124   C     0.48960   0.71340   0.61675   0.01267  Uiso   1.00
C125   C     0.11348   0.79032   0.04887   0.01267  Uiso   1.00
C126   C     0.46761   0.76675   0.03041   0.01267  Uiso   1.00
C127   C     0.77737   0.67783   0.40684   0.01267  Uiso   1.00
C128   C     0.85694   0.76846   0.71061   0.01267  Uiso   1.00
C129   C     0.90597   0.79385   0.08010   0.01267  Uiso   1.00
C130   C     0.80142   0.74218   0.90829   0.01267  Uiso   1.00
C131   C     0.59553   0.75845   0.07120   0.01267  Uiso   1.00
C132   C     0.75818   0.14002   0.11463   0.01267  Uiso   1.00
C133   C     0.01232   0.76228   0.58099   0.01267  Uiso   1.00
C134   C     0.92678   0.76558   0.58319   0.01267  Uiso   1.00
C135   C     0.77719   0.39069   0.52870   0.01267  Uiso   1.00
C136   C     0.67783   0.77737   0.90684   0.01267  Uiso   1.00
C137   C     0.40125   0.73595   0.54703   0.01267  Uiso   1.00
C138   C     0.73085   0.75675   0.84014   0.01267  Uiso   1.00
C139   C     0.48335   0.73385   0.54456   0.01267  Uiso   1.00
C140   C     0.73595   0.40125   0.04703   0.01267  Uiso   1.00
C141   C     0.81612   0.12588   0.62194   0.01267  Uiso   1.00
C142   C     0.71650   0.75230   0.70612   0.01267  Uiso   1.00
C143   C     0.77782   0.68258   0.44873   0.01267  Uiso   1.00
C144   C     0.74037   0.80283   0.44969   0.01267  Uiso   1.00
C145   C     0.78644   0.39736   0.60284   0.01267  Uiso   1.00
C146   C     0.71805   0.75319   0.74795   0.01267  Uiso   1.00
C147   C     0.72975   0.61641   0.07940   0.01267  Uiso   1.00
C148   C     0.39736   0.78644   0.10284   0.01267  Uiso   1.00
C149   C     0.52700   0.72598   0.58067   0.01267  Uiso   1.00
C150   C     0.61641   0.72975   0.57940   0.01267  Uiso   1.00
C151   C     0.75669   0.73671   0.38512   0.01267  Uiso   1.00
C152   C     0.78912   0.75990   0.77263   0.01267  Uiso   1.00
C153   C     0.74218   0.80142   0.40829   0.01267  Uiso   1.00
C154   C     0.75845   0.59553   0.57120   0.01267  Uiso   1.00
C155   C     0.11847   0.74993   0.53977   0.01267  Uiso   1.00
C156   C     0.76082   0.79518   0.31788   0.01267  Uiso   1.00
C157   C     0.14002   0.75818   0.61463   0.01267  Uiso   1.00
C158   C     0.39069   0.77719   0.02870   0.01267  Uiso   1.00
C159   C     0.79032   0.11348   0.54887   0.01267  Uiso   1.00
C160   C     0.75990   0.78912   0.27263   0.01267  Uiso   1.00
N13    N     0.79258   0.27222   0.55888   0.01267  Uiso   1.00
N14    N     0.78409   0.75887   0.68702   0.01267  Uiso   1.00
N15    N     0.79989   0.24161   0.59192   0.01267  Uiso   1.00
N16    N     0.24161   0.79989   0.09192   0.01267  Uiso   1.00
N17    N     0.73044   0.27836   0.09461   0.01267  Uiso   1.00
N18    N     0.75887   0.78409   0.18702   0.01267  Uiso   1.00
N19    N     0.76091   0.74393   0.47030   0.01267  Uiso   1.00
N20    N     0.25334   0.74106   0.56462   0.01267  Uiso   1.00
N21    N     0.74106   0.25334   0.06462   0.01267  Uiso   1.00
N22    N     0.27222   0.79258   0.05888   0.01267  Uiso   1.00
N23    N     0.74393   0.76091   0.97030   0.01267  Uiso   1.00
N24    N     0.27836   0.73044   0.59461   0.01267  Uiso   1.00
O17    O     0.76494   0.63288   0.60603   0.01267  Uiso   1.00
O18    O     0.74547   0.62363   0.53786   0.01267  Uiso   1.00
O19    O     0.64383   0.73039   0.54488   0.01267  Uiso   1.00
O20    O     0.90162   0.77374   0.61778   0.01267  Uiso   1.00
O21    O     0.73039   0.64383   0.04488   0.01267  Uiso   1.00
O22    O     0.86818   0.78380   0.04486   0.01267  Uiso   1.00
O23    O     0.63288   0.76494   0.10603   0.01267  Uiso   1.00
O24    O     0.65699   0.73255   0.61380   0.01267  Uiso   1.00
O25    O     0.77374   0.90162   0.11778   0.01267  Uiso   1.00
O26    O     0.75984   0.88380   0.04937   0.01267  Uiso   1.00
O27    O     0.62363   0.74547   0.03786   0.01267  Uiso   1.00
O28    O     0.78380   0.86818   0.54486   0.01267  Uiso   1.00
O29    O     0.79388   0.87316   0.61399   0.01267  Uiso   1.00
O30    O     0.88380   0.75984   0.54937   0.01267  Uiso   1.00
O31    O     0.87316   0.79388   0.11399   0.01267  Uiso   1.00
O32    O     0.73255   0.65699   0.11380   0.01267  Uiso   1.00
Zn9    Zn    0.46847   0.52217   0.70365   0.01267  Uiso   1.00
Zn10   Zn    0.52217   0.46847   0.20365   0.01267  Uiso   1.00
Zn11   Zn    0.53153   0.47783   0.29635   0.01267  Uiso   1.00
Zn12   Zn    0.47783   0.53153   0.79635   0.01267  Uiso   1.00
H113   H     0.55030   0.73670   0.31510   0.01267  Uiso   1.00
H114   H     0.52430   0.22230   0.29900   0.01267  Uiso   1.00
H115   H     0.34800   0.48600   0.55900   0.01267  Uiso   1.00
H116   H     0.90940   0.46400   0.20450   0.01267  Uiso   1.00
H117   H     0.51400   0.65200   0.94100   0.01267  Uiso   1.00
H118   H     0.91810   0.48110   0.32830   0.01267  Uiso   1.00
H119   H     0.08190   0.51890   0.67170   0.01267  Uiso   1.00
H120   H     0.47570   0.77770   0.70100   0.01267  Uiso   1.00
H121   H     0.26330   0.44970   0.18490   0.01267  Uiso   1.00
H122   H     0.50740   0.21280   0.17620   0.01267  Uiso   1.00
H123   H     0.86850   0.54390   0.81750   0.01267  Uiso   1.00
H124   H     0.40620   0.46780   0.43040   0.01267  Uiso   1.00
H125   H     0.44970   0.26330   0.68490   0.01267  Uiso   1.00
H126   H     0.51890   0.08190   0.17170   0.01267  Uiso   1.00
H127   H     0.46400   0.90940   0.70450   0.01267  Uiso   1.00
H128   H     0.86460   0.55720   0.69440   0.01267  Uiso   1.00
H129   H     0.64870   0.49630   0.37140   0.01267  Uiso   1.00
H130   H     0.65200   0.51400   0.44100   0.01267  Uiso   1.00
H131   H     0.50370   0.35130   0.12860   0.01267  Uiso   1.00
H132   H     0.54390   0.86850   0.31750   0.01267  Uiso   1.00
H133   H     0.27060   0.44140   0.30830   0.01267  Uiso   1.00
H134   H     0.35130   0.50370   0.62860   0.01267  Uiso   1.00
H135   H     0.48110   0.91810   0.82830   0.01267  Uiso   1.00
H136   H     0.41080   0.46300   0.35900   0.01267  Uiso   1.00
H137   H     0.13540   0.44280   0.30560   0.01267  Uiso   1.00
H138   H     0.53220   0.59380   0.06960   0.01267  Uiso   1.00
H139   H     0.77770   0.47570   0.20100   0.01267  Uiso   1.00
H140   H     0.72940   0.55860   0.69170   0.01267  Uiso   1.00
H141   H     0.55860   0.72940   0.19170   0.01267  Uiso   1.00
H142   H     0.73670   0.55030   0.81510   0.01267  Uiso   1.00
H143   H     0.13150   0.45610   0.18250   0.01267  Uiso   1.00
H144   H     0.55720   0.86460   0.19440   0.01267  Uiso   1.00
H145   H     0.58920   0.53700   0.64100   0.01267  Uiso   1.00
H146   H     0.53600   0.09060   0.29550   0.01267  Uiso   1.00
H147   H     0.21280   0.50740   0.67620   0.01267  Uiso   1.00
H148   H     0.48600   0.34800   0.05900   0.01267  Uiso   1.00
H149   H     0.78720   0.49260   0.32380   0.01267  Uiso   1.00
H150   H     0.45610   0.13150   0.68250   0.01267  Uiso   1.00
H151   H     0.53700   0.58920   0.14100   0.01267  Uiso   1.00
H152   H     0.46300   0.41080   0.85900   0.01267  Uiso   1.00
H153   H     0.46780   0.40620   0.93040   0.01267  Uiso   1.00
H154   H     0.44280   0.13540   0.80560   0.01267  Uiso   1.00
H155   H     0.44140   0.27060   0.80830   0.01267  Uiso   1.00
H156   H     0.49260   0.78720   0.82380   0.01267  Uiso   1.00
H157   H     0.22230   0.52430   0.79900   0.01267  Uiso   1.00
H158   H     0.59380   0.53220   0.56960   0.01267  Uiso   1.00
H159   H     0.09060   0.53600   0.79550   0.01267  Uiso   1.00
H160   H     0.49630   0.64870   0.87140   0.01267  Uiso   1.00
C161   C     0.23803   0.45035   0.20988   0.01267  Uiso   1.00
C162   C     0.45035   0.23803   0.70988   0.01267  Uiso   1.00
C163   C     0.23159   0.51465   0.73780   0.01267  Uiso   1.00
C164   C     0.51324   0.18796   0.20092   0.01267  Uiso   1.00
C165   C     0.50618   0.40134   0.11683   0.01267  Uiso   1.00
C166   C     0.47177   0.92723   0.76681   0.01267  Uiso   1.00
C167   C     0.75758   0.55524   0.71746   0.01267  Uiso   1.00
C168   C     0.83764   0.55436   0.71899   0.01267  Uiso   1.00
C169   C     0.19367   0.52313   0.77274   0.01267  Uiso   1.00
C170   C     0.60032   0.50246   0.42496   0.01267  Uiso   1.00
C171   C     0.54965   0.76197   0.29012   0.01267  Uiso   1.00
C172   C     0.44865   0.28341   0.74687   0.01267  Uiso   1.00
C173   C     0.54933   0.87927   0.25603   0.01267  Uiso   1.00
C174   C     0.68263   0.48931   0.25978   0.01267  Uiso   1.00
C175   C     0.47687   0.80633   0.72726   0.01267  Uiso   1.00
C176   C     0.45756   0.47710   0.41900   0.01267  Uiso   1.00
C177   C     0.55135   0.71659   0.25313   0.01267  Uiso   1.00
C178   C     0.37190   0.45226   0.24792   0.01267  Uiso   1.00
C179   C     0.54244   0.52290   0.58100   0.01267  Uiso   1.00
C180   C     0.16236   0.44564   0.28101   0.01267  Uiso   1.00
C181   C     0.54722   0.84018   0.29179   0.01267  Uiso   1.00
C182   C     0.46088   0.47288   0.37626   0.01267  Uiso   1.00
C183   C     0.52823   0.07277   0.23319   0.01267  Uiso   1.00
C184   C     0.48003   0.88977   0.80193   0.01267  Uiso   1.00
C185   C     0.28341   0.44865   0.24687   0.01267  Uiso   1.00
C186   C     0.48931   0.68263   0.75978   0.01267  Uiso   1.00
C187   C     0.55436   0.83764   0.21899   0.01267  Uiso   1.00
C188   C     0.51465   0.23159   0.23780   0.01267  Uiso   1.00
C189   C     0.53912   0.52712   0.62374   0.01267  Uiso   1.00
C190   C     0.46834   0.50466   0.55507   0.01267  Uiso   1.00
C191   C     0.12073   0.45067   0.24397   0.01267  Uiso   1.00
C192   C     0.45226   0.37190   0.74792   0.01267  Uiso   1.00
C193   C     0.81204   0.48676   0.29908   0.01267  Uiso   1.00
C194   C     0.48676   0.81204   0.79908   0.01267  Uiso   1.00
C195   C     0.47710   0.45756   0.91900   0.01267  Uiso   1.00
C196   C     0.49540   0.46826   0.01015   0.01267  Uiso   1.00
C197   C     0.62810   0.54774   0.75208   0.01267  Uiso   1.00
C198   C     0.47000   0.88460   0.72924   0.01267  Uiso   1.00
C199   C     0.47288   0.46088   0.87626   0.01267  Uiso   1.00
C200   C     0.80633   0.47687   0.22726   0.01267  Uiso   1.00
C201   C     0.15982   0.45278   0.20821   0.01267  Uiso   1.00
C202   C     0.40134   0.50618   0.61683   0.01267  Uiso   1.00
C203   C     0.45278   0.15982   0.70821   0.01267  Uiso   1.00
C204   C     0.84018   0.54722   0.79179   0.01267  Uiso   1.00
C205   C     0.07277   0.52823   0.73319   0.01267  Uiso   1.00
C206   C     0.51997   0.11023   0.19807   0.01267  Uiso   1.00
C207   C     0.18796   0.51324   0.70092   0.01267  Uiso   1.00
C208   C     0.49382   0.59866   0.88317   0.01267  Uiso   1.00
C209   C     0.51069   0.31737   0.24022   0.01267  Uiso   1.00
C210   C     0.44564   0.16236   0.78101   0.01267  Uiso   1.00
C211   C     0.39968   0.49754   0.57504   0.01267  Uiso   1.00
C212   C     0.52290   0.54244   0.08100   0.01267  Uiso   1.00
C213   C     0.88460   0.47000   0.22924   0.01267  Uiso   1.00
C214   C     0.31737   0.51069   0.74022   0.01267  Uiso   1.00
C215   C     0.71659   0.55135   0.75313   0.01267  Uiso   1.00
C216   C     0.50460   0.53174   0.98985   0.01267  Uiso   1.00
C217   C     0.53000   0.11540   0.27076   0.01267  Uiso   1.00
C218   C     0.45067   0.12073   0.74397   0.01267  Uiso   1.00
C219   C     0.44476   0.24242   0.78254   0.01267  Uiso   1.00
C220   C     0.49754   0.39968   0.07504   0.01267  Uiso   1.00
C221   C     0.59866   0.49382   0.38317   0.01267  Uiso   1.00
C222   C     0.46826   0.49540   0.51015   0.01267  Uiso   1.00
C223   C     0.49534   0.53166   0.94493   0.01267  Uiso   1.00
C224   C     0.54774   0.62810   0.25208   0.01267  Uiso   1.00
C225   C     0.55524   0.75758   0.21746   0.01267  Uiso   1.00
C226   C     0.48535   0.76841   0.76220   0.01267  Uiso   1.00
C227   C     0.50466   0.46834   0.05507   0.01267  Uiso   1.00
C228   C     0.87927   0.54933   0.75603   0.01267  Uiso   1.00
C229   C     0.50246   0.60032   0.92496   0.01267  Uiso   1.00
C230   C     0.11023   0.51997   0.69807   0.01267  Uiso   1.00
C231   C     0.52712   0.53912   0.12374   0.01267  Uiso   1.00
C232   C     0.76197   0.54965   0.79012   0.01267  Uiso   1.00
C233   C     0.76841   0.48535   0.26220   0.01267  Uiso   1.00
C234   C     0.53174   0.50460   0.48985   0.01267  Uiso   1.00
C235   C     0.52313   0.19367   0.27274   0.01267  Uiso   1.00
C236   C     0.24242   0.44476   0.28254   0.01267  Uiso   1.00
C237   C     0.53166   0.49534   0.44493   0.01267  Uiso   1.00
C238   C     0.11540   0.53000   0.77076   0.01267  Uiso   1.00
C239   C     0.92723   0.47177   0.26681   0.01267  Uiso   1.00
C240   C     0.88977   0.48003   0.30193   0.01267  Uiso   1.00
N25    N     0.96248   0.54524   0.76041   0.01267  Uiso   1.00
N26    N     0.48215   0.53131   0.85813   0.01267  Uiso   1.00
N27    N     0.45476   0.03752   0.73959   0.01267  Uiso   1.00
N28    N     0.53428   0.99108   0.22802   0.01267  Uiso   1.00
N29    N     0.51785   0.46869   0.14187   0.01267  Uiso   1.00
N30    N     0.03752   0.45476   0.23959   0.01267  Uiso   1.00
N31    N     0.53131   0.48215   0.35813   0.01267  Uiso   1.00
N32    N     0.46869   0.51785   0.64187   0.01267  Uiso   1.00
N33    N     0.00892   0.46572   0.27198   0.01267  Uiso   1.00
N34    N     0.99108   0.53428   0.72802   0.01267  Uiso   1.00
N35    N     0.54524   0.96248   0.26041   0.01267  Uiso   1.00
N36    N     0.46572   0.00892   0.77198   0.01267  Uiso   1.00
O33    O     0.45691   0.40389   0.71552   0.01267  Uiso   1.00
O34    O     0.40389   0.45691   0.21552   0.01267  Uiso   1.00
O35    O     0.59611   0.54309   0.78448   0.01267  Uiso   1.00
O36    O     0.54309   0.59611   0.28448   0.01267  Uiso   1.00
O37    O     0.51974   0.35630   0.27592   0.01267  Uiso   1.00
O38    O     0.54931   0.59223   0.21662   0.01267  Uiso   1.00
O39    O     0.45069   0.40777   0.78338   0.01267  Uiso   1.00
O40    O     0.40777   0.45069   0.28338   0.01267  Uiso   1.00
O41    O     0.49947   0.65347   0.79317   0.01267  Uiso   1.00
O42    O     0.64370   0.48026   0.22408   0.01267  Uiso   1.00
O43    O     0.35630   0.51974   0.77592   0.01267  Uiso   1.00
O44    O     0.48026   0.64370   0.72408   0.01267  Uiso   1.00
O45    O     0.59223   0.54931   0.71662   0.01267  Uiso   1.00
O46    O     0.65347   0.49947   0.29317   0.01267  Uiso   1.00
O47    O     0.50053   0.34653   0.20683   0.01267  Uiso   1.00
O48    O     0.34653   0.50053   0.70683   0.01267  Uiso   1.00
