data_ic9002115_si_001_freeONLY
_audit_creation_date              2015-08-19
_audit_creation_method            'Materials Studio'
_symmetry_space_group_name_H-M    'P1'
_symmetry_Int_Tables_number       1
_symmetry_cell_setting            triclinic
loop_
_symmetry_equiv_pos_as_xyz
  x,y,z
_cell_length_a                    6.7464
_cell_length_b                    13.4972
_cell_length_c                    25.0235
_cell_angle_alpha                 105.3980
_cell_angle_beta                  90.0000
_cell_angle_gamma                 104.4730
loop_
_atom_site_label
_atom_site_type_symbol
_atom_site_fract_x
_atom_site_fract_y
_atom_site_fract_z
_atom_site_U_iso_or_equiv
_atom_site_adp_type
_atom_site_occupancy
Zn1    Zn    0.95058   0.13006   0.03424   0.01267  Uiso   1.00
Zn2    Zn    0.82052   0.86994   0.46576   0.01267  Uiso   1.00
Zn3    Zn    0.17948   0.13006   0.53424   0.01267  Uiso   1.00
Zn4    Zn    0.04942   0.86994   0.96576   0.01267  Uiso   1.00
H1     H     0.25700   0.73640   0.66350   0.01267  Uiso   1.00
H2     H     0.38170   0.79700   0.42230   0.01267  Uiso   1.00
H3     H     0.09930   0.47380   0.53950   0.01267  Uiso   1.00
H4     H     0.37450   0.47380   0.03950   0.01267  Uiso   1.00
H5     H     0.08740   0.67420   0.42740   0.01267  Uiso   1.00
H6     H     0.03760   0.11960   0.81360   0.01267  Uiso   1.00
H7     H     0.61830   0.20300   0.57770   0.01267  Uiso   1.00
H8     H     0.40290   0.79140   0.25380   0.01267  Uiso   1.00
H9     H     0.25870   0.03640   0.35470   0.01267  Uiso   1.00
H10    H     0.56600   0.78640   0.83070   0.01267  Uiso   1.00
H11    H     0.22380   0.13000   0.73760   0.01267  Uiso   1.00
H12    H     0.60760   0.42060   0.46660   0.01267  Uiso   1.00
H13    H     0.44490   0.99860   0.07960   0.01267  Uiso   1.00
H14    H     0.43400   0.21360   0.16930   0.01267  Uiso   1.00
H15    H     0.38850   0.79140   0.75380   0.01267  Uiso   1.00
H16    H     0.08200   0.11960   0.31360   0.01267  Uiso   1.00
H17    H     0.74130   0.96360   0.64530   0.01267  Uiso   1.00
H18    H     0.91260   0.32580   0.57260   0.01267  Uiso   1.00
H19    H     0.09380   0.87000   0.76240   0.01267  Uiso   1.00
H20    H     0.41530   0.79700   0.92230   0.01267  Uiso   1.00
H21    H     0.91800   0.88040   0.68640   0.01267  Uiso   1.00
H22    H     0.77770   0.03640   0.85470   0.01267  Uiso   1.00
H23    H     0.55370   0.99860   0.57960   0.01267  Uiso   1.00
H24    H     0.62550   0.52620   0.96050   0.01267  Uiso   1.00
H25    H     0.74300   0.26360   0.33650   0.01267  Uiso   1.00
H26    H     0.96240   0.88040   0.18640   0.01267  Uiso   1.00
H27    H     0.58470   0.20300   0.07770   0.01267  Uiso   1.00
H28    H     0.32080   0.29500   0.47460   0.01267  Uiso   1.00
H29    H     0.97420   0.29500   0.97460   0.01267  Uiso   1.00
H30    H     0.44630   0.00140   0.42040   0.01267  Uiso   1.00
H31    H     0.61150   0.20860   0.24620   0.01267  Uiso   1.00
H32    H     0.41320   0.32580   0.07260   0.01267  Uiso   1.00
H33    H     0.52060   0.26360   0.83650   0.01267  Uiso   1.00
H34    H     0.47940   0.73640   0.16350   0.01267  Uiso   1.00
H35    H     0.81300   0.42060   0.96660   0.01267  Uiso   1.00
H36    H     0.22040   0.78640   0.33070   0.01267  Uiso   1.00
H37    H     0.92940   0.23060   0.40400   0.01267  Uiso   1.00
H38    H     0.58680   0.67420   0.92740   0.01267  Uiso   1.00
H39    H     0.55510   0.00140   0.92040   0.01267  Uiso   1.00
H40    H     0.59710   0.20860   0.74620   0.01267  Uiso   1.00
H41    H     0.22230   0.96360   0.14530   0.01267  Uiso   1.00
H42    H     0.02580   0.70500   0.02540   0.01267  Uiso   1.00
H43    H     0.77960   0.21360   0.66930   0.01267  Uiso   1.00
H44    H     0.67920   0.70500   0.52540   0.01267  Uiso   1.00
H45    H     0.30120   0.23060   0.90400   0.01267  Uiso   1.00
H46    H     0.90070   0.52620   0.46050   0.01267  Uiso   1.00
H47    H     0.07060   0.76940   0.59600   0.01267  Uiso   1.00
H48    H     0.77620   0.87000   0.26240   0.01267  Uiso   1.00
H49    H     0.90620   0.13000   0.23760   0.01267  Uiso   1.00
H50    H     0.18700   0.57940   0.03340   0.01267  Uiso   1.00
H51    H     0.69880   0.76940   0.09600   0.01267  Uiso   1.00
H52    H     0.39240   0.57940   0.53340   0.01267  Uiso   1.00
C1     C     0.40022   0.11024   0.91811   0.01267  Uiso   1.00
C2     C     0.48139   0.46838   0.01640   0.01267  Uiso   1.00
C3     C     0.49279   0.94638   0.59672   0.01267  Uiso   1.00
C4     C     0.60542   0.81004   0.10676   0.01267  Uiso   1.00
C5     C     0.27772   0.80884   0.25554   0.01267  Uiso   1.00
C6     C     0.20668   0.67856   0.44746   0.01267  Uiso   1.00
C7     C     0.38689   0.62238   0.51018   0.01267  Uiso   1.00
C8     C     0.38381   0.75202   0.44460   0.01267  Uiso   1.00
C9     C     0.83484   0.08348   0.45843   0.01267  Uiso   1.00
C10    C     0.20462   0.81004   0.60676   0.01267  Uiso   1.00
C11    C     0.98699   0.46838   0.51640   0.01267  Uiso   1.00
C12    C     0.46888   0.19116   0.24446   0.01267  Uiso   1.00
C13    C     0.01301   0.53162   0.48360   0.01267  Uiso   1.00
C14    C     0.13946   0.69792   0.00519   0.01267  Uiso   1.00
C15    C     0.47188   0.67856   0.94746   0.01267  Uiso   1.00
C16    C     0.55846   0.69792   0.50519   0.01267  Uiso   1.00
C17    C     0.79396   0.16192   0.78830   0.01267  Uiso   1.00
C18    C     0.32163   0.92606   0.13651   0.01267  Uiso   1.00
C19    C     0.98031   0.82882   0.30520   0.01267  Uiso   1.00
C20    C     0.20604   0.83808   0.21170   0.01267  Uiso   1.00
C21    C     0.79518   0.38996   0.51948   0.01267  Uiso   1.00
C22    C     0.86054   0.30208   0.99481   0.01267  Uiso   1.00
C23    C     0.51685   0.85030   0.66408   0.01267  Uiso   1.00
C24    C     0.51861   0.53162   0.98360   0.01267  Uiso   1.00
C25    C     0.84851   0.82882   0.80520   0.01267  Uiso   1.00
C26    C     0.90416   0.85552   0.26112   0.01267  Uiso   1.00
C27    C     0.68356   0.20972   0.35269   0.01267  Uiso   1.00
C28    C     0.16746   0.80512   0.30158   0.01267  Uiso   1.00
C29    C     0.61311   0.37762   0.48982   0.01267  Uiso   1.00
C30    C     0.67837   0.07394   0.86349   0.01267  Uiso   1.00
C31    C     0.59478   0.38996   0.01948   0.01267  Uiso   1.00
C32    C     0.45359   0.94638   0.09672   0.01267  Uiso   1.00
C33    C     0.63204   0.83808   0.71170   0.01267  Uiso   1.00
C34    C     0.52616   0.20972   0.85269   0.01267  Uiso   1.00
C35    C     0.28998   0.88976   0.58189   0.01267  Uiso   1.00
C36    C     0.44154   0.30208   0.49481   0.01267  Uiso   1.00
C37    C     0.15149   0.17118   0.19480   0.01267  Uiso   1.00
C38    C     0.13417   0.16754   0.64310   0.01267  Uiso   1.00
C39    C     0.72228   0.19116   0.74446   0.01267  Uiso   1.00
C40    C     0.40522   0.61004   0.98052   0.01267  Uiso   1.00
C41    C     0.53112   0.80884   0.75554   0.01267  Uiso   1.00
C42    C     0.98469   0.13898   0.78470   0.01267  Uiso   1.00
C43    C     0.03337   0.16754   0.14310   0.01267  Uiso   1.00
C44    C     0.39458   0.18996   0.89324   0.01267  Uiso   1.00
C45    C     0.52812   0.32144   0.05254   0.01267  Uiso   1.00
C46    C     0.75136   0.91652   0.04157   0.01267  Uiso   1.00
C47    C     0.59978   0.88976   0.08189   0.01267  Uiso   1.00
C48    C     0.20482   0.61004   0.48052   0.01267  Uiso   1.00
C49    C     0.54641   0.05362   0.90328   0.01267  Uiso   1.00
C50    C     0.33345   0.85030   0.16408   0.01267  Uiso   1.00
C51    C     0.09584   0.14448   0.73888   0.01267  Uiso   1.00
C52    C     0.60443   0.92606   0.63651   0.01267  Uiso   1.00
C53    C     0.36234   0.19488   0.19842   0.01267  Uiso   1.00
C54    C     0.63179   0.24798   0.05540   0.01267  Uiso   1.00
C55    C     0.15429   0.13898   0.28470   0.01267  Uiso   1.00
C56    C     0.96663   0.83246   0.85690   0.01267  Uiso   1.00
C57    C     0.01969   0.17118   0.69480   0.01267  Uiso   1.00
C58    C     0.23549   0.62238   0.01018   0.01267  Uiso   1.00
C59    C     0.83254   0.19488   0.69842   0.01267  Uiso   1.00
C60    C     0.48315   0.14970   0.33592   0.01267  Uiso   1.00
C61    C     0.61619   0.24798   0.55540   0.01267  Uiso   1.00
C62    C     0.39557   0.07394   0.36349   0.01267  Uiso   1.00
C63    C     0.04864   0.14448   0.23888   0.01267  Uiso   1.00
C64    C     0.50721   0.05362   0.40328   0.01267  Uiso   1.00
C65    C     0.95136   0.85552   0.76112   0.01267  Uiso   1.00
C66    C     0.16516   0.91652   0.54157   0.01267  Uiso   1.00
C67    C     0.01531   0.86102   0.21530   0.01267  Uiso   1.00
C68    C     0.86583   0.83246   0.35690   0.01267  Uiso   1.00
C69    C     0.79538   0.18996   0.39324   0.01267  Uiso   1.00
C70    C     0.36796   0.16192   0.28830   0.01267  Uiso   1.00
C71    C     0.31644   0.79028   0.64731   0.01267  Uiso   1.00
C72    C     0.47384   0.79028   0.14731   0.01267  Uiso   1.00
C73    C     0.66655   0.14970   0.83592   0.01267  Uiso   1.00
C74    C     0.63766   0.80512   0.80158   0.01267  Uiso   1.00
C75    C     0.36821   0.75202   0.94460   0.01267  Uiso   1.00
C76    C     0.84571   0.86102   0.71530   0.01267  Uiso   1.00
C77    C     0.76451   0.37762   0.98982   0.01267  Uiso   1.00
C78    C     0.24864   0.08348   0.95843   0.01267  Uiso   1.00
C79    C     0.79332   0.32144   0.55254   0.01267  Uiso   1.00
C80    C     0.71002   0.11024   0.41811   0.01267  Uiso   1.00
N1     N     0.79793   0.23786   0.02760   0.01267  Uiso   1.00
N2     N     0.20207   0.76214   0.97240   0.01267  Uiso   1.00
N3     N     0.43993   0.23786   0.52760   0.01267  Uiso   1.00
N4     N     0.56007   0.76214   0.47240   0.01267  Uiso   1.00
O1     O     0.74838   0.99316   0.02194   0.01267  Uiso   1.00
O2     O     0.13326   0.16112   0.09941   0.01267  Uiso   1.00
O3     O     0.24478   0.99316   0.52194   0.01267  Uiso   1.00
O4     O     0.25162   0.00684   0.97806   0.01267  Uiso   1.00
O5     O     0.02786   0.16112   0.59941   0.01267  Uiso   1.00
O6     O     0.01644   0.14068   0.47166   0.01267  Uiso   1.00
O7     O     0.12424   0.14068   0.97166   0.01267  Uiso   1.00
O8     O     0.14774   0.83088   0.85589   0.01267  Uiso   1.00
O9     O     0.75522   0.00684   0.47806   0.01267  Uiso   1.00
O10    O     0.86674   0.83888   0.90059   0.01267  Uiso   1.00
O11    O     0.97214   0.83888   0.40059   0.01267  Uiso   1.00
O12    O     0.31686   0.16912   0.64411   0.01267  Uiso   1.00
O13    O     0.87576   0.85932   0.02834   0.01267  Uiso   1.00
O14    O     0.98356   0.85932   0.52834   0.01267  Uiso   1.00
O15    O     0.68314   0.83088   0.35589   0.01267  Uiso   1.00
O16    O     0.85226   0.16912   0.14411   0.01267  Uiso   1.00
