data_image0
_cell_length_a       15.2793
_cell_length_b       19.3066
_cell_length_c       20.7718
_cell_angle_alpha    90
_cell_angle_beta     99.01
_cell_angle_gamma    90

_symmetry_space_group_name_H-M    P 1
_symmetry_int_tables_number       1

loop_
  _symmetry_equiv_pos_as_xyz
  'x, y, z'

loop_
  _atom_site_label
  _atom_site_occupancy
  _atom_site_fract_x
  _atom_site_fract_y
  _atom_site_fract_z
  _atom_site_thermal_displace_type
  _atom_site_B_iso_or_equiv
  _atom_site_type_symbol
  Cu1      1.0000 0.67891  0.53711  0.76301  Biso   1.000  Cu
  Cu2      1.0000 0.54312  0.45931  0.83146  Biso   1.000  Cu
  Cu3      1.0000 0.67891  0.96289  0.26301  Biso   1.000  Cu
  Cu4      1.0000 0.54312  0.04069  0.33146  Biso   1.000  Cu
  H1       1.0000 0.63470  0.94170  0.11510  Biso   1.000  H
  H2       1.0000 0.64530  0.86180  0.03600  Biso   1.000  H
  H3       1.0000 0.69320  0.71800  0.17520  Biso   1.000  H
  H4       1.0000 0.70130  0.79970  0.24860  Biso   1.000  H
  H5       1.0000 0.65410  0.79350  0.96690  Biso   1.000  H
  H6       1.0000 0.65700  0.71430  0.88490  Biso   1.000  H
  H7       1.0000 0.64620  0.56350  0.00810  Biso   1.000  H
  H8       1.0000 0.67520  0.63960  0.10040  Biso   1.000  H
  H9       1.0000 0.84130  0.61560  0.80420  Biso   1.000  H
  H10      1.0000 0.99650  0.60610  0.82030  Biso   1.000  H
  H11      1.0000 0.96170  0.40870  0.76620  Biso   1.000  H
  H12      1.0000 0.81150  0.42360  0.75680  Biso   1.000  H
  H13      1.0000 0.12090  0.57670  0.86750  Biso   1.000  H
  H14      1.0000 0.27020  0.56600  0.88570  Biso   1.000  H
  H15      1.0000 0.25380  0.40340  0.76400  Biso   1.000  H
  H16      1.0000 0.09700  0.41420  0.74630  Biso   1.000  H
  H17      1.0000 0.55590  0.04600  0.47290  Biso   1.000  H
  H18      1.0000 0.57380  0.12280  0.55660  Biso   1.000  H
  H19      1.0000 0.56740  0.27560  0.42650  Biso   1.000  H
  H20      1.0000 0.55860  0.19430  0.34580  Biso   1.000  H
  H21      1.0000 0.53390  0.20440  0.62120  Biso   1.000  H
  H22      1.0000 0.55760  0.28100  0.70550  Biso   1.000  H
  H23      1.0000 0.66790  0.41170  0.59460  Biso   1.000  H
  H24      1.0000 0.64620  0.33270  0.50940  Biso   1.000  H
  H25      1.0000 0.63470  0.55830  0.61510  Biso   1.000  H
  H26      1.0000 0.64530  0.63820  0.53600  Biso   1.000  H
  H27      1.0000 0.69320  0.78200  0.67520  Biso   1.000  H
  H28      1.0000 0.70130  0.70030  0.74860  Biso   1.000  H
  H29      1.0000 0.65410  0.70650  0.46690  Biso   1.000  H
  H30      1.0000 0.65700  0.78570  0.38490  Biso   1.000  H
  H31      1.0000 0.64620  0.93650  0.50810  Biso   1.000  H
  H32      1.0000 0.67520  0.86040  0.60040  Biso   1.000  H
  H33      1.0000 0.84130  0.88440  0.30420  Biso   1.000  H
  H34      1.0000 0.99650  0.89390  0.32030  Biso   1.000  H
  H35      1.0000 0.96170  0.09130  0.26620  Biso   1.000  H
  H36      1.0000 0.81150  0.07640  0.25680  Biso   1.000  H
  H37      1.0000 0.12090  0.92330  0.36750  Biso   1.000  H
  H38      1.0000 0.27020  0.93400  0.38570  Biso   1.000  H
  H39      1.0000 0.25380  0.09660  0.26400  Biso   1.000  H
  H40      1.0000 0.09700  0.08580  0.24630  Biso   1.000  H
  H41      1.0000 0.55590  0.45400  0.97290  Biso   1.000  H
  H42      1.0000 0.57380  0.37720  0.05660  Biso   1.000  H
  H43      1.0000 0.56740  0.22440  0.92650  Biso   1.000  H
  H44      1.0000 0.55860  0.30570  0.84580  Biso   1.000  H
  H45      1.0000 0.53390  0.29560  0.12120  Biso   1.000  H
  H46      1.0000 0.55760  0.21900  0.20550  Biso   1.000  H
  H47      1.0000 0.66790  0.08830  0.09460  Biso   1.000  H
  H48      1.0000 0.64620  0.16730  0.00940  Biso   1.000  H
  C1       1.0000 0.65110  0.89650  0.12690  Biso   1.000  C
  C2       1.0000 0.65310  0.84750  0.07930  Biso   1.000  C
  C3       1.0000 0.66500  0.78410  0.09140  Biso   1.000  C
  C4       1.0000 0.68420  0.76400  0.16270  Biso   1.000  C
  C5       1.0000 0.68760  0.81200  0.20490  Biso   1.000  C
  C6       1.0000 0.66600  0.72360  0.03710  Biso   1.000  C
  C7       1.0000 0.65970  0.74650  0.97610  Biso   1.000  C
  C8       1.0000 0.66170  0.69990  0.92800  Biso   1.000  C
  C9       1.0000 0.67160  0.62540  0.94490  Biso   1.000  C
  C10      1.0000 0.66090  0.60940  0.00140  Biso   1.000  C
  C11      1.0000 0.66900  0.65440  0.05720  Biso   1.000  C
  C12      1.0000 0.86620  0.57300  0.79690  Biso   1.000  C
  C13      1.0000 0.96050  0.56820  0.80740  Biso   1.000  C
  C14      1.0000 0.99570  0.50260  0.79720  Biso   1.000  C
  C15      1.0000 0.93950  0.45160  0.77610  Biso   1.000  C
  C16      1.0000 0.84840  0.46130  0.76860  Biso   1.000  C
  C17      1.0000 0.09460  0.49570  0.80510  Biso   1.000  C
  C18      1.0000 0.14760  0.54160  0.84670  Biso   1.000  C
  C19      1.0000 0.23640  0.53570  0.85720  Biso   1.000  C
  C20      1.0000 0.27700  0.48590  0.82650  Biso   1.000  C
  C21      1.0000 0.22630  0.43830  0.78440  Biso   1.000  C
  C22      1.0000 0.13210  0.44460  0.77400  Biso   1.000  C
  C23      1.0000 0.38440  0.48460  0.84220  Biso   1.000  C
  C24      1.0000 0.66810  0.57784  0.88759  Biso   1.000  C
  C25      1.0000 0.56020  0.09283  0.46362  Biso   1.000  C
  C26      1.0000 0.57000  0.13874  0.51404  Biso   1.000  C
  C27      1.0000 0.57410  0.20986  0.50196  Biso   1.000  C
  C28      1.0000 0.56740  0.22887  0.43740  Biso   1.000  C
  C29      1.0000 0.56050  0.17983  0.38870  Biso   1.000  C
  C30      1.0000 0.58800  0.25974  0.55511  Biso   1.000  C
  C31      1.0000 0.56170  0.24624  0.61529  Biso   1.000  C
  C32      1.0000 0.57530  0.29254  0.66599  Biso   1.000  C
  C33      1.0000 0.61330  0.35339  0.65974  Biso   1.000  C
  C34      1.0000 0.64080  0.36941  0.60004  Biso   1.000  C
  C35      1.0000 0.62750  0.32167  0.54865  Biso   1.000  C
  C36      1.0000 0.62870  0.40638  0.71355  Biso   1.000  C
  C37      1.0000 0.65110  0.60350  0.62690  Biso   1.000  C
  C38      1.0000 0.65310  0.65250  0.57930  Biso   1.000  C
  C39      1.0000 0.66500  0.71590  0.59140  Biso   1.000  C
  C40      1.0000 0.68420  0.73600  0.66270  Biso   1.000  C
  C41      1.0000 0.68760  0.68800  0.70490  Biso   1.000  C
  C42      1.0000 0.66600  0.77640  0.53710  Biso   1.000  C
  C43      1.0000 0.65970  0.75350  0.47610  Biso   1.000  C
  C44      1.0000 0.66170  0.80010  0.42800  Biso   1.000  C
  C45      1.0000 0.67160  0.87460  0.44490  Biso   1.000  C
  C46      1.0000 0.66090  0.89060  0.50140  Biso   1.000  C
  C47      1.0000 0.66900  0.84560  0.55720  Biso   1.000  C
  C48      1.0000 0.86620  0.92700  0.29690  Biso   1.000  C
  C49      1.0000 0.96050  0.93180  0.30740  Biso   1.000  C
  C50      1.0000 0.99570  0.99740  0.29720  Biso   1.000  C
  C51      1.0000 0.93950  0.04840  0.27610  Biso   1.000  C
  C52      1.0000 0.84840  0.03870  0.26860  Biso   1.000  C
  C53      1.0000 0.09460  0.00430  0.30510  Biso   1.000  C
  C54      1.0000 0.14760  0.95840  0.34670  Biso   1.000  C
  C55      1.0000 0.23640  0.96430  0.35720  Biso   1.000  C
  C56      1.0000 0.27700  0.01410  0.32650  Biso   1.000  C
  C57      1.0000 0.22630  0.06170  0.28440  Biso   1.000  C
  C58      1.0000 0.13210  0.05540  0.27400  Biso   1.000  C
  C59      1.0000 0.38440  0.01540  0.34220  Biso   1.000  C
  C60      1.0000 0.66810  0.92216  0.38759  Biso   1.000  C
  C61      1.0000 0.56020  0.40717  0.96362  Biso   1.000  C
  C62      1.0000 0.57000  0.36126  0.01404  Biso   1.000  C
  C63      1.0000 0.57410  0.29014  0.00196  Biso   1.000  C
  C64      1.0000 0.56740  0.27113  0.93740  Biso   1.000  C
  C65      1.0000 0.56050  0.32017  0.88870  Biso   1.000  C
  C66      1.0000 0.58800  0.24026  0.05511  Biso   1.000  C
  C67      1.0000 0.56170  0.25376  0.11529  Biso   1.000  C
  C68      1.0000 0.57530  0.20746  0.16599  Biso   1.000  C
  C69      1.0000 0.61330  0.14661  0.15974  Biso   1.000  C
  C70      1.0000 0.64080  0.13059  0.10004  Biso   1.000  C
  C71      1.0000 0.62750  0.17833  0.04865  Biso   1.000  C
  C72      1.0000 0.62870  0.09362  0.21355  Biso   1.000  C
  N1       1.0000 0.67259  0.87978  0.19080  Biso   1.000  N
  N2       1.0000 0.81211  0.52182  0.77763  Biso   1.000  N
  N3       1.0000 0.54625  0.53099  0.76553  Biso   1.000  N
  N4       1.0000 0.50230  0.58135  0.76231  Biso   1.000  N
  N5       1.0000 0.46140  0.63000  0.75950  Biso   1.000  N
  N6       1.0000 0.55658  0.11194  0.40122  Biso   1.000  N
  N7       1.0000 0.67259  0.62022  0.69080  Biso   1.000  N
  N8       1.0000 0.81211  0.97818  0.27763  Biso   1.000  N
  N9       1.0000 0.54625  0.96901  0.26553  Biso   1.000  N
  N10      1.0000 0.50230  0.91865  0.26231  Biso   1.000  N
  N11      1.0000 0.46140  0.87000  0.25950  Biso   1.000  N
  N12      1.0000 0.55658  0.38806  0.90122  Biso   1.000  N
  O1       1.0000 0.42280  0.52120  0.88340  Biso   1.000  O
  O2       1.0000 0.41540  0.44470  0.80860  Biso   1.000  O
  O3       1.0000 0.68889  0.60231  0.83528  Biso   1.000  O
  O4       1.0000 0.64440  0.51670  0.89505  Biso   1.000  O
  O5       1.0000 0.60503  0.39076  0.76732  Biso   1.000  O
  O6       1.0000 0.66492  0.46259  0.70111  Biso   1.000  O
  O7       1.0000 0.42280  0.97880  0.38340  Biso   1.000  O
  O8       1.0000 0.41540  0.05530  0.30860  Biso   1.000  O
  O9       1.0000 0.68889  0.89769  0.33528  Biso   1.000  O
  O10      1.0000 0.64440  0.98330  0.39505  Biso   1.000  O
  O11      1.0000 0.60503  0.10924  0.26732  Biso   1.000  O
  O12      1.0000 0.66492  0.03741  0.20111  Biso   1.000  O
  Cu5      1.0000 0.32109  0.03711  0.73699  Biso   1.000  Cu
  Cu6      1.0000 0.45688  0.95931  0.66854  Biso   1.000  Cu
  Cu7      1.0000 0.32109  0.46289  0.23699  Biso   1.000  Cu
  Cu8      1.0000 0.45688  0.54069  0.16854  Biso   1.000  Cu
  H49      1.0000 0.36530  0.44170  0.38490  Biso   1.000  H
  H50      1.0000 0.35470  0.36180  0.46400  Biso   1.000  H
  H51      1.0000 0.30680  0.21800  0.32480  Biso   1.000  H
  H52      1.0000 0.29870  0.29970  0.25140  Biso   1.000  H
  H53      1.0000 0.34590  0.29350  0.53310  Biso   1.000  H
  H54      1.0000 0.34300  0.21430  0.61510  Biso   1.000  H
  H55      1.0000 0.35380  0.06350  0.49190  Biso   1.000  H
  H56      1.0000 0.32480  0.13960  0.39960  Biso   1.000  H
  H57      1.0000 0.15870  0.11560  0.69580  Biso   1.000  H
  H58      1.0000 0.00350  0.10610  0.67970  Biso   1.000  H
  H59      1.0000 0.03830  0.90870  0.73380  Biso   1.000  H
  H60      1.0000 0.18850  0.92360  0.74320  Biso   1.000  H
  H61      1.0000 0.87910  0.07670  0.63250  Biso   1.000  H
  H62      1.0000 0.72980  0.06600  0.61430  Biso   1.000  H
  H63      1.0000 0.74620  0.90340  0.73600  Biso   1.000  H
  H64      1.0000 0.90300  0.91420  0.75370  Biso   1.000  H
  H65      1.0000 0.44410  0.54600  0.02710  Biso   1.000  H
  H66      1.0000 0.42620  0.62280  0.94340  Biso   1.000  H
  H67      1.0000 0.43260  0.77560  0.07350  Biso   1.000  H
  H68      1.0000 0.44140  0.69430  0.15420  Biso   1.000  H
  H69      1.0000 0.46610  0.70440  0.87880  Biso   1.000  H
  H70      1.0000 0.44240  0.78100  0.79450  Biso   1.000  H
  H71      1.0000 0.33210  0.91170  0.90540  Biso   1.000  H
  H72      1.0000 0.35380  0.83270  0.99060  Biso   1.000  H
  H73      1.0000 0.36530  0.05830  0.88490  Biso   1.000  H
  H74      1.0000 0.35470  0.13820  0.96400  Biso   1.000  H
  H75      1.0000 0.30680  0.28200  0.82480  Biso   1.000  H
  H76      1.0000 0.29870  0.20030  0.75140  Biso   1.000  H
  H77      1.0000 0.34590  0.20650  0.03310  Biso   1.000  H
  H78      1.0000 0.34300  0.28570  0.11510  Biso   1.000  H
  H79      1.0000 0.35380  0.43650  0.99190  Biso   1.000  H
  H80      1.0000 0.32480  0.36040  0.89960  Biso   1.000  H
  H81      1.0000 0.15870  0.38440  0.19580  Biso   1.000  H
  H82      1.0000 0.00350  0.39390  0.17970  Biso   1.000  H
  H83      1.0000 0.03830  0.59130  0.23380  Biso   1.000  H
  H84      1.0000 0.18850  0.57640  0.24320  Biso   1.000  H
  H85      1.0000 0.87910  0.42330  0.13250  Biso   1.000  H
  H86      1.0000 0.72980  0.43400  0.11430  Biso   1.000  H
  H87      1.0000 0.74620  0.59660  0.23600  Biso   1.000  H
  H88      1.0000 0.90300  0.58580  0.25370  Biso   1.000  H
  H89      1.0000 0.44410  0.95400  0.52710  Biso   1.000  H
  H90      1.0000 0.42620  0.87720  0.44340  Biso   1.000  H
  H91      1.0000 0.43260  0.72440  0.57350  Biso   1.000  H
  H92      1.0000 0.44140  0.80570  0.65420  Biso   1.000  H
  H93      1.0000 0.46610  0.79560  0.37880  Biso   1.000  H
  H94      1.0000 0.44240  0.71900  0.29450  Biso   1.000  H
  H95      1.0000 0.33210  0.58830  0.40540  Biso   1.000  H
  H96      1.0000 0.35380  0.66730  0.49060  Biso   1.000  H
  C73      1.0000 0.34890  0.39650  0.37310  Biso   1.000  C
  C74      1.0000 0.34690  0.34750  0.42070  Biso   1.000  C
  C75      1.0000 0.33500  0.28410  0.40860  Biso   1.000  C
  C76      1.0000 0.31580  0.26400  0.33730  Biso   1.000  C
  C77      1.0000 0.31240  0.31200  0.29510  Biso   1.000  C
  C78      1.0000 0.33400  0.22360  0.46290  Biso   1.000  C
  C79      1.0000 0.34030  0.24650  0.52390  Biso   1.000  C
  C80      1.0000 0.33830  0.19990  0.57200  Biso   1.000  C
  C81      1.0000 0.32840  0.12540  0.55510  Biso   1.000  C
  C82      1.0000 0.33910  0.10940  0.49860  Biso   1.000  C
  C83      1.0000 0.33100  0.15440  0.44280  Biso   1.000  C
  C84      1.0000 0.13380  0.07300  0.70310  Biso   1.000  C
  C85      1.0000 0.03950  0.06820  0.69260  Biso   1.000  C
  C86      1.0000 0.00430  0.00260  0.70280  Biso   1.000  C
  C87      1.0000 0.06050  0.95160  0.72390  Biso   1.000  C
  C88      1.0000 0.15160  0.96130  0.73140  Biso   1.000  C
  C89      1.0000 0.90540  0.99570  0.69490  Biso   1.000  C
  C90      1.0000 0.85240  0.04160  0.65330  Biso   1.000  C
  C91      1.0000 0.76360  0.03570  0.64280  Biso   1.000  C
  C92      1.0000 0.72300  0.98590  0.67350  Biso   1.000  C
  C93      1.0000 0.77370  0.93830  0.71560  Biso   1.000  C
  C94      1.0000 0.86790  0.94460  0.72600  Biso   1.000  C
  C95      1.0000 0.61560  0.98460  0.65780  Biso   1.000  C
  C96      1.0000 0.33190  0.07784  0.61241  Biso   1.000  C
  C97      1.0000 0.43980  0.59283  0.03638  Biso   1.000  C
  C98      1.0000 0.43000  0.63874  0.98596  Biso   1.000  C
  C99      1.0000 0.42590  0.70986  0.99804  Biso   1.000  C
  C100     1.0000 0.43260  0.72887  0.06260  Biso   1.000  C
  C101     1.0000 0.43950  0.67983  0.11130  Biso   1.000  C
  C102     1.0000 0.41200  0.75974  0.94489  Biso   1.000  C
  C103     1.0000 0.43830  0.74624  0.88471  Biso   1.000  C
  C104     1.0000 0.42470  0.79254  0.83401  Biso   1.000  C
  C105     1.0000 0.38670  0.85339  0.84026  Biso   1.000  C
  C106     1.0000 0.35920  0.86941  0.89996  Biso   1.000  C
  C107     1.0000 0.37250  0.82167  0.95135  Biso   1.000  C
  C108     1.0000 0.37130  0.90638  0.78645  Biso   1.000  C
  C109     1.0000 0.34890  0.10350  0.87310  Biso   1.000  C
  C110     1.0000 0.34690  0.15250  0.92070  Biso   1.000  C
  C111     1.0000 0.33500  0.21590  0.90860  Biso   1.000  C
  C112     1.0000 0.31580  0.23600  0.83730  Biso   1.000  C
  C113     1.0000 0.31240  0.18800  0.79510  Biso   1.000  C
  C114     1.0000 0.33400  0.27640  0.96290  Biso   1.000  C
  C115     1.0000 0.34030  0.25350  0.02390  Biso   1.000  C
  C116     1.0000 0.33830  0.30010  0.07200  Biso   1.000  C
  C117     1.0000 0.32840  0.37460  0.05510  Biso   1.000  C
  C118     1.0000 0.33910  0.39060  0.99860  Biso   1.000  C
  C119     1.0000 0.33100  0.34560  0.94280  Biso   1.000  C
  C120     1.0000 0.13380  0.42700  0.20310  Biso   1.000  C
  C121     1.0000 0.03950  0.43180  0.19260  Biso   1.000  C
  C122     1.0000 0.00430  0.49740  0.20280  Biso   1.000  C
  C123     1.0000 0.06050  0.54840  0.22390  Biso   1.000  C
  C124     1.0000 0.15160  0.53870  0.23140  Biso   1.000  C
  C125     1.0000 0.90540  0.50430  0.19490  Biso   1.000  C
  C126     1.0000 0.85240  0.45840  0.15330  Biso   1.000  C
  C127     1.0000 0.76360  0.46430  0.14280  Biso   1.000  C
  C128     1.0000 0.72300  0.51410  0.17350  Biso   1.000  C
  C129     1.0000 0.77370  0.56170  0.21560  Biso   1.000  C
  C130     1.0000 0.86790  0.55540  0.22600  Biso   1.000  C
  C131     1.0000 0.61560  0.51540  0.15780  Biso   1.000  C
  C132     1.0000 0.33190  0.42216  0.11241  Biso   1.000  C
  C133     1.0000 0.43980  0.90717  0.53638  Biso   1.000  C
  C134     1.0000 0.43000  0.86126  0.48596  Biso   1.000  C
  C135     1.0000 0.42590  0.79014  0.49804  Biso   1.000  C
  C136     1.0000 0.43260  0.77113  0.56260  Biso   1.000  C
  C137     1.0000 0.43950  0.82017  0.61130  Biso   1.000  C
  C138     1.0000 0.41200  0.74026  0.44489  Biso   1.000  C
  C139     1.0000 0.43830  0.75376  0.38471  Biso   1.000  C
  C140     1.0000 0.42470  0.70746  0.33401  Biso   1.000  C
  C141     1.0000 0.38670  0.64661  0.34026  Biso   1.000  C
  C142     1.0000 0.35920  0.63059  0.39996  Biso   1.000  C
  C143     1.0000 0.37250  0.67833  0.45135  Biso   1.000  C
  C144     1.0000 0.37130  0.59362  0.28645  Biso   1.000  C
  N13      1.0000 0.32741  0.37978  0.30920  Biso   1.000  N
  N14      1.0000 0.18789  0.02182  0.72237  Biso   1.000  N
  N15      1.0000 0.45375  0.03099  0.73447  Biso   1.000  N
  N16      1.0000 0.49770  0.08135  0.73769  Biso   1.000  N
  N17      1.0000 0.53860  0.13000  0.74050  Biso   1.000  N
  N18      1.0000 0.44342  0.61194  0.09878  Biso   1.000  N
  N19      1.0000 0.32741  0.12022  0.80920  Biso   1.000  N
  N20      1.0000 0.18789  0.47818  0.22237  Biso   1.000  N
  N21      1.0000 0.45375  0.46901  0.23447  Biso   1.000  N
  N22      1.0000 0.49770  0.41865  0.23769  Biso   1.000  N
  N23      1.0000 0.53860  0.37000  0.24050  Biso   1.000  N
  N24      1.0000 0.44342  0.88806  0.59878  Biso   1.000  N
  O13      1.0000 0.57720  0.02120  0.61660  Biso   1.000  O
  O14      1.0000 0.58460  0.94470  0.69140  Biso   1.000  O
  O15      1.0000 0.31111  0.10231  0.66472  Biso   1.000  O
  O16      1.0000 0.35560  0.01670  0.60495  Biso   1.000  O
  O17      1.0000 0.39497  0.89076  0.73268  Biso   1.000  O
  O18      1.0000 0.33508  0.96259  0.79889  Biso   1.000  O
  O19      1.0000 0.57720  0.47880  0.11660  Biso   1.000  O
  O20      1.0000 0.58460  0.55530  0.19140  Biso   1.000  O
  O21      1.0000 0.31111  0.39769  0.16472  Biso   1.000  O
  O22      1.0000 0.35560  0.48330  0.10495  Biso   1.000  O
  O23      1.0000 0.39497  0.60924  0.23268  Biso   1.000  O
  O24      1.0000 0.33508  0.53741  0.29889  Biso   1.000  O
