data_image0
_cell_length_a       27.634
_cell_length_b       27.634
_cell_length_c       27.634
_cell_angle_alpha    90
_cell_angle_beta     90
_cell_angle_gamma    90

_symmetry_space_group_name_H-M    P 1
_symmetry_int_tables_number       1

loop_
  _symmetry_equiv_pos_as_xyz
  'x, y, z'

loop_
  _atom_site_label
  _atom_site_occupancy
  _atom_site_fract_x
  _atom_site_fract_y
  _atom_site_fract_z
  _atom_site_thermal_displace_type
  _atom_site_B_iso_or_equiv
  _atom_site_type_symbol
  Co1      1.0000 0.50000  0.00000  0.70150  Biso   1.000  Co
  Co2      1.0000 0.50000  0.00000  0.29850  Biso   1.000  Co
  Co3      1.0000 0.70150  0.50000  0.00000  Biso   1.000  Co
  Co4      1.0000 0.29850  0.50000  0.00000  Biso   1.000  Co
  Co5      1.0000 0.00000  0.70150  0.50000  Biso   1.000  Co
  Co6      1.0000 0.00000  0.29850  0.50000  Biso   1.000  Co
  Co7      1.0000 0.50000  0.00000  0.79850  Biso   1.000  Co
  Co8      1.0000 0.50000  0.00000  0.20150  Biso   1.000  Co
  Co9      1.0000 0.00000  0.20150  0.50000  Biso   1.000  Co
  Co10     1.0000 0.00000  0.79850  0.50000  Biso   1.000  Co
  Co11     1.0000 0.20150  0.50000  0.00000  Biso   1.000  Co
  Co12     1.0000 0.79850  0.50000  0.00000  Biso   1.000  Co
  H1       1.0000 0.38870  0.11050  0.67790  Biso   1.000  H
  H2       1.0000 0.32970  0.16880  0.67800  Biso   1.000  H
  H3       1.0000 0.61130  0.88950  0.67790  Biso   1.000  H
  H4       1.0000 0.67030  0.83120  0.67800  Biso   1.000  H
  H5       1.0000 0.61130  0.11050  0.32210  Biso   1.000  H
  H6       1.0000 0.67030  0.16880  0.32200  Biso   1.000  H
  H7       1.0000 0.38870  0.88950  0.32210  Biso   1.000  H
  H8       1.0000 0.32970  0.83120  0.32200  Biso   1.000  H
  H9       1.0000 0.67790  0.38870  0.11050  Biso   1.000  H
  H10      1.0000 0.67800  0.32970  0.16880  Biso   1.000  H
  H11      1.0000 0.67790  0.61130  0.88950  Biso   1.000  H
  H12      1.0000 0.67800  0.67030  0.83120  Biso   1.000  H
  H13      1.0000 0.32210  0.61130  0.11050  Biso   1.000  H
  H14      1.0000 0.32200  0.67030  0.16880  Biso   1.000  H
  H15      1.0000 0.32210  0.38870  0.88950  Biso   1.000  H
  H16      1.0000 0.32200  0.32970  0.83120  Biso   1.000  H
  H17      1.0000 0.11050  0.67790  0.38870  Biso   1.000  H
  H18      1.0000 0.16880  0.67800  0.32970  Biso   1.000  H
  H19      1.0000 0.88950  0.67790  0.61130  Biso   1.000  H
  H20      1.0000 0.83120  0.67800  0.67030  Biso   1.000  H
  H21      1.0000 0.11050  0.32210  0.61130  Biso   1.000  H
  H22      1.0000 0.16880  0.32200  0.67030  Biso   1.000  H
  H23      1.0000 0.88950  0.32210  0.38870  Biso   1.000  H
  H24      1.0000 0.83120  0.32200  0.32970  Biso   1.000  H
  H25      1.0000 0.61050  0.88870  0.82210  Biso   1.000  H
  H26      1.0000 0.66880  0.82970  0.82200  Biso   1.000  H
  H27      1.0000 0.38950  0.11130  0.82210  Biso   1.000  H
  H28      1.0000 0.33120  0.17030  0.82200  Biso   1.000  H
  H29      1.0000 0.61050  0.11130  0.17790  Biso   1.000  H
  H30      1.0000 0.66880  0.17030  0.17800  Biso   1.000  H
  H31      1.0000 0.38950  0.88870  0.17790  Biso   1.000  H
  H32      1.0000 0.33120  0.82970  0.17800  Biso   1.000  H
  H33      1.0000 0.88870  0.17790  0.38950  Biso   1.000  H
  H34      1.0000 0.82970  0.17800  0.33120  Biso   1.000  H
  H35      1.0000 0.11130  0.17790  0.61050  Biso   1.000  H
  H36      1.0000 0.17030  0.17800  0.66880  Biso   1.000  H
  H37      1.0000 0.11130  0.82210  0.38950  Biso   1.000  H
  H38      1.0000 0.17030  0.82200  0.33120  Biso   1.000  H
  H39      1.0000 0.88870  0.82210  0.61050  Biso   1.000  H
  H40      1.0000 0.82970  0.82200  0.66880  Biso   1.000  H
  H41      1.0000 0.17790  0.61050  0.11130  Biso   1.000  H
  H42      1.0000 0.17800  0.66880  0.17030  Biso   1.000  H
  H43      1.0000 0.17790  0.38950  0.88870  Biso   1.000  H
  H44      1.0000 0.17800  0.33120  0.82970  Biso   1.000  H
  H45      1.0000 0.82210  0.61050  0.88870  Biso   1.000  H
  H46      1.0000 0.82200  0.66880  0.82970  Biso   1.000  H
  H47      1.0000 0.82210  0.38950  0.11130  Biso   1.000  H
  H48      1.0000 0.82200  0.33120  0.17030  Biso   1.000  H
  H49      1.0000 0.61130  0.88950  0.32210  Biso   1.000  H
  H50      1.0000 0.67030  0.83120  0.32200  Biso   1.000  H
  H51      1.0000 0.38870  0.11050  0.32210  Biso   1.000  H
  H52      1.0000 0.32970  0.16880  0.32200  Biso   1.000  H
  H53      1.0000 0.38870  0.88950  0.67790  Biso   1.000  H
  H54      1.0000 0.32970  0.83120  0.67800  Biso   1.000  H
  H55      1.0000 0.61130  0.11050  0.67790  Biso   1.000  H
  H56      1.0000 0.67030  0.16880  0.67800  Biso   1.000  H
  H57      1.0000 0.32210  0.61130  0.88950  Biso   1.000  H
  H58      1.0000 0.32200  0.67030  0.83120  Biso   1.000  H
  H59      1.0000 0.32210  0.38870  0.11050  Biso   1.000  H
  H60      1.0000 0.32200  0.32970  0.16880  Biso   1.000  H
  H61      1.0000 0.67790  0.38870  0.88950  Biso   1.000  H
  H62      1.0000 0.67800  0.32970  0.83120  Biso   1.000  H
  H63      1.0000 0.67790  0.61130  0.11050  Biso   1.000  H
  H64      1.0000 0.67800  0.67030  0.16880  Biso   1.000  H
  H65      1.0000 0.88950  0.32210  0.61130  Biso   1.000  H
  H66      1.0000 0.83120  0.32200  0.67030  Biso   1.000  H
  H67      1.0000 0.11050  0.32210  0.38870  Biso   1.000  H
  H68      1.0000 0.16880  0.32200  0.32970  Biso   1.000  H
  H69      1.0000 0.88950  0.67790  0.38870  Biso   1.000  H
  H70      1.0000 0.83120  0.67800  0.32970  Biso   1.000  H
  H71      1.0000 0.11050  0.67790  0.61130  Biso   1.000  H
  H72      1.0000 0.16880  0.67800  0.67030  Biso   1.000  H
  H73      1.0000 0.38950  0.11130  0.17790  Biso   1.000  H
  H74      1.0000 0.33120  0.17030  0.17800  Biso   1.000  H
  H75      1.0000 0.61050  0.88870  0.17790  Biso   1.000  H
  H76      1.0000 0.66880  0.82970  0.17800  Biso   1.000  H
  H77      1.0000 0.38950  0.88870  0.82210  Biso   1.000  H
  H78      1.0000 0.33120  0.82970  0.82200  Biso   1.000  H
  H79      1.0000 0.61050  0.11130  0.82210  Biso   1.000  H
  H80      1.0000 0.66880  0.17030  0.82200  Biso   1.000  H
  H81      1.0000 0.11130  0.82210  0.61050  Biso   1.000  H
  H82      1.0000 0.17030  0.82200  0.66880  Biso   1.000  H
  H83      1.0000 0.88870  0.82210  0.38950  Biso   1.000  H
  H84      1.0000 0.82970  0.82200  0.33120  Biso   1.000  H
  H85      1.0000 0.88870  0.17790  0.61050  Biso   1.000  H
  H86      1.0000 0.82970  0.17800  0.66880  Biso   1.000  H
  H87      1.0000 0.11130  0.17790  0.38950  Biso   1.000  H
  H88      1.0000 0.17030  0.17800  0.33120  Biso   1.000  H
  H89      1.0000 0.82210  0.38950  0.88870  Biso   1.000  H
  H90      1.0000 0.82200  0.33120  0.82970  Biso   1.000  H
  H91      1.0000 0.82210  0.61050  0.11130  Biso   1.000  H
  H92      1.0000 0.82200  0.66880  0.17030  Biso   1.000  H
  H93      1.0000 0.17790  0.38950  0.11130  Biso   1.000  H
  H94      1.0000 0.17800  0.33120  0.17030  Biso   1.000  H
  H95      1.0000 0.17790  0.61050  0.88870  Biso   1.000  H
  H96      1.0000 0.17800  0.66880  0.82970  Biso   1.000  H
  H97      1.0000 0.25000  0.19080  0.69080  Biso   1.000  H
  H98      1.0000 0.75000  0.80920  0.69080  Biso   1.000  H
  H99      1.0000 0.75000  0.19080  0.30920  Biso   1.000  H
  H100     1.0000 0.25000  0.80920  0.30920  Biso   1.000  H
  H101     1.0000 0.69080  0.25000  0.19080  Biso   1.000  H
  H102     1.0000 0.69080  0.75000  0.80920  Biso   1.000  H
  H103     1.0000 0.30920  0.75000  0.19080  Biso   1.000  H
  H104     1.0000 0.30920  0.25000  0.80920  Biso   1.000  H
  H105     1.0000 0.19080  0.69080  0.25000  Biso   1.000  H
  H106     1.0000 0.80920  0.69080  0.75000  Biso   1.000  H
  H107     1.0000 0.19080  0.30920  0.75000  Biso   1.000  H
  H108     1.0000 0.80920  0.30920  0.25000  Biso   1.000  H
  H109     1.0000 0.75000  0.80920  0.30920  Biso   1.000  H
  H110     1.0000 0.25000  0.19080  0.30920  Biso   1.000  H
  H111     1.0000 0.25000  0.80920  0.69080  Biso   1.000  H
  H112     1.0000 0.75000  0.19080  0.69080  Biso   1.000  H
  H113     1.0000 0.30920  0.75000  0.80920  Biso   1.000  H
  H114     1.0000 0.30920  0.25000  0.19080  Biso   1.000  H
  H115     1.0000 0.69080  0.25000  0.80920  Biso   1.000  H
  H116     1.0000 0.69080  0.75000  0.19080  Biso   1.000  H
  H117     1.0000 0.80920  0.30920  0.75000  Biso   1.000  H
  H118     1.0000 0.19080  0.30920  0.25000  Biso   1.000  H
  H119     1.0000 0.80920  0.69080  0.25000  Biso   1.000  H
  H120     1.0000 0.19080  0.69080  0.75000  Biso   1.000  H
  H121     1.0000 0.42920  0.00000  0.53780  Biso   1.000  H
  H122     1.0000 0.43250  0.00000  0.61890  Biso   1.000  H
  H123     1.0000 0.57080  0.00000  0.53780  Biso   1.000  H
  H124     1.0000 0.56750  0.00000  0.61890  Biso   1.000  H
  H125     1.0000 0.57080  0.00000  0.46220  Biso   1.000  H
  H126     1.0000 0.56750  0.00000  0.38110  Biso   1.000  H
  H127     1.0000 0.42920  0.00000  0.46220  Biso   1.000  H
  H128     1.0000 0.43250  0.00000  0.38110  Biso   1.000  H
  H129     1.0000 0.53780  0.42920  0.00000  Biso   1.000  H
  H130     1.0000 0.61890  0.43250  0.00000  Biso   1.000  H
  H131     1.0000 0.53780  0.57080  0.00000  Biso   1.000  H
  H132     1.0000 0.61890  0.56750  0.00000  Biso   1.000  H
  H133     1.0000 0.46220  0.57080  0.00000  Biso   1.000  H
  H134     1.0000 0.38110  0.56750  0.00000  Biso   1.000  H
  H135     1.0000 0.46220  0.42920  0.00000  Biso   1.000  H
  H136     1.0000 0.38110  0.43250  0.00000  Biso   1.000  H
  H137     1.0000 0.00000  0.53780  0.42920  Biso   1.000  H
  H138     1.0000 0.00000  0.61890  0.43250  Biso   1.000  H
  H139     1.0000 0.00000  0.53780  0.57080  Biso   1.000  H
  H140     1.0000 0.00000  0.61890  0.56750  Biso   1.000  H
  H141     1.0000 0.00000  0.46220  0.57080  Biso   1.000  H
  H142     1.0000 0.00000  0.38110  0.56750  Biso   1.000  H
  H143     1.0000 0.00000  0.46220  0.42920  Biso   1.000  H
  H144     1.0000 0.00000  0.38110  0.43250  Biso   1.000  H
  H145     1.0000 0.50000  0.92920  0.96220  Biso   1.000  H
  H146     1.0000 0.50000  0.93250  0.88110  Biso   1.000  H
  H147     1.0000 0.50000  0.07080  0.96220  Biso   1.000  H
  H148     1.0000 0.50000  0.06750  0.88110  Biso   1.000  H
  H149     1.0000 0.50000  0.07080  0.03780  Biso   1.000  H
  H150     1.0000 0.50000  0.06750  0.11890  Biso   1.000  H
  H151     1.0000 0.50000  0.92920  0.03780  Biso   1.000  H
  H152     1.0000 0.50000  0.93250  0.11890  Biso   1.000  H
  H153     1.0000 0.92920  0.03780  0.50000  Biso   1.000  H
  H154     1.0000 0.93250  0.11890  0.50000  Biso   1.000  H
  H155     1.0000 0.07080  0.03780  0.50000  Biso   1.000  H
  H156     1.0000 0.06750  0.11890  0.50000  Biso   1.000  H
  H157     1.0000 0.07080  0.96220  0.50000  Biso   1.000  H
  H158     1.0000 0.06750  0.88110  0.50000  Biso   1.000  H
  H159     1.0000 0.92920  0.96220  0.50000  Biso   1.000  H
  H160     1.0000 0.93250  0.88110  0.50000  Biso   1.000  H
  H161     1.0000 0.03780  0.50000  0.07080  Biso   1.000  H
  H162     1.0000 0.11890  0.50000  0.06750  Biso   1.000  H
  H163     1.0000 0.03780  0.50000  0.92920  Biso   1.000  H
  H164     1.0000 0.11890  0.50000  0.93250  Biso   1.000  H
  H165     1.0000 0.96220  0.50000  0.92920  Biso   1.000  H
  H166     1.0000 0.88110  0.50000  0.93250  Biso   1.000  H
  H167     1.0000 0.96220  0.50000  0.07080  Biso   1.000  H
  H168     1.0000 0.88110  0.50000  0.06750  Biso   1.000  H
  C1       1.0000 0.37707  0.12235  0.70714  Biso   1.000  C
  C2       1.0000 0.34174  0.15742  0.70726  Biso   1.000  C
  C3       1.0000 0.62293  0.87765  0.70714  Biso   1.000  C
  C4       1.0000 0.65826  0.84258  0.70726  Biso   1.000  C
  C5       1.0000 0.62293  0.12235  0.29286  Biso   1.000  C
  C6       1.0000 0.65826  0.15742  0.29274  Biso   1.000  C
  C7       1.0000 0.37707  0.87765  0.29286  Biso   1.000  C
  C8       1.0000 0.34174  0.84258  0.29274  Biso   1.000  C
  C9       1.0000 0.70714  0.37707  0.12235  Biso   1.000  C
  C10      1.0000 0.70726  0.34174  0.15742  Biso   1.000  C
  C11      1.0000 0.70714  0.62293  0.87765  Biso   1.000  C
  C12      1.0000 0.70726  0.65826  0.84258  Biso   1.000  C
  C13      1.0000 0.29286  0.62293  0.12235  Biso   1.000  C
  C14      1.0000 0.29274  0.65826  0.15742  Biso   1.000  C
  C15      1.0000 0.29286  0.37707  0.87765  Biso   1.000  C
  C16      1.0000 0.29274  0.34174  0.84258  Biso   1.000  C
  C17      1.0000 0.12235  0.70714  0.37707  Biso   1.000  C
  C18      1.0000 0.15742  0.70726  0.34174  Biso   1.000  C
  C19      1.0000 0.87765  0.70714  0.62293  Biso   1.000  C
  C20      1.0000 0.84258  0.70726  0.65826  Biso   1.000  C
  C21      1.0000 0.12235  0.29286  0.62293  Biso   1.000  C
  C22      1.0000 0.15742  0.29274  0.65826  Biso   1.000  C
  C23      1.0000 0.87765  0.29286  0.37707  Biso   1.000  C
  C24      1.0000 0.84258  0.29274  0.34174  Biso   1.000  C
  C25      1.0000 0.62235  0.87707  0.79286  Biso   1.000  C
  C26      1.0000 0.65742  0.84174  0.79274  Biso   1.000  C
  C27      1.0000 0.37765  0.12293  0.79286  Biso   1.000  C
  C28      1.0000 0.34258  0.15826  0.79274  Biso   1.000  C
  C29      1.0000 0.62235  0.12293  0.20714  Biso   1.000  C
  C30      1.0000 0.65742  0.15826  0.20726  Biso   1.000  C
  C31      1.0000 0.37765  0.87707  0.20714  Biso   1.000  C
  C32      1.0000 0.34258  0.84174  0.20726  Biso   1.000  C
  C33      1.0000 0.87707  0.20714  0.37765  Biso   1.000  C
  C34      1.0000 0.84174  0.20726  0.34258  Biso   1.000  C
  C35      1.0000 0.12293  0.20714  0.62235  Biso   1.000  C
  C36      1.0000 0.15826  0.20726  0.65742  Biso   1.000  C
  C37      1.0000 0.12293  0.79286  0.37765  Biso   1.000  C
  C38      1.0000 0.15826  0.79274  0.34258  Biso   1.000  C
  C39      1.0000 0.87707  0.79286  0.62235  Biso   1.000  C
  C40      1.0000 0.84174  0.79274  0.65742  Biso   1.000  C
  C41      1.0000 0.20714  0.62235  0.12293  Biso   1.000  C
  C42      1.0000 0.20726  0.65742  0.15826  Biso   1.000  C
  C43      1.0000 0.20714  0.37765  0.87707  Biso   1.000  C
  C44      1.0000 0.20726  0.34258  0.84174  Biso   1.000  C
  C45      1.0000 0.79286  0.62235  0.87707  Biso   1.000  C
  C46      1.0000 0.79274  0.65742  0.84174  Biso   1.000  C
  C47      1.0000 0.79286  0.37765  0.12293  Biso   1.000  C
  C48      1.0000 0.79274  0.34258  0.15826  Biso   1.000  C
  C49      1.0000 0.62293  0.87765  0.29286  Biso   1.000  C
  C50      1.0000 0.65826  0.84258  0.29274  Biso   1.000  C
  C51      1.0000 0.37707  0.12235  0.29286  Biso   1.000  C
  C52      1.0000 0.34174  0.15742  0.29274  Biso   1.000  C
  C53      1.0000 0.37707  0.87765  0.70714  Biso   1.000  C
  C54      1.0000 0.34174  0.84258  0.70726  Biso   1.000  C
  C55      1.0000 0.62293  0.12235  0.70714  Biso   1.000  C
  C56      1.0000 0.65826  0.15742  0.70726  Biso   1.000  C
  C57      1.0000 0.29286  0.62293  0.87765  Biso   1.000  C
  C58      1.0000 0.29274  0.65826  0.84258  Biso   1.000  C
  C59      1.0000 0.29286  0.37707  0.12235  Biso   1.000  C
  C60      1.0000 0.29274  0.34174  0.15742  Biso   1.000  C
  C61      1.0000 0.70714  0.37707  0.87765  Biso   1.000  C
  C62      1.0000 0.70726  0.34174  0.84258  Biso   1.000  C
  C63      1.0000 0.70714  0.62293  0.12235  Biso   1.000  C
  C64      1.0000 0.70726  0.65826  0.15742  Biso   1.000  C
  C65      1.0000 0.87765  0.29286  0.62293  Biso   1.000  C
  C66      1.0000 0.84258  0.29274  0.65826  Biso   1.000  C
  C67      1.0000 0.12235  0.29286  0.37707  Biso   1.000  C
  C68      1.0000 0.15742  0.29274  0.34174  Biso   1.000  C
  C69      1.0000 0.87765  0.70714  0.37707  Biso   1.000  C
  C70      1.0000 0.84258  0.70726  0.34174  Biso   1.000  C
  C71      1.0000 0.12235  0.70714  0.62293  Biso   1.000  C
  C72      1.0000 0.15742  0.70726  0.65826  Biso   1.000  C
  C73      1.0000 0.37765  0.12293  0.20714  Biso   1.000  C
  C74      1.0000 0.34258  0.15826  0.20726  Biso   1.000  C
  C75      1.0000 0.62235  0.87707  0.20714  Biso   1.000  C
  C76      1.0000 0.65742  0.84174  0.20726  Biso   1.000  C
  C77      1.0000 0.37765  0.87707  0.79286  Biso   1.000  C
  C78      1.0000 0.34258  0.84174  0.79274  Biso   1.000  C
  C79      1.0000 0.62235  0.12293  0.79286  Biso   1.000  C
  C80      1.0000 0.65742  0.15826  0.79274  Biso   1.000  C
  C81      1.0000 0.12293  0.79286  0.62235  Biso   1.000  C
  C82      1.0000 0.15826  0.79274  0.65742  Biso   1.000  C
  C83      1.0000 0.87707  0.79286  0.37765  Biso   1.000  C
  C84      1.0000 0.84174  0.79274  0.34258  Biso   1.000  C
  C85      1.0000 0.87707  0.20714  0.62235  Biso   1.000  C
  C86      1.0000 0.84174  0.20726  0.65742  Biso   1.000  C
  C87      1.0000 0.12293  0.20714  0.37765  Biso   1.000  C
  C88      1.0000 0.15826  0.20726  0.34258  Biso   1.000  C
  C89      1.0000 0.79286  0.37765  0.87707  Biso   1.000  C
  C90      1.0000 0.79274  0.34258  0.84174  Biso   1.000  C
  C91      1.0000 0.79286  0.62235  0.12293  Biso   1.000  C
  C92      1.0000 0.79274  0.65742  0.15826  Biso   1.000  C
  C93      1.0000 0.20714  0.37765  0.12293  Biso   1.000  C
  C94      1.0000 0.20726  0.34258  0.15826  Biso   1.000  C
  C95      1.0000 0.20714  0.62235  0.87707  Biso   1.000  C
  C96      1.0000 0.20726  0.65742  0.84174  Biso   1.000  C
  C97      1.0000 0.50000  0.00000  0.52694  Biso   1.000  C
  C98      1.0000 0.50000  0.00000  0.47306  Biso   1.000  C
  C99      1.0000 0.52694  0.50000  0.00000  Biso   1.000  C
  C100     1.0000 0.47306  0.50000  0.00000  Biso   1.000  C
  C101     1.0000 0.00000  0.52694  0.50000  Biso   1.000  C
  C102     1.0000 0.00000  0.47306  0.50000  Biso   1.000  C
  C103     1.0000 0.50000  0.00000  0.97306  Biso   1.000  C
  C104     1.0000 0.50000  0.00000  0.02694  Biso   1.000  C
  C105     1.0000 0.00000  0.02694  0.50000  Biso   1.000  C
  C106     1.0000 0.00000  0.97306  0.50000  Biso   1.000  C
  C107     1.0000 0.02694  0.50000  0.00000  Biso   1.000  C
  C108     1.0000 0.97306  0.50000  0.00000  Biso   1.000  C
  C109     1.0000 0.43397  0.06603  0.75000  Biso   1.000  C
  C110     1.0000 0.39549  0.10451  0.75000  Biso   1.000  C
  C111     1.0000 0.32389  0.17611  0.75000  Biso   1.000  C
  C112     1.0000 0.28595  0.21405  0.75000  Biso   1.000  C
  C113     1.0000 0.56603  0.93397  0.75000  Biso   1.000  C
  C114     1.0000 0.60451  0.89549  0.75000  Biso   1.000  C
  C115     1.0000 0.67611  0.82389  0.75000  Biso   1.000  C
  C116     1.0000 0.71405  0.78595  0.75000  Biso   1.000  C
  C117     1.0000 0.56603  0.06603  0.25000  Biso   1.000  C
  C118     1.0000 0.60451  0.10451  0.25000  Biso   1.000  C
  C119     1.0000 0.67611  0.17611  0.25000  Biso   1.000  C
  C120     1.0000 0.71405  0.21405  0.25000  Biso   1.000  C
  C121     1.0000 0.43397  0.93397  0.25000  Biso   1.000  C
  C122     1.0000 0.39549  0.89549  0.25000  Biso   1.000  C
  C123     1.0000 0.32389  0.82389  0.25000  Biso   1.000  C
  C124     1.0000 0.28595  0.78595  0.25000  Biso   1.000  C
  C125     1.0000 0.75000  0.43397  0.06603  Biso   1.000  C
  C126     1.0000 0.75000  0.39549  0.10451  Biso   1.000  C
  C127     1.0000 0.75000  0.32389  0.17611  Biso   1.000  C
  C128     1.0000 0.75000  0.28595  0.21405  Biso   1.000  C
  C129     1.0000 0.75000  0.56603  0.93397  Biso   1.000  C
  C130     1.0000 0.75000  0.60451  0.89549  Biso   1.000  C
  C131     1.0000 0.75000  0.67611  0.82389  Biso   1.000  C
  C132     1.0000 0.75000  0.71405  0.78595  Biso   1.000  C
  C133     1.0000 0.25000  0.56603  0.06603  Biso   1.000  C
  C134     1.0000 0.25000  0.60451  0.10451  Biso   1.000  C
  C135     1.0000 0.25000  0.67611  0.17611  Biso   1.000  C
  C136     1.0000 0.25000  0.71405  0.21405  Biso   1.000  C
  C137     1.0000 0.25000  0.43397  0.93397  Biso   1.000  C
  C138     1.0000 0.25000  0.39549  0.89549  Biso   1.000  C
  C139     1.0000 0.25000  0.32389  0.82389  Biso   1.000  C
  C140     1.0000 0.25000  0.28595  0.78595  Biso   1.000  C
  C141     1.0000 0.06603  0.75000  0.43397  Biso   1.000  C
  C142     1.0000 0.10451  0.75000  0.39549  Biso   1.000  C
  C143     1.0000 0.17611  0.75000  0.32389  Biso   1.000  C
  C144     1.0000 0.21405  0.75000  0.28595  Biso   1.000  C
  C145     1.0000 0.93397  0.75000  0.56603  Biso   1.000  C
  C146     1.0000 0.89549  0.75000  0.60451  Biso   1.000  C
  C147     1.0000 0.82389  0.75000  0.67611  Biso   1.000  C
  C148     1.0000 0.78595  0.75000  0.71405  Biso   1.000  C
  C149     1.0000 0.06603  0.25000  0.56603  Biso   1.000  C
  C150     1.0000 0.10451  0.25000  0.60451  Biso   1.000  C
  C151     1.0000 0.17611  0.25000  0.67611  Biso   1.000  C
  C152     1.0000 0.21405  0.25000  0.71405  Biso   1.000  C
  C153     1.0000 0.93397  0.25000  0.43397  Biso   1.000  C
  C154     1.0000 0.89549  0.25000  0.39549  Biso   1.000  C
  C155     1.0000 0.82389  0.25000  0.32389  Biso   1.000  C
  C156     1.0000 0.78595  0.25000  0.28595  Biso   1.000  C
  C157     1.0000 0.56603  0.93397  0.25000  Biso   1.000  C
  C158     1.0000 0.60451  0.89549  0.25000  Biso   1.000  C
  C159     1.0000 0.67611  0.82389  0.25000  Biso   1.000  C
  C160     1.0000 0.71405  0.78595  0.25000  Biso   1.000  C
  C161     1.0000 0.43397  0.06603  0.25000  Biso   1.000  C
  C162     1.0000 0.39549  0.10451  0.25000  Biso   1.000  C
  C163     1.0000 0.32389  0.17611  0.25000  Biso   1.000  C
  C164     1.0000 0.28595  0.21405  0.25000  Biso   1.000  C
  C165     1.0000 0.43397  0.93397  0.75000  Biso   1.000  C
  C166     1.0000 0.39549  0.89549  0.75000  Biso   1.000  C
  C167     1.0000 0.32389  0.82389  0.75000  Biso   1.000  C
  C168     1.0000 0.28595  0.78595  0.75000  Biso   1.000  C
  C169     1.0000 0.56603  0.06603  0.75000  Biso   1.000  C
  C170     1.0000 0.60451  0.10451  0.75000  Biso   1.000  C
  C171     1.0000 0.67611  0.17611  0.75000  Biso   1.000  C
  C172     1.0000 0.71405  0.21405  0.75000  Biso   1.000  C
  C173     1.0000 0.25000  0.56603  0.93397  Biso   1.000  C
  C174     1.0000 0.25000  0.60451  0.89549  Biso   1.000  C
  C175     1.0000 0.25000  0.67611  0.82389  Biso   1.000  C
  C176     1.0000 0.25000  0.71405  0.78595  Biso   1.000  C
  C177     1.0000 0.25000  0.43397  0.06603  Biso   1.000  C
  C178     1.0000 0.25000  0.39549  0.10451  Biso   1.000  C
  C179     1.0000 0.25000  0.32389  0.17611  Biso   1.000  C
  C180     1.0000 0.25000  0.28595  0.21405  Biso   1.000  C
  C181     1.0000 0.75000  0.43397  0.93397  Biso   1.000  C
  C182     1.0000 0.75000  0.39549  0.89549  Biso   1.000  C
  C183     1.0000 0.75000  0.32389  0.82389  Biso   1.000  C
  C184     1.0000 0.75000  0.28595  0.78595  Biso   1.000  C
  C185     1.0000 0.75000  0.56603  0.06603  Biso   1.000  C
  C186     1.0000 0.75000  0.60451  0.10451  Biso   1.000  C
  C187     1.0000 0.75000  0.67611  0.17611  Biso   1.000  C
  C188     1.0000 0.75000  0.71405  0.21405  Biso   1.000  C
  C189     1.0000 0.93397  0.25000  0.56603  Biso   1.000  C
  C190     1.0000 0.89549  0.25000  0.60451  Biso   1.000  C
  C191     1.0000 0.82389  0.25000  0.67611  Biso   1.000  C
  C192     1.0000 0.78595  0.25000  0.71405  Biso   1.000  C
  C193     1.0000 0.06603  0.25000  0.43397  Biso   1.000  C
  C194     1.0000 0.10451  0.25000  0.39549  Biso   1.000  C
  C195     1.0000 0.17611  0.25000  0.32389  Biso   1.000  C
  C196     1.0000 0.21405  0.25000  0.28595  Biso   1.000  C
  C197     1.0000 0.93397  0.75000  0.43397  Biso   1.000  C
  C198     1.0000 0.89549  0.75000  0.39549  Biso   1.000  C
  C199     1.0000 0.82389  0.75000  0.32389  Biso   1.000  C
  C200     1.0000 0.78595  0.75000  0.28595  Biso   1.000  C
  C201     1.0000 0.06603  0.75000  0.56603  Biso   1.000  C
  C202     1.0000 0.10451  0.75000  0.60451  Biso   1.000  C
  C203     1.0000 0.17611  0.75000  0.67611  Biso   1.000  C
  C204     1.0000 0.21405  0.75000  0.71405  Biso   1.000  C
  C205     1.0000 0.25000  0.21460  0.71460  Biso   1.000  C
  C206     1.0000 0.75000  0.78540  0.71460  Biso   1.000  C
  C207     1.0000 0.75000  0.21460  0.28540  Biso   1.000  C
  C208     1.0000 0.25000  0.78540  0.28540  Biso   1.000  C
  C209     1.0000 0.71460  0.25000  0.21460  Biso   1.000  C
  C210     1.0000 0.71460  0.75000  0.78540  Biso   1.000  C
  C211     1.0000 0.28540  0.75000  0.21460  Biso   1.000  C
  C212     1.0000 0.28540  0.25000  0.78540  Biso   1.000  C
  C213     1.0000 0.21460  0.71460  0.25000  Biso   1.000  C
  C214     1.0000 0.78540  0.71460  0.75000  Biso   1.000  C
  C215     1.0000 0.21460  0.28540  0.75000  Biso   1.000  C
  C216     1.0000 0.78540  0.28540  0.25000  Biso   1.000  C
  C217     1.0000 0.75000  0.78540  0.28540  Biso   1.000  C
  C218     1.0000 0.25000  0.21460  0.28540  Biso   1.000  C
  C219     1.0000 0.25000  0.78540  0.71460  Biso   1.000  C
  C220     1.0000 0.75000  0.21460  0.71460  Biso   1.000  C
  C221     1.0000 0.28540  0.75000  0.78540  Biso   1.000  C
  C222     1.0000 0.28540  0.25000  0.21460  Biso   1.000  C
  C223     1.0000 0.71460  0.25000  0.78540  Biso   1.000  C
  C224     1.0000 0.71460  0.75000  0.21460  Biso   1.000  C
  C225     1.0000 0.78540  0.28540  0.75000  Biso   1.000  C
  C226     1.0000 0.21460  0.28540  0.25000  Biso   1.000  C
  C227     1.0000 0.78540  0.71460  0.25000  Biso   1.000  C
  C228     1.0000 0.21460  0.71460  0.75000  Biso   1.000  C
  C229     1.0000 0.45910  0.00000  0.55310  Biso   1.000  C
  C230     1.0000 0.46170  0.00000  0.60213  Biso   1.000  C
  C231     1.0000 0.54090  0.00000  0.55310  Biso   1.000  C
  C232     1.0000 0.53830  0.00000  0.60213  Biso   1.000  C
  C233     1.0000 0.54090  0.00000  0.44690  Biso   1.000  C
  C234     1.0000 0.53830  0.00000  0.39787  Biso   1.000  C
  C235     1.0000 0.45910  0.00000  0.44690  Biso   1.000  C
  C236     1.0000 0.46170  0.00000  0.39787  Biso   1.000  C
  C237     1.0000 0.55310  0.45910  0.00000  Biso   1.000  C
  C238     1.0000 0.60213  0.46170  0.00000  Biso   1.000  C
  C239     1.0000 0.55310  0.54090  0.00000  Biso   1.000  C
  C240     1.0000 0.60213  0.53830  0.00000  Biso   1.000  C
  C241     1.0000 0.44690  0.54090  0.00000  Biso   1.000  C
  C242     1.0000 0.39787  0.53830  0.00000  Biso   1.000  C
  C243     1.0000 0.44690  0.45910  0.00000  Biso   1.000  C
  C244     1.0000 0.39787  0.46170  0.00000  Biso   1.000  C
  C245     1.0000 0.00000  0.55310  0.45910  Biso   1.000  C
  C246     1.0000 0.00000  0.60213  0.46170  Biso   1.000  C
  C247     1.0000 0.00000  0.55310  0.54090  Biso   1.000  C
  C248     1.0000 0.00000  0.60213  0.53830  Biso   1.000  C
  C249     1.0000 0.00000  0.44690  0.54090  Biso   1.000  C
  C250     1.0000 0.00000  0.39787  0.53830  Biso   1.000  C
  C251     1.0000 0.00000  0.44690  0.45910  Biso   1.000  C
  C252     1.0000 0.00000  0.39787  0.46170  Biso   1.000  C
  C253     1.0000 0.50000  0.95910  0.94690  Biso   1.000  C
  C254     1.0000 0.50000  0.96170  0.89787  Biso   1.000  C
  C255     1.0000 0.50000  0.04090  0.94690  Biso   1.000  C
  C256     1.0000 0.50000  0.03830  0.89787  Biso   1.000  C
  C257     1.0000 0.50000  0.04090  0.05310  Biso   1.000  C
  C258     1.0000 0.50000  0.03830  0.10213  Biso   1.000  C
  C259     1.0000 0.50000  0.95910  0.05310  Biso   1.000  C
  C260     1.0000 0.50000  0.96170  0.10213  Biso   1.000  C
  C261     1.0000 0.95910  0.05310  0.50000  Biso   1.000  C
  C262     1.0000 0.96170  0.10213  0.50000  Biso   1.000  C
  C263     1.0000 0.04090  0.05310  0.50000  Biso   1.000  C
  C264     1.0000 0.03830  0.10213  0.50000  Biso   1.000  C
  C265     1.0000 0.04090  0.94690  0.50000  Biso   1.000  C
  C266     1.0000 0.03830  0.89787  0.50000  Biso   1.000  C
  C267     1.0000 0.95910  0.94690  0.50000  Biso   1.000  C
  C268     1.0000 0.96170  0.89787  0.50000  Biso   1.000  C
  C269     1.0000 0.05310  0.50000  0.04090  Biso   1.000  C
  C270     1.0000 0.10213  0.50000  0.03830  Biso   1.000  C
  C271     1.0000 0.05310  0.50000  0.95910  Biso   1.000  C
  C272     1.0000 0.10213  0.50000  0.96170  Biso   1.000  C
  C273     1.0000 0.94690  0.50000  0.95910  Biso   1.000  C
  C274     1.0000 0.89787  0.50000  0.96170  Biso   1.000  C
  C275     1.0000 0.94690  0.50000  0.04090  Biso   1.000  C
  C276     1.0000 0.89787  0.50000  0.03830  Biso   1.000  C
  N1       1.0000 0.50000  0.00000  0.62730  Biso   1.000  N
  N2       1.0000 0.50000  0.00000  0.37270  Biso   1.000  N
  N3       1.0000 0.62730  0.50000  0.00000  Biso   1.000  N
  N4       1.0000 0.37270  0.50000  0.00000  Biso   1.000  N
  N5       1.0000 0.00000  0.62730  0.50000  Biso   1.000  N
  N6       1.0000 0.00000  0.37270  0.50000  Biso   1.000  N
  N7       1.0000 0.50000  0.00000  0.87270  Biso   1.000  N
  N8       1.0000 0.50000  0.00000  0.12730  Biso   1.000  N
  N9       1.0000 0.00000  0.12730  0.50000  Biso   1.000  N
  N10      1.0000 0.00000  0.87270  0.50000  Biso   1.000  N
  N11      1.0000 0.12730  0.50000  0.00000  Biso   1.000  N
  N12      1.0000 0.87270  0.50000  0.00000  Biso   1.000  N
  O1       1.0000 0.44840  0.05138  0.70986  Biso   1.000  O
  O2       1.0000 0.55160  0.94862  0.70986  Biso   1.000  O
  O3       1.0000 0.55160  0.05138  0.29014  Biso   1.000  O
  O4       1.0000 0.44840  0.94862  0.29014  Biso   1.000  O
  O5       1.0000 0.70986  0.44840  0.05138  Biso   1.000  O
  O6       1.0000 0.70986  0.55160  0.94862  Biso   1.000  O
  O7       1.0000 0.29014  0.55160  0.05138  Biso   1.000  O
  O8       1.0000 0.29014  0.44840  0.94862  Biso   1.000  O
  O9       1.0000 0.05138  0.70986  0.44840  Biso   1.000  O
  O10      1.0000 0.94862  0.70986  0.55160  Biso   1.000  O
  O11      1.0000 0.05138  0.29014  0.55160  Biso   1.000  O
  O12      1.0000 0.94862  0.29014  0.44840  Biso   1.000  O
  O13      1.0000 0.55138  0.94840  0.79014  Biso   1.000  O
  O14      1.0000 0.44862  0.05160  0.79014  Biso   1.000  O
  O15      1.0000 0.55138  0.05160  0.20986  Biso   1.000  O
  O16      1.0000 0.44862  0.94840  0.20986  Biso   1.000  O
  O17      1.0000 0.94840  0.20986  0.44862  Biso   1.000  O
  O18      1.0000 0.05160  0.20986  0.55138  Biso   1.000  O
  O19      1.0000 0.05160  0.79014  0.44862  Biso   1.000  O
  O20      1.0000 0.94840  0.79014  0.55138  Biso   1.000  O
  O21      1.0000 0.20986  0.55138  0.05160  Biso   1.000  O
  O22      1.0000 0.20986  0.44862  0.94840  Biso   1.000  O
  O23      1.0000 0.79014  0.55138  0.94840  Biso   1.000  O
  O24      1.0000 0.79014  0.44862  0.05160  Biso   1.000  O
  O25      1.0000 0.55160  0.94862  0.29014  Biso   1.000  O
  O26      1.0000 0.44840  0.05138  0.29014  Biso   1.000  O
  O27      1.0000 0.44840  0.94862  0.70986  Biso   1.000  O
  O28      1.0000 0.55160  0.05138  0.70986  Biso   1.000  O
  O29      1.0000 0.29014  0.55160  0.94862  Biso   1.000  O
  O30      1.0000 0.29014  0.44840  0.05138  Biso   1.000  O
  O31      1.0000 0.70986  0.44840  0.94862  Biso   1.000  O
  O32      1.0000 0.70986  0.55160  0.05138  Biso   1.000  O
  O33      1.0000 0.94862  0.29014  0.55160  Biso   1.000  O
  O34      1.0000 0.05138  0.29014  0.44840  Biso   1.000  O
  O35      1.0000 0.94862  0.70986  0.44840  Biso   1.000  O
  O36      1.0000 0.05138  0.70986  0.55160  Biso   1.000  O
  O37      1.0000 0.44862  0.05160  0.20986  Biso   1.000  O
  O38      1.0000 0.55138  0.94840  0.20986  Biso   1.000  O
  O39      1.0000 0.44862  0.94840  0.79014  Biso   1.000  O
  O40      1.0000 0.55138  0.05160  0.79014  Biso   1.000  O
  O41      1.0000 0.05160  0.79014  0.55138  Biso   1.000  O
  O42      1.0000 0.94840  0.79014  0.44862  Biso   1.000  O
  O43      1.0000 0.94840  0.20986  0.55138  Biso   1.000  O
  O44      1.0000 0.05160  0.20986  0.44862  Biso   1.000  O
  O45      1.0000 0.79014  0.44862  0.94840  Biso   1.000  O
  O46      1.0000 0.79014  0.55138  0.05160  Biso   1.000  O
  O47      1.0000 0.20986  0.44862  0.05160  Biso   1.000  O
  O48      1.0000 0.20986  0.55138  0.94840  Biso   1.000  O
