data_image0
_cell_length_a       27.56
_cell_length_b       27.56
_cell_length_c       27.56
_cell_angle_alpha    90
_cell_angle_beta     90
_cell_angle_gamma    90

_symmetry_space_group_name_H-M    P 1
_symmetry_int_tables_number       1

loop_
  _symmetry_equiv_pos_as_xyz
  'x, y, z'

loop_
  _atom_site_label
  _atom_site_occupancy
  _atom_site_fract_x
  _atom_site_fract_y
  _atom_site_fract_z
  _atom_site_thermal_displace_type
  _atom_site_B_iso_or_equiv
  _atom_site_type_symbol
  Ni1      1.0000 0.50000  0.79844  0.00000  Biso   1.000  Ni
  Ni2      1.0000 0.50000  0.20156  0.00000  Biso   1.000  Ni
  Ni3      1.0000 0.00000  0.50000  0.79844  Biso   1.000  Ni
  Ni4      1.0000 0.00000  0.50000  0.20156  Biso   1.000  Ni
  Ni5      1.0000 0.79844  0.00000  0.50000  Biso   1.000  Ni
  Ni6      1.0000 0.20156  0.00000  0.50000  Biso   1.000  Ni
  Ni7      1.0000 0.29844  0.00000  0.50000  Biso   1.000  Ni
  Ni8      1.0000 0.70156  0.00000  0.50000  Biso   1.000  Ni
  Ni9      1.0000 0.00000  0.50000  0.70156  Biso   1.000  Ni
  Ni10     1.0000 0.00000  0.50000  0.29844  Biso   1.000  Ni
  Ni11     1.0000 0.50000  0.29844  0.00000  Biso   1.000  Ni
  Ni12     1.0000 0.50000  0.70156  0.00000  Biso   1.000  Ni
  H1       1.0000 0.60980  0.82260  0.88880  Biso   1.000  H
  H2       1.0000 0.66830  0.82210  0.82950  Biso   1.000  H
  H3       1.0000 0.39020  0.17740  0.88880  Biso   1.000  H
  H4       1.0000 0.33170  0.17790  0.82950  Biso   1.000  H
  H5       1.0000 0.39020  0.82260  0.11120  Biso   1.000  H
  H6       1.0000 0.33170  0.82210  0.17050  Biso   1.000  H
  H7       1.0000 0.60980  0.17740  0.11120  Biso   1.000  H
  H8       1.0000 0.66830  0.17790  0.17050  Biso   1.000  H
  H9       1.0000 0.88880  0.60980  0.82260  Biso   1.000  H
  H10      1.0000 0.82950  0.66830  0.82210  Biso   1.000  H
  H11      1.0000 0.88880  0.39020  0.17740  Biso   1.000  H
  H12      1.0000 0.82950  0.33170  0.17790  Biso   1.000  H
  H13      1.0000 0.11120  0.39020  0.82260  Biso   1.000  H
  H14      1.0000 0.17050  0.33170  0.82210  Biso   1.000  H
  H15      1.0000 0.11120  0.60980  0.17740  Biso   1.000  H
  H16      1.0000 0.17050  0.66830  0.17790  Biso   1.000  H
  H17      1.0000 0.82260  0.88880  0.60980  Biso   1.000  H
  H18      1.0000 0.82210  0.82950  0.66830  Biso   1.000  H
  H19      1.0000 0.17740  0.88880  0.39020  Biso   1.000  H
  H20      1.0000 0.17790  0.82950  0.33170  Biso   1.000  H
  H21      1.0000 0.82260  0.11120  0.39020  Biso   1.000  H
  H22      1.0000 0.82210  0.17050  0.33170  Biso   1.000  H
  H23      1.0000 0.17740  0.11120  0.60980  Biso   1.000  H
  H24      1.0000 0.17790  0.17050  0.66830  Biso   1.000  H
  H25      1.0000 0.32260  0.10980  0.61120  Biso   1.000  H
  H26      1.0000 0.32210  0.16830  0.67050  Biso   1.000  H
  H27      1.0000 0.67740  0.89020  0.61120  Biso   1.000  H
  H28      1.0000 0.67790  0.83170  0.67050  Biso   1.000  H
  H29      1.0000 0.32260  0.89020  0.38880  Biso   1.000  H
  H30      1.0000 0.32210  0.83170  0.32950  Biso   1.000  H
  H31      1.0000 0.67740  0.10980  0.38880  Biso   1.000  H
  H32      1.0000 0.67790  0.16830  0.32950  Biso   1.000  H
  H33      1.0000 0.10980  0.38880  0.67740  Biso   1.000  H
  H34      1.0000 0.16830  0.32950  0.67790  Biso   1.000  H
  H35      1.0000 0.89020  0.38880  0.32260  Biso   1.000  H
  H36      1.0000 0.83170  0.32950  0.32210  Biso   1.000  H
  H37      1.0000 0.89020  0.61120  0.67740  Biso   1.000  H
  H38      1.0000 0.83170  0.67050  0.67790  Biso   1.000  H
  H39      1.0000 0.10980  0.61120  0.32260  Biso   1.000  H
  H40      1.0000 0.16830  0.67050  0.32210  Biso   1.000  H
  H41      1.0000 0.38880  0.32260  0.89020  Biso   1.000  H
  H42      1.0000 0.32950  0.32210  0.83170  Biso   1.000  H
  H43      1.0000 0.38880  0.67740  0.10980  Biso   1.000  H
  H44      1.0000 0.32950  0.67790  0.16830  Biso   1.000  H
  H45      1.0000 0.61120  0.32260  0.10980  Biso   1.000  H
  H46      1.0000 0.67050  0.32210  0.16830  Biso   1.000  H
  H47      1.0000 0.61120  0.67740  0.89020  Biso   1.000  H
  H48      1.0000 0.67050  0.67790  0.83170  Biso   1.000  H
  H49      1.0000 0.39020  0.17740  0.11120  Biso   1.000  H
  H50      1.0000 0.33170  0.17790  0.17050  Biso   1.000  H
  H51      1.0000 0.60980  0.82260  0.11120  Biso   1.000  H
  H52      1.0000 0.66830  0.82210  0.17050  Biso   1.000  H
  H53      1.0000 0.60980  0.17740  0.88880  Biso   1.000  H
  H54      1.0000 0.66830  0.17790  0.82950  Biso   1.000  H
  H55      1.0000 0.39020  0.82260  0.88880  Biso   1.000  H
  H56      1.0000 0.33170  0.82210  0.82950  Biso   1.000  H
  H57      1.0000 0.11120  0.39020  0.17740  Biso   1.000  H
  H58      1.0000 0.17050  0.33170  0.17790  Biso   1.000  H
  H59      1.0000 0.11120  0.60980  0.82260  Biso   1.000  H
  H60      1.0000 0.17050  0.66830  0.82210  Biso   1.000  H
  H61      1.0000 0.88880  0.60980  0.17740  Biso   1.000  H
  H62      1.0000 0.82950  0.66830  0.17790  Biso   1.000  H
  H63      1.0000 0.88880  0.39020  0.82260  Biso   1.000  H
  H64      1.0000 0.82950  0.33170  0.82210  Biso   1.000  H
  H65      1.0000 0.17740  0.11120  0.39020  Biso   1.000  H
  H66      1.0000 0.17790  0.17050  0.33170  Biso   1.000  H
  H67      1.0000 0.82260  0.11120  0.60980  Biso   1.000  H
  H68      1.0000 0.82210  0.17050  0.66830  Biso   1.000  H
  H69      1.0000 0.17740  0.88880  0.60980  Biso   1.000  H
  H70      1.0000 0.17790  0.82950  0.66830  Biso   1.000  H
  H71      1.0000 0.82260  0.88880  0.39020  Biso   1.000  H
  H72      1.0000 0.82210  0.82950  0.33170  Biso   1.000  H
  H73      1.0000 0.67740  0.89020  0.38880  Biso   1.000  H
  H74      1.0000 0.67790  0.83170  0.32950  Biso   1.000  H
  H75      1.0000 0.32260  0.10980  0.38880  Biso   1.000  H
  H76      1.0000 0.32210  0.16830  0.32950  Biso   1.000  H
  H77      1.0000 0.67740  0.10980  0.61120  Biso   1.000  H
  H78      1.0000 0.67790  0.16830  0.67050  Biso   1.000  H
  H79      1.0000 0.32260  0.89020  0.61120  Biso   1.000  H
  H80      1.0000 0.32210  0.83170  0.67050  Biso   1.000  H
  H81      1.0000 0.89020  0.61120  0.32260  Biso   1.000  H
  H82      1.0000 0.83170  0.67050  0.32210  Biso   1.000  H
  H83      1.0000 0.10980  0.61120  0.67740  Biso   1.000  H
  H84      1.0000 0.16830  0.67050  0.67790  Biso   1.000  H
  H85      1.0000 0.10980  0.38880  0.32260  Biso   1.000  H
  H86      1.0000 0.16830  0.32950  0.32210  Biso   1.000  H
  H87      1.0000 0.89020  0.38880  0.67740  Biso   1.000  H
  H88      1.0000 0.83170  0.32950  0.67790  Biso   1.000  H
  H89      1.0000 0.61120  0.67740  0.10980  Biso   1.000  H
  H90      1.0000 0.67050  0.67790  0.16830  Biso   1.000  H
  H91      1.0000 0.61120  0.32260  0.89020  Biso   1.000  H
  H92      1.0000 0.67050  0.32210  0.83170  Biso   1.000  H
  H93      1.0000 0.38880  0.67740  0.89020  Biso   1.000  H
  H94      1.0000 0.32950  0.67790  0.83170  Biso   1.000  H
  H95      1.0000 0.38880  0.32260  0.10980  Biso   1.000  H
  H96      1.0000 0.32950  0.32210  0.16830  Biso   1.000  H
  H97      1.0000 0.75000  0.69070  0.80930  Biso   1.000  H
  H98      1.0000 0.25000  0.30930  0.80930  Biso   1.000  H
  H99      1.0000 0.25000  0.69070  0.19070  Biso   1.000  H
  H100     1.0000 0.75000  0.30930  0.19070  Biso   1.000  H
  H101     1.0000 0.80930  0.75000  0.69070  Biso   1.000  H
  H102     1.0000 0.80930  0.25000  0.30930  Biso   1.000  H
  H103     1.0000 0.19070  0.25000  0.69070  Biso   1.000  H
  H104     1.0000 0.19070  0.75000  0.30930  Biso   1.000  H
  H105     1.0000 0.69070  0.80930  0.75000  Biso   1.000  H
  H106     1.0000 0.30930  0.80930  0.25000  Biso   1.000  H
  H107     1.0000 0.69070  0.19070  0.25000  Biso   1.000  H
  H108     1.0000 0.30930  0.19070  0.75000  Biso   1.000  H
  H109     1.0000 0.25000  0.30930  0.19070  Biso   1.000  H
  H110     1.0000 0.75000  0.69070  0.19070  Biso   1.000  H
  H111     1.0000 0.75000  0.30930  0.80930  Biso   1.000  H
  H112     1.0000 0.25000  0.69070  0.80930  Biso   1.000  H
  H113     1.0000 0.19070  0.25000  0.30930  Biso   1.000  H
  H114     1.0000 0.19070  0.75000  0.69070  Biso   1.000  H
  H115     1.0000 0.80930  0.75000  0.30930  Biso   1.000  H
  H116     1.0000 0.80930  0.25000  0.69070  Biso   1.000  H
  H117     1.0000 0.30930  0.19070  0.25000  Biso   1.000  H
  H118     1.0000 0.69070  0.19070  0.75000  Biso   1.000  H
  H119     1.0000 0.30930  0.80930  0.75000  Biso   1.000  H
  H120     1.0000 0.69070  0.80930  0.25000  Biso   1.000  H
  H121     1.0000 0.50000  0.96290  0.92650  Biso   1.000  H
  H122     1.0000 0.50000  0.87880  0.92920  Biso   1.000  H
  H123     1.0000 0.50000  0.03710  0.92650  Biso   1.000  H
  H124     1.0000 0.50000  0.12120  0.92920  Biso   1.000  H
  H125     1.0000 0.50000  0.96290  0.07350  Biso   1.000  H
  H126     1.0000 0.50000  0.87880  0.07080  Biso   1.000  H
  H127     1.0000 0.50000  0.03710  0.07350  Biso   1.000  H
  H128     1.0000 0.50000  0.12120  0.07080  Biso   1.000  H
  H129     1.0000 0.92650  0.50000  0.96290  Biso   1.000  H
  H130     1.0000 0.92920  0.50000  0.87880  Biso   1.000  H
  H131     1.0000 0.92650  0.50000  0.03710  Biso   1.000  H
  H132     1.0000 0.92920  0.50000  0.12120  Biso   1.000  H
  H133     1.0000 0.07350  0.50000  0.96290  Biso   1.000  H
  H134     1.0000 0.07080  0.50000  0.87880  Biso   1.000  H
  H135     1.0000 0.07350  0.50000  0.03710  Biso   1.000  H
  H136     1.0000 0.07080  0.50000  0.12120  Biso   1.000  H
  H137     1.0000 0.96290  0.92650  0.50000  Biso   1.000  H
  H138     1.0000 0.87880  0.92920  0.50000  Biso   1.000  H
  H139     1.0000 0.03710  0.92650  0.50000  Biso   1.000  H
  H140     1.0000 0.12120  0.92920  0.50000  Biso   1.000  H
  H141     1.0000 0.96290  0.07350  0.50000  Biso   1.000  H
  H142     1.0000 0.87880  0.07080  0.50000  Biso   1.000  H
  H143     1.0000 0.03710  0.07350  0.50000  Biso   1.000  H
  H144     1.0000 0.12120  0.07080  0.50000  Biso   1.000  H
  H145     1.0000 0.46290  0.00000  0.57350  Biso   1.000  H
  H146     1.0000 0.37880  0.00000  0.57080  Biso   1.000  H
  H147     1.0000 0.53710  0.00000  0.57350  Biso   1.000  H
  H148     1.0000 0.62120  0.00000  0.57080  Biso   1.000  H
  H149     1.0000 0.46290  0.00000  0.42650  Biso   1.000  H
  H150     1.0000 0.37880  0.00000  0.42920  Biso   1.000  H
  H151     1.0000 0.53710  0.00000  0.42650  Biso   1.000  H
  H152     1.0000 0.62120  0.00000  0.42920  Biso   1.000  H
  H153     1.0000 0.00000  0.42650  0.53710  Biso   1.000  H
  H154     1.0000 0.00000  0.42920  0.62120  Biso   1.000  H
  H155     1.0000 0.00000  0.42650  0.46290  Biso   1.000  H
  H156     1.0000 0.00000  0.42920  0.37880  Biso   1.000  H
  H157     1.0000 0.00000  0.57350  0.53710  Biso   1.000  H
  H158     1.0000 0.00000  0.57080  0.62120  Biso   1.000  H
  H159     1.0000 0.00000  0.57350  0.46290  Biso   1.000  H
  H160     1.0000 0.00000  0.57080  0.37880  Biso   1.000  H
  H161     1.0000 0.42650  0.46290  0.00000  Biso   1.000  H
  H162     1.0000 0.42920  0.37880  0.00000  Biso   1.000  H
  H163     1.0000 0.42650  0.53710  0.00000  Biso   1.000  H
  H164     1.0000 0.42920  0.62120  0.00000  Biso   1.000  H
  H165     1.0000 0.57350  0.46290  0.00000  Biso   1.000  H
  H166     1.0000 0.57080  0.37880  0.00000  Biso   1.000  H
  H167     1.0000 0.57350  0.53710  0.00000  Biso   1.000  H
  H168     1.0000 0.57080  0.62120  0.00000  Biso   1.000  H
  C1       1.0000 0.62179  0.79318  0.87731  Biso   1.000  C
  C2       1.0000 0.65700  0.79284  0.84182  Biso   1.000  C
  C3       1.0000 0.37821  0.20682  0.87731  Biso   1.000  C
  C4       1.0000 0.34300  0.20716  0.84182  Biso   1.000  C
  C5       1.0000 0.37821  0.79318  0.12269  Biso   1.000  C
  C6       1.0000 0.34300  0.79284  0.15818  Biso   1.000  C
  C7       1.0000 0.62179  0.20682  0.12269  Biso   1.000  C
  C8       1.0000 0.65700  0.20716  0.15818  Biso   1.000  C
  C9       1.0000 0.87731  0.62179  0.79318  Biso   1.000  C
  C10      1.0000 0.84182  0.65700  0.79284  Biso   1.000  C
  C11      1.0000 0.87731  0.37821  0.20682  Biso   1.000  C
  C12      1.0000 0.84182  0.34300  0.20716  Biso   1.000  C
  C13      1.0000 0.12269  0.37821  0.79318  Biso   1.000  C
  C14      1.0000 0.15818  0.34300  0.79284  Biso   1.000  C
  C15      1.0000 0.12269  0.62179  0.20682  Biso   1.000  C
  C16      1.0000 0.15818  0.65700  0.20716  Biso   1.000  C
  C17      1.0000 0.79318  0.87731  0.62179  Biso   1.000  C
  C18      1.0000 0.79284  0.84182  0.65700  Biso   1.000  C
  C19      1.0000 0.20682  0.87731  0.37821  Biso   1.000  C
  C20      1.0000 0.20716  0.84182  0.34300  Biso   1.000  C
  C21      1.0000 0.79318  0.12269  0.37821  Biso   1.000  C
  C22      1.0000 0.79284  0.15818  0.34300  Biso   1.000  C
  C23      1.0000 0.20682  0.12269  0.62179  Biso   1.000  C
  C24      1.0000 0.20716  0.15818  0.65700  Biso   1.000  C
  C25      1.0000 0.29318  0.12179  0.62269  Biso   1.000  C
  C26      1.0000 0.29284  0.15700  0.65818  Biso   1.000  C
  C27      1.0000 0.70682  0.87821  0.62269  Biso   1.000  C
  C28      1.0000 0.70716  0.84300  0.65818  Biso   1.000  C
  C29      1.0000 0.29318  0.87821  0.37731  Biso   1.000  C
  C30      1.0000 0.29284  0.84300  0.34182  Biso   1.000  C
  C31      1.0000 0.70682  0.12179  0.37731  Biso   1.000  C
  C32      1.0000 0.70716  0.15700  0.34182  Biso   1.000  C
  C33      1.0000 0.12179  0.37731  0.70682  Biso   1.000  C
  C34      1.0000 0.15700  0.34182  0.70716  Biso   1.000  C
  C35      1.0000 0.87821  0.37731  0.29318  Biso   1.000  C
  C36      1.0000 0.84300  0.34182  0.29284  Biso   1.000  C
  C37      1.0000 0.87821  0.62269  0.70682  Biso   1.000  C
  C38      1.0000 0.84300  0.65818  0.70716  Biso   1.000  C
  C39      1.0000 0.12179  0.62269  0.29318  Biso   1.000  C
  C40      1.0000 0.15700  0.65818  0.29284  Biso   1.000  C
  C41      1.0000 0.37731  0.29318  0.87821  Biso   1.000  C
  C42      1.0000 0.34182  0.29284  0.84300  Biso   1.000  C
  C43      1.0000 0.37731  0.70682  0.12179  Biso   1.000  C
  C44      1.0000 0.34182  0.70716  0.15700  Biso   1.000  C
  C45      1.0000 0.62269  0.29318  0.12179  Biso   1.000  C
  C46      1.0000 0.65818  0.29284  0.15700  Biso   1.000  C
  C47      1.0000 0.62269  0.70682  0.87821  Biso   1.000  C
  C48      1.0000 0.65818  0.70716  0.84300  Biso   1.000  C
  C49      1.0000 0.37821  0.20682  0.12269  Biso   1.000  C
  C50      1.0000 0.34300  0.20716  0.15818  Biso   1.000  C
  C51      1.0000 0.62179  0.79318  0.12269  Biso   1.000  C
  C52      1.0000 0.65700  0.79284  0.15818  Biso   1.000  C
  C53      1.0000 0.62179  0.20682  0.87731  Biso   1.000  C
  C54      1.0000 0.65700  0.20716  0.84182  Biso   1.000  C
  C55      1.0000 0.37821  0.79318  0.87731  Biso   1.000  C
  C56      1.0000 0.34300  0.79284  0.84182  Biso   1.000  C
  C57      1.0000 0.12269  0.37821  0.20682  Biso   1.000  C
  C58      1.0000 0.15818  0.34300  0.20716  Biso   1.000  C
  C59      1.0000 0.12269  0.62179  0.79318  Biso   1.000  C
  C60      1.0000 0.15818  0.65700  0.79284  Biso   1.000  C
  C61      1.0000 0.87731  0.62179  0.20682  Biso   1.000  C
  C62      1.0000 0.84182  0.65700  0.20716  Biso   1.000  C
  C63      1.0000 0.87731  0.37821  0.79318  Biso   1.000  C
  C64      1.0000 0.84182  0.34300  0.79284  Biso   1.000  C
  C65      1.0000 0.20682  0.12269  0.37821  Biso   1.000  C
  C66      1.0000 0.20716  0.15818  0.34300  Biso   1.000  C
  C67      1.0000 0.79318  0.12269  0.62179  Biso   1.000  C
  C68      1.0000 0.79284  0.15818  0.65700  Biso   1.000  C
  C69      1.0000 0.20682  0.87731  0.62179  Biso   1.000  C
  C70      1.0000 0.20716  0.84182  0.65700  Biso   1.000  C
  C71      1.0000 0.79318  0.87731  0.37821  Biso   1.000  C
  C72      1.0000 0.79284  0.84182  0.34300  Biso   1.000  C
  C73      1.0000 0.70682  0.87821  0.37731  Biso   1.000  C
  C74      1.0000 0.70716  0.84300  0.34182  Biso   1.000  C
  C75      1.0000 0.29318  0.12179  0.37731  Biso   1.000  C
  C76      1.0000 0.29284  0.15700  0.34182  Biso   1.000  C
  C77      1.0000 0.70682  0.12179  0.62269  Biso   1.000  C
  C78      1.0000 0.70716  0.15700  0.65818  Biso   1.000  C
  C79      1.0000 0.29318  0.87821  0.62269  Biso   1.000  C
  C80      1.0000 0.29284  0.84300  0.65818  Biso   1.000  C
  C81      1.0000 0.87821  0.62269  0.29318  Biso   1.000  C
  C82      1.0000 0.84300  0.65818  0.29284  Biso   1.000  C
  C83      1.0000 0.12179  0.62269  0.70682  Biso   1.000  C
  C84      1.0000 0.15700  0.65818  0.70716  Biso   1.000  C
  C85      1.0000 0.12179  0.37731  0.29318  Biso   1.000  C
  C86      1.0000 0.15700  0.34182  0.29284  Biso   1.000  C
  C87      1.0000 0.87821  0.37731  0.70682  Biso   1.000  C
  C88      1.0000 0.84300  0.34182  0.70716  Biso   1.000  C
  C89      1.0000 0.62269  0.70682  0.12179  Biso   1.000  C
  C90      1.0000 0.65818  0.70716  0.15700  Biso   1.000  C
  C91      1.0000 0.62269  0.29318  0.87821  Biso   1.000  C
  C92      1.0000 0.65818  0.29284  0.84300  Biso   1.000  C
  C93      1.0000 0.37731  0.70682  0.87821  Biso   1.000  C
  C94      1.0000 0.34182  0.70716  0.84300  Biso   1.000  C
  C95      1.0000 0.37731  0.29318  0.12179  Biso   1.000  C
  C96      1.0000 0.34182  0.29284  0.15700  Biso   1.000  C
  C97      1.0000 0.50000  0.97276  0.00000  Biso   1.000  C
  C98      1.0000 0.50000  0.02724  0.00000  Biso   1.000  C
  C99      1.0000 0.00000  0.50000  0.97276  Biso   1.000  C
  C100     1.0000 0.00000  0.50000  0.02724  Biso   1.000  C
  C101     1.0000 0.97276  0.00000  0.50000  Biso   1.000  C
  C102     1.0000 0.02724  0.00000  0.50000  Biso   1.000  C
  C103     1.0000 0.47276  0.00000  0.50000  Biso   1.000  C
  C104     1.0000 0.52724  0.00000  0.50000  Biso   1.000  C
  C105     1.0000 0.00000  0.50000  0.52724  Biso   1.000  C
  C106     1.0000 0.00000  0.50000  0.47276  Biso   1.000  C
  C107     1.0000 0.50000  0.47276  0.00000  Biso   1.000  C
  C108     1.0000 0.50000  0.52724  0.00000  Biso   1.000  C
  C109     1.0000 0.56562  0.75000  0.93438  Biso   1.000  C
  C110     1.0000 0.60409  0.75000  0.89591  Biso   1.000  C
  C111     1.0000 0.71404  0.75000  0.78596  Biso   1.000  C
  C112     1.0000 0.67579  0.75000  0.82421  Biso   1.000  C
  C113     1.0000 0.43438  0.25000  0.93438  Biso   1.000  C
  C114     1.0000 0.39591  0.25000  0.89591  Biso   1.000  C
  C115     1.0000 0.28596  0.25000  0.78596  Biso   1.000  C
  C116     1.0000 0.32421  0.25000  0.82421  Biso   1.000  C
  C117     1.0000 0.43438  0.75000  0.06562  Biso   1.000  C
  C118     1.0000 0.39591  0.75000  0.10409  Biso   1.000  C
  C119     1.0000 0.28596  0.75000  0.21404  Biso   1.000  C
  C120     1.0000 0.32421  0.75000  0.17579  Biso   1.000  C
  C121     1.0000 0.56562  0.25000  0.06562  Biso   1.000  C
  C122     1.0000 0.60409  0.25000  0.10409  Biso   1.000  C
  C123     1.0000 0.71404  0.25000  0.21404  Biso   1.000  C
  C124     1.0000 0.67579  0.25000  0.17579  Biso   1.000  C
  C125     1.0000 0.93438  0.56562  0.75000  Biso   1.000  C
  C126     1.0000 0.89591  0.60409  0.75000  Biso   1.000  C
  C127     1.0000 0.78596  0.71404  0.75000  Biso   1.000  C
  C128     1.0000 0.82421  0.67579  0.75000  Biso   1.000  C
  C129     1.0000 0.93438  0.43438  0.25000  Biso   1.000  C
  C130     1.0000 0.89591  0.39591  0.25000  Biso   1.000  C
  C131     1.0000 0.78596  0.28596  0.25000  Biso   1.000  C
  C132     1.0000 0.82421  0.32421  0.25000  Biso   1.000  C
  C133     1.0000 0.06562  0.43438  0.75000  Biso   1.000  C
  C134     1.0000 0.10409  0.39591  0.75000  Biso   1.000  C
  C135     1.0000 0.21404  0.28596  0.75000  Biso   1.000  C
  C136     1.0000 0.17579  0.32421  0.75000  Biso   1.000  C
  C137     1.0000 0.06562  0.56562  0.25000  Biso   1.000  C
  C138     1.0000 0.10409  0.60409  0.25000  Biso   1.000  C
  C139     1.0000 0.21404  0.71404  0.25000  Biso   1.000  C
  C140     1.0000 0.17579  0.67579  0.25000  Biso   1.000  C
  C141     1.0000 0.75000  0.93438  0.56562  Biso   1.000  C
  C142     1.0000 0.75000  0.89591  0.60409  Biso   1.000  C
  C143     1.0000 0.75000  0.78596  0.71404  Biso   1.000  C
  C144     1.0000 0.75000  0.82421  0.67579  Biso   1.000  C
  C145     1.0000 0.25000  0.93438  0.43438  Biso   1.000  C
  C146     1.0000 0.25000  0.89591  0.39591  Biso   1.000  C
  C147     1.0000 0.25000  0.78596  0.28596  Biso   1.000  C
  C148     1.0000 0.25000  0.82421  0.32421  Biso   1.000  C
  C149     1.0000 0.75000  0.06562  0.43438  Biso   1.000  C
  C150     1.0000 0.75000  0.10409  0.39591  Biso   1.000  C
  C151     1.0000 0.75000  0.21404  0.28596  Biso   1.000  C
  C152     1.0000 0.75000  0.17579  0.32421  Biso   1.000  C
  C153     1.0000 0.25000  0.06562  0.56562  Biso   1.000  C
  C154     1.0000 0.25000  0.10409  0.60409  Biso   1.000  C
  C155     1.0000 0.25000  0.21404  0.71404  Biso   1.000  C
  C156     1.0000 0.25000  0.17579  0.67579  Biso   1.000  C
  C157     1.0000 0.43438  0.25000  0.06562  Biso   1.000  C
  C158     1.0000 0.39591  0.25000  0.10409  Biso   1.000  C
  C159     1.0000 0.28596  0.25000  0.21404  Biso   1.000  C
  C160     1.0000 0.32421  0.25000  0.17579  Biso   1.000  C
  C161     1.0000 0.56562  0.75000  0.06562  Biso   1.000  C
  C162     1.0000 0.60409  0.75000  0.10409  Biso   1.000  C
  C163     1.0000 0.71404  0.75000  0.21404  Biso   1.000  C
  C164     1.0000 0.67579  0.75000  0.17579  Biso   1.000  C
  C165     1.0000 0.56562  0.25000  0.93438  Biso   1.000  C
  C166     1.0000 0.60409  0.25000  0.89591  Biso   1.000  C
  C167     1.0000 0.71404  0.25000  0.78596  Biso   1.000  C
  C168     1.0000 0.67579  0.25000  0.82421  Biso   1.000  C
  C169     1.0000 0.43438  0.75000  0.93438  Biso   1.000  C
  C170     1.0000 0.39591  0.75000  0.89591  Biso   1.000  C
  C171     1.0000 0.28596  0.75000  0.78596  Biso   1.000  C
  C172     1.0000 0.32421  0.75000  0.82421  Biso   1.000  C
  C173     1.0000 0.06562  0.43438  0.25000  Biso   1.000  C
  C174     1.0000 0.10409  0.39591  0.25000  Biso   1.000  C
  C175     1.0000 0.21404  0.28596  0.25000  Biso   1.000  C
  C176     1.0000 0.17579  0.32421  0.25000  Biso   1.000  C
  C177     1.0000 0.06562  0.56562  0.75000  Biso   1.000  C
  C178     1.0000 0.10409  0.60409  0.75000  Biso   1.000  C
  C179     1.0000 0.21404  0.71404  0.75000  Biso   1.000  C
  C180     1.0000 0.17579  0.67579  0.75000  Biso   1.000  C
  C181     1.0000 0.93438  0.56562  0.25000  Biso   1.000  C
  C182     1.0000 0.89591  0.60409  0.25000  Biso   1.000  C
  C183     1.0000 0.78596  0.71404  0.25000  Biso   1.000  C
  C184     1.0000 0.82421  0.67579  0.25000  Biso   1.000  C
  C185     1.0000 0.93438  0.43438  0.75000  Biso   1.000  C
  C186     1.0000 0.89591  0.39591  0.75000  Biso   1.000  C
  C187     1.0000 0.78596  0.28596  0.75000  Biso   1.000  C
  C188     1.0000 0.82421  0.32421  0.75000  Biso   1.000  C
  C189     1.0000 0.25000  0.06562  0.43438  Biso   1.000  C
  C190     1.0000 0.25000  0.10409  0.39591  Biso   1.000  C
  C191     1.0000 0.25000  0.21404  0.28596  Biso   1.000  C
  C192     1.0000 0.25000  0.17579  0.32421  Biso   1.000  C
  C193     1.0000 0.75000  0.06562  0.56562  Biso   1.000  C
  C194     1.0000 0.75000  0.10409  0.60409  Biso   1.000  C
  C195     1.0000 0.75000  0.21404  0.71404  Biso   1.000  C
  C196     1.0000 0.75000  0.17579  0.67579  Biso   1.000  C
  C197     1.0000 0.25000  0.93438  0.56562  Biso   1.000  C
  C198     1.0000 0.25000  0.89591  0.60409  Biso   1.000  C
  C199     1.0000 0.25000  0.78596  0.71404  Biso   1.000  C
  C200     1.0000 0.25000  0.82421  0.67579  Biso   1.000  C
  C201     1.0000 0.75000  0.93438  0.43438  Biso   1.000  C
  C202     1.0000 0.75000  0.89591  0.39591  Biso   1.000  C
  C203     1.0000 0.75000  0.78596  0.28596  Biso   1.000  C
  C204     1.0000 0.75000  0.82421  0.32421  Biso   1.000  C
  C205     1.0000 0.75000  0.71457  0.78543  Biso   1.000  C
  C206     1.0000 0.25000  0.28543  0.78543  Biso   1.000  C
  C207     1.0000 0.25000  0.71457  0.21457  Biso   1.000  C
  C208     1.0000 0.75000  0.28543  0.21457  Biso   1.000  C
  C209     1.0000 0.78543  0.75000  0.71457  Biso   1.000  C
  C210     1.0000 0.78543  0.25000  0.28543  Biso   1.000  C
  C211     1.0000 0.21457  0.25000  0.71457  Biso   1.000  C
  C212     1.0000 0.21457  0.75000  0.28543  Biso   1.000  C
  C213     1.0000 0.71457  0.78543  0.75000  Biso   1.000  C
  C214     1.0000 0.28543  0.78543  0.25000  Biso   1.000  C
  C215     1.0000 0.71457  0.21457  0.25000  Biso   1.000  C
  C216     1.0000 0.28543  0.21457  0.75000  Biso   1.000  C
  C217     1.0000 0.25000  0.28543  0.21457  Biso   1.000  C
  C218     1.0000 0.75000  0.71457  0.21457  Biso   1.000  C
  C219     1.0000 0.75000  0.28543  0.78543  Biso   1.000  C
  C220     1.0000 0.25000  0.71457  0.78543  Biso   1.000  C
  C221     1.0000 0.21457  0.25000  0.28543  Biso   1.000  C
  C222     1.0000 0.21457  0.75000  0.71457  Biso   1.000  C
  C223     1.0000 0.78543  0.75000  0.28543  Biso   1.000  C
  C224     1.0000 0.78543  0.25000  0.71457  Biso   1.000  C
  C225     1.0000 0.28543  0.21457  0.25000  Biso   1.000  C
  C226     1.0000 0.71457  0.21457  0.75000  Biso   1.000  C
  C227     1.0000 0.28543  0.78543  0.75000  Biso   1.000  C
  C228     1.0000 0.71457  0.78543  0.25000  Biso   1.000  C
  C229     1.0000 0.50000  0.94679  0.95610  Biso   1.000  C
  C230     1.0000 0.50000  0.89617  0.95810  Biso   1.000  C
  C231     1.0000 0.50000  0.05321  0.95610  Biso   1.000  C
  C232     1.0000 0.50000  0.10383  0.95810  Biso   1.000  C
  C233     1.0000 0.50000  0.94679  0.04390  Biso   1.000  C
  C234     1.0000 0.50000  0.89617  0.04190  Biso   1.000  C
  C235     1.0000 0.50000  0.05321  0.04390  Biso   1.000  C
  C236     1.0000 0.50000  0.10383  0.04190  Biso   1.000  C
  C237     1.0000 0.95610  0.50000  0.94679  Biso   1.000  C
  C238     1.0000 0.95810  0.50000  0.89617  Biso   1.000  C
  C239     1.0000 0.95610  0.50000  0.05321  Biso   1.000  C
  C240     1.0000 0.95810  0.50000  0.10383  Biso   1.000  C
  C241     1.0000 0.04390  0.50000  0.94679  Biso   1.000  C
  C242     1.0000 0.04190  0.50000  0.89617  Biso   1.000  C
  C243     1.0000 0.04390  0.50000  0.05321  Biso   1.000  C
  C244     1.0000 0.04190  0.50000  0.10383  Biso   1.000  C
  C245     1.0000 0.94679  0.95610  0.50000  Biso   1.000  C
  C246     1.0000 0.89617  0.95810  0.50000  Biso   1.000  C
  C247     1.0000 0.05321  0.95610  0.50000  Biso   1.000  C
  C248     1.0000 0.10383  0.95810  0.50000  Biso   1.000  C
  C249     1.0000 0.94679  0.04390  0.50000  Biso   1.000  C
  C250     1.0000 0.89617  0.04190  0.50000  Biso   1.000  C
  C251     1.0000 0.05321  0.04390  0.50000  Biso   1.000  C
  C252     1.0000 0.10383  0.04190  0.50000  Biso   1.000  C
  C253     1.0000 0.44679  0.00000  0.54390  Biso   1.000  C
  C254     1.0000 0.39617  0.00000  0.54190  Biso   1.000  C
  C255     1.0000 0.55321  0.00000  0.54390  Biso   1.000  C
  C256     1.0000 0.60383  0.00000  0.54190  Biso   1.000  C
  C257     1.0000 0.44679  0.00000  0.45610  Biso   1.000  C
  C258     1.0000 0.39617  0.00000  0.45810  Biso   1.000  C
  C259     1.0000 0.55321  0.00000  0.45610  Biso   1.000  C
  C260     1.0000 0.60383  0.00000  0.45810  Biso   1.000  C
  C261     1.0000 0.00000  0.45610  0.55321  Biso   1.000  C
  C262     1.0000 0.00000  0.45810  0.60383  Biso   1.000  C
  C263     1.0000 0.00000  0.45610  0.44679  Biso   1.000  C
  C264     1.0000 0.00000  0.45810  0.39617  Biso   1.000  C
  C265     1.0000 0.00000  0.54390  0.55321  Biso   1.000  C
  C266     1.0000 0.00000  0.54190  0.60383  Biso   1.000  C
  C267     1.0000 0.00000  0.54390  0.44679  Biso   1.000  C
  C268     1.0000 0.00000  0.54190  0.39617  Biso   1.000  C
  C269     1.0000 0.45610  0.44679  0.00000  Biso   1.000  C
  C270     1.0000 0.45810  0.39617  0.00000  Biso   1.000  C
  C271     1.0000 0.45610  0.55321  0.00000  Biso   1.000  C
  C272     1.0000 0.45810  0.60383  0.00000  Biso   1.000  C
  C273     1.0000 0.54390  0.44679  0.00000  Biso   1.000  C
  C274     1.0000 0.54190  0.39617  0.00000  Biso   1.000  C
  C275     1.0000 0.54390  0.55321  0.00000  Biso   1.000  C
  C276     1.0000 0.54190  0.60383  0.00000  Biso   1.000  C
  N1       1.0000 0.50000  0.87160  0.00000  Biso   1.000  N
  N2       1.0000 0.50000  0.12840  0.00000  Biso   1.000  N
  N3       1.0000 0.00000  0.50000  0.87160  Biso   1.000  N
  N4       1.0000 0.00000  0.50000  0.12840  Biso   1.000  N
  N5       1.0000 0.87160  0.00000  0.50000  Biso   1.000  N
  N6       1.0000 0.12840  0.00000  0.50000  Biso   1.000  N
  N7       1.0000 0.37160  0.00000  0.50000  Biso   1.000  N
  N8       1.0000 0.62840  0.00000  0.50000  Biso   1.000  N
  N9       1.0000 0.00000  0.50000  0.62840  Biso   1.000  N
  N10      1.0000 0.00000  0.50000  0.37160  Biso   1.000  N
  N11      1.0000 0.50000  0.37160  0.00000  Biso   1.000  N
  N12      1.0000 0.50000  0.62840  0.00000  Biso   1.000  N
  O1       1.0000 0.55081  0.79041  0.94884  Biso   1.000  O
  O2       1.0000 0.44919  0.20959  0.94884  Biso   1.000  O
  O3       1.0000 0.44919  0.79041  0.05116  Biso   1.000  O
  O4       1.0000 0.55081  0.20959  0.05116  Biso   1.000  O
  O5       1.0000 0.94884  0.55081  0.79041  Biso   1.000  O
  O6       1.0000 0.94884  0.44919  0.20959  Biso   1.000  O
  O7       1.0000 0.05116  0.44919  0.79041  Biso   1.000  O
  O8       1.0000 0.05116  0.55081  0.20959  Biso   1.000  O
  O9       1.0000 0.79041  0.94884  0.55081  Biso   1.000  O
  O10      1.0000 0.20959  0.94884  0.44919  Biso   1.000  O
  O11      1.0000 0.79041  0.05116  0.44919  Biso   1.000  O
  O12      1.0000 0.20959  0.05116  0.55081  Biso   1.000  O
  O13      1.0000 0.29041  0.05081  0.55116  Biso   1.000  O
  O14      1.0000 0.70959  0.94919  0.55116  Biso   1.000  O
  O15      1.0000 0.29041  0.94919  0.44884  Biso   1.000  O
  O16      1.0000 0.70959  0.05081  0.44884  Biso   1.000  O
  O17      1.0000 0.05081  0.44884  0.70959  Biso   1.000  O
  O18      1.0000 0.94919  0.44884  0.29041  Biso   1.000  O
  O19      1.0000 0.94919  0.55116  0.70959  Biso   1.000  O
  O20      1.0000 0.05081  0.55116  0.29041  Biso   1.000  O
  O21      1.0000 0.44884  0.29041  0.94919  Biso   1.000  O
  O22      1.0000 0.44884  0.70959  0.05081  Biso   1.000  O
  O23      1.0000 0.55116  0.29041  0.05081  Biso   1.000  O
  O24      1.0000 0.55116  0.70959  0.94919  Biso   1.000  O
  O25      1.0000 0.44919  0.20959  0.05116  Biso   1.000  O
  O26      1.0000 0.55081  0.79041  0.05116  Biso   1.000  O
  O27      1.0000 0.55081  0.20959  0.94884  Biso   1.000  O
  O28      1.0000 0.44919  0.79041  0.94884  Biso   1.000  O
  O29      1.0000 0.05116  0.44919  0.20959  Biso   1.000  O
  O30      1.0000 0.05116  0.55081  0.79041  Biso   1.000  O
  O31      1.0000 0.94884  0.55081  0.20959  Biso   1.000  O
  O32      1.0000 0.94884  0.44919  0.79041  Biso   1.000  O
  O33      1.0000 0.20959  0.05116  0.44919  Biso   1.000  O
  O34      1.0000 0.79041  0.05116  0.55081  Biso   1.000  O
  O35      1.0000 0.20959  0.94884  0.55081  Biso   1.000  O
  O36      1.0000 0.79041  0.94884  0.44919  Biso   1.000  O
  O37      1.0000 0.70959  0.94919  0.44884  Biso   1.000  O
  O38      1.0000 0.29041  0.05081  0.44884  Biso   1.000  O
  O39      1.0000 0.70959  0.05081  0.55116  Biso   1.000  O
  O40      1.0000 0.29041  0.94919  0.55116  Biso   1.000  O
  O41      1.0000 0.94919  0.55116  0.29041  Biso   1.000  O
  O42      1.0000 0.05081  0.55116  0.70959  Biso   1.000  O
  O43      1.0000 0.05081  0.44884  0.29041  Biso   1.000  O
  O44      1.0000 0.94919  0.44884  0.70959  Biso   1.000  O
  O45      1.0000 0.55116  0.70959  0.05081  Biso   1.000  O
  O46      1.0000 0.55116  0.29041  0.94919  Biso   1.000  O
  O47      1.0000 0.44884  0.70959  0.94919  Biso   1.000  O
  O48      1.0000 0.44884  0.29041  0.05081  Biso   1.000  O
