data_image0
_cell_length_a       6.70171
_cell_length_b       19.0658
_cell_length_c       65.5397
_cell_angle_alpha    89.4853
_cell_angle_beta     87.0699
_cell_angle_gamma    79.8775

_symmetry_space_group_name_H-M    P 1
_symmetry_int_tables_number       1

loop_
  _symmetry_equiv_pos_as_xyz
  'x, y, z'

loop_
  _atom_site_label
  _atom_site_occupancy
  _atom_site_fract_x
  _atom_site_fract_y
  _atom_site_fract_z
  _atom_site_thermal_displace_type
  _atom_site_B_iso_or_equiv
  _atom_site_type_symbol
  Cd1      1.0000 0.84839  0.60254  0.83128  Biso   1.000  Cd
  Cd2      1.0000 0.33695  0.65014  0.85936  Biso   1.000  Cd
  Cd3      1.0000 0.28221  0.39746  0.16872  Biso   1.000  Cd
  Cd4      1.0000 0.84645  0.34986  0.14064  Biso   1.000  Cd
  Cd5      1.0000 0.42967  0.10254  0.66872  Biso   1.000  Cd
  Cd6      1.0000 0.94631  0.15014  0.64064  Biso   1.000  Cd
  Cd7      1.0000 0.20093  0.89746  0.33128  Biso   1.000  Cd
  Cd8      1.0000 0.73709  0.84986  0.35936  Biso   1.000  Cd
  Cd9      1.0000 0.01430  0.00000  0.00000  Biso   1.000  Cd
  Cd10     1.0000 0.76430  0.50000  0.50000  Biso   1.000  Cd
  H1       1.0000 0.54700  0.02040  0.91780  Biso   1.000  H
  H2       1.0000 0.28550  0.11080  0.91000  Biso   1.000  H
  H3       1.0000 0.08160  0.98500  0.87300  Biso   1.000  H
  H4       1.0000 0.33470  0.89860  0.88000  Biso   1.000  H
  H5       1.0000 0.01690  0.16700  0.89100  Biso   1.000  H
  H6       1.0000 0.80350  0.08100  0.87340  Biso   1.000  H
  H7       1.0000 0.82350  0.26100  0.88220  Biso   1.000  H
  H8       1.0000 0.57770  0.35820  0.87380  Biso   1.000  H
  H9       1.0000 0.27490  0.23140  0.84380  Biso   1.000  H
  H10      1.0000 0.49830  0.13120  0.85720  Biso   1.000  H
  H11      1.0000 0.20240  0.36200  0.83680  Biso   1.000  H
  H12      1.0000 0.36770  0.44500  0.86300  Biso   1.000  H
  H13      1.0000 0.03620  0.02760  0.67840  Biso   1.000  H
  H14      1.0000 0.85470  0.98580  0.70280  Biso   1.000  H
  H15      1.0000 0.22930  0.03720  0.74260  Biso   1.000  H
  H16      1.0000 0.38880  0.09400  0.71740  Biso   1.000  H
  H17      1.0000 0.99080  0.96080  0.75480  Biso   1.000  H
  H18      1.0000 0.71720  0.93540  0.72760  Biso   1.000  H
  H19      1.0000 0.44990  0.87400  0.73740  Biso   1.000  H
  H20      1.0000 0.29860  0.80440  0.76020  Biso   1.000  H
  H21      1.0000 0.72500  0.81480  0.79980  Biso   1.000  H
  H22      1.0000 0.87150  0.88920  0.77780  Biso   1.000  H
  H23      1.0000 0.44960  0.75620  0.81060  Biso   1.000  H
  H24      1.0000 0.18960  0.72980  0.78200  Biso   1.000  H
  H25      1.0000 0.00910  0.06000  0.95540  Biso   1.000  H
  H26      1.0000 0.80750  0.13740  0.93440  Biso   1.000  H
  H27      1.0000 0.33530  0.14220  0.97520  Biso   1.000  H
  H28      1.0000 0.54360  0.05960  0.99340  Biso   1.000  H
  H29      1.0000 0.47970  0.21580  0.92720  Biso   1.000  H
  H30      1.0000 0.17650  0.21820  0.95560  Biso   1.000  H
  H31      1.0000 0.30490  0.29260  0.90700  Biso   1.000  H
  H32      1.0000 0.09540  0.38080  0.88980  Biso   1.000  H
  H33      1.0000 0.65170  0.38140  0.93240  Biso   1.000  H
  H34      1.0000 0.86370  0.29820  0.95160  Biso   1.000  H
  H35      1.0000 0.62160  0.47580  0.90840  Biso   1.000  H
  H36      1.0000 0.87420  0.46020  0.87420  Biso   1.000  H
  H37      1.0000 0.81900  0.12140  0.75640  Biso   1.000  H
  H38      1.0000 0.64120  0.04520  0.77380  Biso   1.000  H
  H39      1.0000 0.19840  0.20400  0.78560  Biso   1.000  H
  H40      1.0000 0.35230  0.27500  0.76660  Biso   1.000  H
  H41      1.0000 0.38680  0.01320  0.79300  Biso   1.000  H
  H42      1.0000 0.05270  0.10920  0.80160  Biso   1.000  H
  H43      1.0000 0.26180  0.92480  0.81340  Biso   1.000  H
  H44      1.0000 0.07940  0.85020  0.82940  Biso   1.000  H
  H45      1.0000 0.58110  0.00520  0.83380  Biso   1.000  H
  H46      1.0000 0.78370  0.08280  0.81960  Biso   1.000  H
  H47      1.0000 0.55640  0.88920  0.84780  Biso   1.000  H
  H48      1.0000 0.86210  0.77740  0.83900  Biso   1.000  H
  H49      1.0000 0.01720  0.60040  0.89020  Biso   1.000  H
  H50      1.0000 0.70920  0.63820  0.90720  Biso   1.000  H
  H51      1.0000 0.79270  0.83660  0.89580  Biso   1.000  H
  H52      1.0000 0.08700  0.79400  0.87740  Biso   1.000  H
  H53      1.0000 0.50470  0.82400  0.91860  Biso   1.000  H
  H54      1.0000 0.40730  0.69260  0.92060  Biso   1.000  H
  H55      1.0000 0.09470  0.68900  0.94140  Biso   1.000  H
  H56      1.0000 0.79560  0.74260  0.95960  Biso   1.000  H
  H57      1.0000 0.91090  0.93240  0.94000  Biso   1.000  H
  H58      1.0000 0.21100  0.87860  0.92480  Biso   1.000  H
  H59      1.0000 0.60090  0.93640  0.95720  Biso   1.000  H
  H60      1.0000 0.49080  0.81220  0.97040  Biso   1.000  H
  H61      1.0000 0.48520  0.97960  0.08220  Biso   1.000  H
  H62      1.0000 0.30630  0.88920  0.09000  Biso   1.000  H
  H63      1.0000 0.93960  0.01500  0.12700  Biso   1.000  H
  H64      1.0000 0.11330  0.10140  0.12000  Biso   1.000  H
  H65      1.0000 0.07490  0.83300  0.10900  Biso   1.000  H
  H66      1.0000 0.75790  0.91900  0.12660  Biso   1.000  H
  H67      1.0000 0.96670  0.73900  0.11780  Biso   1.000  H
  H68      1.0000 0.80970  0.64180  0.12620  Biso   1.000  H
  H69      1.0000 0.35010  0.76860  0.15620  Biso   1.000  H
  H70      1.0000 0.48670  0.86880  0.14280  Biso   1.000  H
  H71      1.0000 0.40120  0.63800  0.16320  Biso   1.000  H
  H72      1.0000 0.67570  0.55500  0.13700  Biso   1.000  H
  H73      1.0000 0.74220  0.97240  0.32160  Biso   1.000  H
  H74      1.0000 0.54330  0.01420  0.29720  Biso   1.000  H
  H75      1.0000 0.00910  0.96280  0.25740  Biso   1.000  H
  H76      1.0000 0.20020  0.90600  0.28260  Biso   1.000  H
  H77      1.0000 0.70640  0.03920  0.24520  Biso   1.000  H
  H78      1.0000 0.38020  0.06460  0.27240  Biso   1.000  H
  H79      1.0000 0.06130  0.12600  0.26260  Biso   1.000  H
  H80      1.0000 0.86320  0.19560  0.23980  Biso   1.000  H
  H81      1.0000 0.33960  0.18520  0.20020  Biso   1.000  H
  H82      1.0000 0.53850  0.11080  0.22220  Biso   1.000  H
  H83      1.0000 0.01640  0.24380  0.18940  Biso   1.000  H
  H84      1.0000 0.70140  0.27020  0.21800  Biso   1.000  H
  H85      1.0000 0.02450  0.94000  0.04460  Biso   1.000  H
  H86      1.0000 0.87930  0.86260  0.06560  Biso   1.000  H
  H87      1.0000 0.45270  0.85780  0.02480  Biso   1.000  H
  H88      1.0000 0.59660  0.94040  0.00660  Biso   1.000  H
  H89      1.0000 0.62270  0.78420  0.07280  Biso   1.000  H
  H90      1.0000 0.35030  0.78180  0.04440  Biso   1.000  H
  H91      1.0000 0.50450  0.70740  0.09300  Biso   1.000  H
  H92      1.0000 0.36600  0.61920  0.11020  Biso   1.000  H
  H93      1.0000 0.96550  0.61860  0.06760  Biso   1.000  H
  H94      1.0000 0.11350  0.70180  0.04840  Biso   1.000  H
  H95      1.0000 0.00580  0.52420  0.09160  Biso   1.000  H
  H96      1.0000 0.20860  0.53980  0.12580  Biso   1.000  H
  H97      1.0000 0.69680  0.87860  0.24360  Biso   1.000  H
  H98      1.0000 0.46020  0.95480  0.22620  Biso   1.000  H
  H99      1.0000 0.18800  0.79600  0.21440  Biso   1.000  H
  H100     1.0000 0.39390  0.72500  0.23340  Biso   1.000  H
  H101     1.0000 0.19300  0.98680  0.20700  Biso   1.000  H
  H102     1.0000 0.96350  0.89080  0.19840  Biso   1.000  H
  H103     1.0000 0.00000  0.07520  0.18660  Biso   1.000  H
  H104     1.0000 0.75900  0.14980  0.17060  Biso   1.000  H
  H105     1.0000 0.42010  0.99480  0.16620  Biso   1.000  H
  H106     1.0000 0.68610  0.91720  0.18040  Biso   1.000  H
  H107     1.0000 0.29340  0.11080  0.15220  Biso   1.000  H
  H108     1.0000 0.47850  0.22260  0.16100  Biso   1.000  H
  H109     1.0000 0.50780  0.39960  0.10980  Biso   1.000  H
  H110     1.0000 0.25460  0.36180  0.09280  Biso   1.000  H
  H111     1.0000 0.52510  0.16340  0.10420  Biso   1.000  H
  H112     1.0000 0.75840  0.20600  0.12260  Biso   1.000  H
  H113     1.0000 0.24730  0.17600  0.08140  Biso   1.000  H
  H114     1.0000 0.02050  0.30740  0.07940  Biso   1.000  H
  H115     1.0000 0.72510  0.31100  0.05860  Biso   1.000  H
  H116     1.0000 0.49780  0.25740  0.04040  Biso   1.000  H
  H117     1.0000 0.78330  0.06760  0.06000  Biso   1.000  H
  H118     1.0000 0.01440  0.12140  0.07520  Biso   1.000  H
  H119     1.0000 0.49450  0.06360  0.04280  Biso   1.000  H
  H120     1.0000 0.27340  0.18780  0.02960  Biso   1.000  H
  H121     1.0000 0.21480  0.52040  0.58220  Biso   1.000  H
  H122     1.0000 0.94550  0.61080  0.59000  Biso   1.000  H
  H123     1.0000 0.70460  0.48500  0.62700  Biso   1.000  H
  H124     1.0000 0.96470  0.39860  0.62000  Biso   1.000  H
  H125     1.0000 0.65790  0.66700  0.60900  Biso   1.000  H
  H126     1.0000 0.42690  0.58100  0.62660  Biso   1.000  H
  H127     1.0000 0.45570  0.76100  0.61780  Biso   1.000  H
  H128     1.0000 0.20150  0.85820  0.62620  Biso   1.000  H
  H129     1.0000 0.86870  0.73140  0.65620  Biso   1.000  H
  H130     1.0000 0.10550  0.63120  0.64280  Biso   1.000  H
  H131     1.0000 0.78920  0.86200  0.66320  Biso   1.000  H
  H132     1.0000 0.98070  0.94500  0.63700  Biso   1.000  H
  H133     1.0000 0.46460  0.52760  0.82160  Biso   1.000  H
  H134     1.0000 0.30750  0.48580  0.79720  Biso   1.000  H
  H135     1.0000 0.72190  0.53720  0.75740  Biso   1.000  H
  H136     1.0000 0.85620  0.59400  0.78260  Biso   1.000  H
  H137     1.0000 0.49560  0.46080  0.74520  Biso   1.000  H
  H138     1.0000 0.19480  0.43540  0.77240  Biso   1.000  H
  H139     1.0000 0.93730  0.37400  0.76260  Biso   1.000  H
  H140     1.0000 0.80880  0.30440  0.73980  Biso   1.000  H
  H141     1.0000 0.27480  0.31480  0.70020  Biso   1.000  H
  H142     1.0000 0.39930  0.38920  0.72220  Biso   1.000  H
  H143     1.0000 0.01020  0.25620  0.68940  Biso   1.000  H
  H144     1.0000 0.72160  0.22980  0.71800  Biso   1.000  H
  H145     1.0000 0.71450  0.56000  0.54460  Biso   1.000  H
  H146     1.0000 0.49190  0.63740  0.56560  Biso   1.000  H
  H147     1.0000 0.06050  0.64220  0.52480  Biso   1.000  H
  H148     1.0000 0.28700  0.55960  0.50660  Biso   1.000  H
  H149     1.0000 0.15690  0.71580  0.57280  Biso   1.000  H
  H150     1.0000 0.88210  0.71820  0.54440  Biso   1.000  H
  H151     1.0000 0.96190  0.79260  0.59300  Biso   1.000  H
  H152     1.0000 0.73520  0.88080  0.61020  Biso   1.000  H
  H153     1.0000 0.33410  0.88140  0.56760  Biso   1.000  H
  H154     1.0000 0.56530  0.79820  0.54840  Biso   1.000  H
  H155     1.0000 0.28000  0.97580  0.59160  Biso   1.000  H
  H156     1.0000 0.49840  0.96020  0.62580  Biso   1.000  H
  H157     1.0000 0.32540  0.62140  0.74360  Biso   1.000  H
  H158     1.0000 0.16500  0.54520  0.72620  Biso   1.000  H
  H159     1.0000 0.73400  0.70400  0.71440  Biso   1.000  H
  H160     1.0000 0.86890  0.77500  0.73340  Biso   1.000  H
  H161     1.0000 0.92980  0.51320  0.70700  Biso   1.000  H
  H162     1.0000 0.60430  0.60920  0.69840  Biso   1.000  H
  H163     1.0000 0.82520  0.42480  0.68660  Biso   1.000  H
  H164     1.0000 0.65880  0.35020  0.67060  Biso   1.000  H
  H165     1.0000 0.16490  0.50520  0.66620  Biso   1.000  H
  H166     1.0000 0.35330  0.58280  0.68040  Biso   1.000  H
  H167     1.0000 0.15420  0.38920  0.65220  Biso   1.000  H
  H168     1.0000 0.45110  0.27740  0.66100  Biso   1.000  H
  H169     1.0000 0.65740  0.10040  0.60980  Biso   1.000  H
  H170     1.0000 0.36640  0.13820  0.59280  Biso   1.000  H
  H171     1.0000 0.43850  0.33660  0.60420  Biso   1.000  H
  H172     1.0000 0.71440  0.29400  0.62260  Biso   1.000  H
  H173     1.0000 0.17330  0.32400  0.58140  Biso   1.000  H
  H174     1.0000 0.07790  0.19260  0.57940  Biso   1.000  H
  H175     1.0000 0.78610  0.18900  0.55860  Biso   1.000  H
  H176     1.0000 0.50520  0.24260  0.54040  Biso   1.000  H
  H177     1.0000 0.60090  0.43240  0.56000  Biso   1.000  H
  H178     1.0000 0.88580  0.37860  0.57520  Biso   1.000  H
  H179     1.0000 0.30810  0.43640  0.54280  Biso   1.000  H
  H180     1.0000 0.21120  0.31220  0.52960  Biso   1.000  H
  H181     1.0000 0.31740  0.47960  0.41780  Biso   1.000  H
  H182     1.0000 0.14630  0.38920  0.41000  Biso   1.000  H
  H183     1.0000 0.81660  0.51500  0.37300  Biso   1.000  H
  H184     1.0000 0.98330  0.60140  0.38000  Biso   1.000  H
  H185     1.0000 0.93390  0.33300  0.39100  Biso   1.000  H
  H186     1.0000 0.63450  0.41900  0.37340  Biso   1.000  H
  H187     1.0000 0.83450  0.23900  0.38220  Biso   1.000  H
  H188     1.0000 0.68590  0.14180  0.37380  Biso   1.000  H
  H189     1.0000 0.25630  0.26860  0.34380  Biso   1.000  H
  H190     1.0000 0.37950  0.36880  0.35720  Biso   1.000  H
  H191     1.0000 0.31440  0.13800  0.33680  Biso   1.000  H
  H192     1.0000 0.56270  0.05500  0.36300  Biso   1.000  H
  H193     1.0000 0.81380  0.47240  0.17840  Biso   1.000  H
  H194     1.0000 0.59050  0.51420  0.20280  Biso   1.000  H
  H195     1.0000 0.01650  0.46280  0.24260  Biso   1.000  H
  H196     1.0000 0.23280  0.40600  0.21740  Biso   1.000  H
  H197     1.0000 0.70160  0.53920  0.25480  Biso   1.000  H
  H198     1.0000 0.40260  0.56460  0.22760  Biso   1.000  H
  H199     1.0000 0.07390  0.62600  0.23740  Biso   1.000  H
  H200     1.0000 0.85300  0.69560  0.26020  Biso   1.000  H
  H201     1.0000 0.28980  0.68520  0.29980  Biso   1.000  H
  H202     1.0000 0.51070  0.61080  0.27780  Biso   1.000  H
  H203     1.0000 0.95580  0.74380  0.31060  Biso   1.000  H
  H204     1.0000 0.66940  0.77020  0.28200  Biso   1.000  H
  H205     1.0000 0.81910  0.44000  0.45540  Biso   1.000  H
  H206     1.0000 0.69490  0.36260  0.43440  Biso   1.000  H
  H207     1.0000 0.22750  0.35780  0.47520  Biso   1.000  H
  H208     1.0000 0.35320  0.44040  0.49340  Biso   1.000  H
  H209     1.0000 0.44550  0.28420  0.42720  Biso   1.000  H
  H210     1.0000 0.14470  0.28180  0.45560  Biso   1.000  H
  H211     1.0000 0.34750  0.20740  0.40700  Biso   1.000  H
  H212     1.0000 0.22620  0.11920  0.38980  Biso   1.000  H
  H213     1.0000 0.78310  0.11860  0.43240  Biso   1.000  H
  H214     1.0000 0.91190  0.20180  0.45160  Biso   1.000  H
  H215     1.0000 0.84740  0.02420  0.40840  Biso   1.000  H
  H216     1.0000 0.08440  0.03980  0.37420  Biso   1.000  H
  H217     1.0000 0.69040  0.37860  0.25640  Biso   1.000  H
  H218     1.0000 0.43640  0.45480  0.27380  Biso   1.000  H
  H219     1.0000 0.15240  0.29600  0.28560  Biso   1.000  H
  H220     1.0000 0.37730  0.22500  0.26660  Biso   1.000  H
  H221     1.0000 0.15000  0.48680  0.29300  Biso   1.000  H
  H222     1.0000 0.91190  0.39080  0.30160  Biso   1.000  H
  H223     1.0000 0.93660  0.57520  0.31340  Biso   1.000  H
  H224     1.0000 0.67960  0.64980  0.32940  Biso   1.000  H
  H225     1.0000 0.33630  0.49480  0.33380  Biso   1.000  H
  H226     1.0000 0.61650  0.41720  0.31960  Biso   1.000  H
  H227     1.0000 0.19560  0.61080  0.34780  Biso   1.000  H
  H228     1.0000 0.38950  0.72260  0.33900  Biso   1.000  H
  H229     1.0000 0.36760  0.89960  0.39020  Biso   1.000  H
  H230     1.0000 0.09740  0.86180  0.40720  Biso   1.000  H
  H231     1.0000 0.37930  0.66340  0.39580  Biso   1.000  H
  H232     1.0000 0.63100  0.70600  0.37740  Biso   1.000  H
  H233     1.0000 0.07870  0.67600  0.41860  Biso   1.000  H
  H234     1.0000 0.84990  0.80740  0.42060  Biso   1.000  H
  H235     1.0000 0.53370  0.81100  0.44140  Biso   1.000  H
  H236     1.0000 0.28820  0.75740  0.45960  Biso   1.000  H
  H237     1.0000 0.59330  0.56760  0.44000  Biso   1.000  H
  H238     1.0000 0.83960  0.62140  0.42480  Biso   1.000  H
  H239     1.0000 0.28730  0.56360  0.45720  Biso   1.000  H
  H240     1.0000 0.05300  0.68780  0.47040  Biso   1.000  H
  C1       1.0000 0.45660  0.01260  0.90820  Biso   1.000  C
  C2       1.0000 0.29570  0.06740  0.90320  Biso   1.000  C
  C3       1.0000 0.15510  0.06220  0.88960  Biso   1.000  C
  C4       1.0000 0.17772  0.99480  0.88176  Biso   1.000  C
  C5       1.0000 0.32750  0.94300  0.88600  Biso   1.000  C
  C6       1.0000 0.99630  0.12360  0.88580  Biso   1.000  C
  C7       1.0000 0.83520  0.12480  0.87680  Biso   1.000  C
  C8       1.0000 0.69030  0.18880  0.87060  Biso   1.000  C
  C9       1.0000 0.71270  0.25360  0.87500  Biso   1.000  C
  C10      1.0000 0.56900  0.31300  0.86900  Biso   1.000  C
  C11      1.0000 0.42260  0.30620  0.85660  Biso   1.000  C
  C12      1.0000 0.38250  0.23740  0.85160  Biso   1.000  C
  C13      1.0000 0.52060  0.17740  0.85940  Biso   1.000  C
  C14      1.0000 0.28537  0.37020  0.84706  Biso   1.000  C
  C15      1.0000 0.28257  0.43580  0.85306  Biso   1.000  C
  C16      1.0000 0.14505  0.49380  0.84410  Biso   1.000  C
  C17      1.0000 0.07309  0.03200  0.69182  Biso   1.000  C
  C18      1.0000 0.97024  0.00340  0.70612  Biso   1.000  C
  C19      1.0000 0.02854  0.99920  0.72572  Biso   1.000  C
  C20      1.0000 0.18734  0.03600  0.72932  Biso   1.000  C
  C21      1.0000 0.28495  0.06980  0.71430  Biso   1.000  C
  C22      1.0000 0.93478  0.96240  0.74204  Biso   1.000  C
  C23      1.0000 0.77461  0.93060  0.74018  Biso   1.000  C
  C24      1.0000 0.67676  0.88900  0.75548  Biso   1.000  C
  C25      1.0000 0.50335  0.86320  0.75010  Biso   1.000  C
  C26      1.0000 0.41438  0.82160  0.76364  Biso   1.000  C
  C27      1.0000 0.49237  0.80500  0.78226  Biso   1.000  C
  C28      1.0000 0.66811  0.82840  0.78738  Biso   1.000  C
  C29      1.0000 0.75701  0.87180  0.77418  Biso   1.000  C
  C30      1.0000 0.39559  0.76100  0.79782  Biso   1.000  C
  C31      1.0000 0.24196  0.72920  0.79488  Biso   1.000  C
  C32      1.0000 0.14930  0.69100  0.81240  Biso   1.000  C
  C33      1.0000 0.87375  0.07720  0.95930  Biso   1.000  C
  C34      1.0000 0.75266  0.12380  0.94688  Biso   1.000  C
  C35      1.0000 0.55036  0.15100  0.95228  Biso   1.000  C
  C36      1.0000 0.46936  0.12660  0.97068  Biso   1.000  C
  C37      1.0000 0.59882  0.07860  0.98176  Biso   1.000  C
  C38      1.0000 0.41987  0.20280  0.93946  Biso   1.000  C
  C39      1.0000 0.23544  0.23180  0.94332  Biso   1.000  C
  C40      1.0000 0.09799  0.28540  0.93062  Biso   1.000  C
  C41      1.0000 0.17437  0.31100  0.91226  Biso   1.000  C
  C42      1.0000 0.04959  0.36460  0.90222  Biso   1.000  C
  C43      1.0000 0.86198  0.39400  0.91004  Biso   1.000  C
  C44      1.0000 0.78629  0.36560  0.92782  Biso   1.000  C
  C45      1.0000 0.90880  0.31340  0.93900  Biso   1.000  C
  C46      1.0000 0.73303  0.45340  0.90054  Biso   1.000  C
  C47      1.0000 0.75745  0.47920  0.88190  Biso   1.000  C
  C48      1.0000 0.61288  0.53580  0.87244  Biso   1.000  C
  C49      1.0000 0.68740  0.13760  0.76160  Biso   1.000  C
  C50      1.0000 0.58040  0.09260  0.77260  Biso   1.000  C
  C51      1.0000 0.38850  0.11300  0.78200  Biso   1.000  C
  C52      1.0000 0.32120  0.18440  0.77920  Biso   1.000  C
  C53      1.0000 0.41420  0.22760  0.76800  Biso   1.000  C
  C54      1.0000 0.30560  0.05800  0.79280  Biso   1.000  C
  C55      1.0000 0.13190  0.06400  0.80220  Biso   1.000  C
  C56      1.0000 0.03980  0.01300  0.81340  Biso   1.000  C
  C57      1.0000 0.12660  0.94140  0.81740  Biso   1.000  C
  C58      1.0000 0.01811  0.89680  0.82698  Biso   1.000  C
  C59      1.0000 0.81020  0.92020  0.83340  Biso   1.000  C
  C60      1.0000 0.71730  0.98940  0.83000  Biso   1.000  C
  C61      1.0000 0.84020  0.03480  0.82080  Biso   1.000  C
  C62      1.0000 0.68423  0.86920  0.84234  Biso   1.000  C
  C63      1.0000 0.73153  0.79960  0.84334  Biso   1.000  C
  C64      1.0000 0.58099  0.75480  0.85122  Biso   1.000  C
  C65      1.0000 0.96621  0.64900  0.89058  Biso   1.000  C
  C66      1.0000 0.78367  0.67120  0.90146  Biso   1.000  C
  C67      1.0000 0.71536  0.74360  0.90368  Biso   1.000  C
  C68      1.0000 0.83298  0.78760  0.89444  Biso   1.000  C
  C69      1.0000 0.01028  0.76220  0.88324  Biso   1.000  C
  C70      1.0000 0.52441  0.77540  0.91578  Biso   1.000  C
  C71      1.0000 0.38595  0.74160  0.92250  Biso   1.000  C
  C72      1.0000 0.19288  0.77700  0.93324  Biso   1.000  C
  C73      1.0000 0.06179  0.73840  0.94202  Biso   1.000  C
  C74      1.0000 0.87608  0.76960  0.95224  Biso   1.000  C
  C75      1.0000 0.81882  0.84800  0.95036  Biso   1.000  C
  C76      1.0000 0.94600  0.88320  0.94080  Biso   1.000  C
  C77      1.0000 0.12860  0.85100  0.93180  Biso   1.000  C
  C78      1.0000 0.62476  0.88740  0.95908  Biso   1.000  C
  C79      1.0000 0.48281  0.86120  0.96918  Biso   1.000  C
  C80      1.0000 0.30802  0.90920  0.97876  Biso   1.000  C
  C81      1.0000 0.37740  0.98740  0.09180  Biso   1.000  C
  C82      1.0000 0.26630  0.93260  0.09680  Biso   1.000  C
  C83      1.0000 0.10690  0.93780  0.11040  Biso   1.000  C
  C84      1.0000 0.05428  0.00520  0.11824  Biso   1.000  C
  C85      1.0000 0.15650  0.05700  0.11400  Biso   1.000  C
  C86      1.0000 0.00570  0.87640  0.11420  Biso   1.000  C
  C87      1.0000 0.83680  0.87520  0.12320  Biso   1.000  C
  C88      1.0000 0.74970  0.81120  0.12940  Biso   1.000  C
  C89      1.0000 0.84130  0.74640  0.12500  Biso   1.000  C
  C90      1.0000 0.75100  0.68700  0.13100  Biso   1.000  C
  C91      1.0000 0.58540  0.69380  0.14340  Biso   1.000  C
  C92      1.0000 0.47150  0.76260  0.14840  Biso   1.000  C
  C93      1.0000 0.55740  0.82260  0.14060  Biso   1.000  C
  C94      1.0000 0.50263  0.62980  0.15294  Biso   1.000  C
  C95      1.0000 0.57143  0.56420  0.14694  Biso   1.000  C
  C96      1.0000 0.48295  0.50620  0.15590  Biso   1.000  C
  C97      1.0000 0.79691  0.96800  0.30818  Biso   1.000  C
  C98      1.0000 0.67976  0.99660  0.29388  Biso   1.000  C
  C99      1.0000 0.75346  0.00080  0.27428  Biso   1.000  C
  C100     1.0000 0.95266  0.96400  0.27068  Biso   1.000  C
  C101     1.0000 0.06905  0.93020  0.28570  Biso   1.000  C
  C102     1.0000 0.63922  0.03760  0.25796  Biso   1.000  C
  C103     1.0000 0.44539  0.06940  0.25982  Biso   1.000  C
  C104     1.0000 0.32124  0.11100  0.24452  Biso   1.000  C
  C105     1.0000 0.11665  0.13680  0.24990  Biso   1.000  C
  C106     1.0000 0.99962  0.17840  0.23636  Biso   1.000  C
  C107     1.0000 0.07963  0.19500  0.21774  Biso   1.000  C
  C108     1.0000 0.28389  0.17160  0.21262  Biso   1.000  C
  C109     1.0000 0.40299  0.12820  0.22582  Biso   1.000  C
  C110     1.0000 0.95441  0.23900  0.20218  Biso   1.000  C
  C111     1.0000 0.76604  0.27080  0.20512  Biso   1.000  C
  C112     1.0000 0.65270  0.30900  0.18760  Biso   1.000  C
  C113     1.0000 0.91025  0.92280  0.04070  Biso   1.000  C
  C114     1.0000 0.82334  0.87620  0.05312  Biso   1.000  C
  C115     1.0000 0.65364  0.84900  0.04772  Biso   1.000  C
  C116     1.0000 0.56664  0.87340  0.02932  Biso   1.000  C
  C117     1.0000 0.65918  0.92140  0.01824  Biso   1.000  C
  C118     1.0000 0.56213  0.79720  0.06054  Biso   1.000  C
  C119     1.0000 0.41056  0.76820  0.05668  Biso   1.000  C
  C120     1.0000 0.31401  0.71460  0.06938  Biso   1.000  C
  C121     1.0000 0.39763  0.68900  0.08774  Biso   1.000  C
  C122     1.0000 0.31641  0.63540  0.09778  Biso   1.000  C
  C123     1.0000 0.16602  0.60600  0.08996  Biso   1.000  C
  C124     1.0000 0.07971  0.63440  0.07218  Biso   1.000  C
  C125     1.0000 0.16120  0.68660  0.06100  Biso   1.000  C
  C126     1.0000 0.08697  0.54660  0.09946  Biso   1.000  C
  C127     1.0000 0.11855  0.52080  0.11810  Biso   1.000  C
  C128     1.0000 0.02112  0.46420  0.12756  Biso   1.000  C
  C129     1.0000 0.58660  0.86240  0.23840  Biso   1.000  C
  C130     1.0000 0.44560  0.90740  0.22740  Biso   1.000  C
  C131     1.0000 0.28350  0.88700  0.21800  Biso   1.000  C
  C132     1.0000 0.28480  0.81560  0.22080  Biso   1.000  C
  C133     1.0000 0.40980  0.77240  0.23200  Biso   1.000  C
  C134     1.0000 0.15640  0.94200  0.20720  Biso   1.000  C
  C135     1.0000 0.99810  0.93600  0.19780  Biso   1.000  C
  C136     1.0000 0.86620  0.98700  0.18660  Biso   1.000  C
  C137     1.0000 0.88540  0.05860  0.18260  Biso   1.000  C
  C138     1.0000 0.74189  0.10320  0.17302  Biso   1.000  C
  C139     1.0000 0.56380  0.07980  0.16660  Biso   1.000  C
  C140     1.0000 0.53670  0.01060  0.17000  Biso   1.000  C
  C141     1.0000 0.69580  0.96520  0.17920  Biso   1.000  C
  C142     1.0000 0.39577  0.13080  0.15766  Biso   1.000  C
  C143     1.0000 0.37447  0.20040  0.15666  Biso   1.000  C
  C144     1.0000 0.18701  0.24520  0.14878  Biso   1.000  C
  C145     1.0000 0.50579  0.35100  0.10942  Biso   1.000  C
  C146     1.0000 0.35633  0.32880  0.09854  Biso   1.000  C
  C147     1.0000 0.36264  0.25640  0.09632  Biso   1.000  C
  C148     1.0000 0.51502  0.21240  0.10556  Biso   1.000  C
  C149     1.0000 0.65572  0.23780  0.11676  Biso   1.000  C
  C150     1.0000 0.21559  0.22460  0.08422  Biso   1.000  C
  C151     1.0000 0.05005  0.25840  0.07750  Biso   1.000  C
  C152     1.0000 0.90312  0.22300  0.06676  Biso   1.000  C
  C153     1.0000 0.74221  0.26160  0.05798  Biso   1.000  C
  C154     1.0000 0.59792  0.23040  0.04776  Biso   1.000  C
  C155     1.0000 0.61718  0.15200  0.04964  Biso   1.000  C
  C156     1.0000 0.77000  0.11680  0.05920  Biso   1.000  C
  C157     1.0000 0.91140  0.14900  0.06820  Biso   1.000  C
  C158     1.0000 0.47124  0.11260  0.04092  Biso   1.000  C
  C159     1.0000 0.31319  0.13880  0.03082  Biso   1.000  C
  C160     1.0000 0.19598  0.09080  0.02124  Biso   1.000  C
  C161     1.0000 0.11480  0.51260  0.59180  Biso   1.000  C
  C162     1.0000 0.94890  0.56740  0.59680  Biso   1.000  C
  C163     1.0000 0.79470  0.56220  0.61040  Biso   1.000  C
  C164     1.0000 0.80948  0.49480  0.61824  Biso   1.000  C
  C165     1.0000 0.96350  0.44300  0.61400  Biso   1.000  C
  C166     1.0000 0.63210  0.62360  0.61420  Biso   1.000  C
  C167     1.0000 0.46200  0.62480  0.62320  Biso   1.000  C
  C168     1.0000 0.31090  0.68880  0.62940  Biso   1.000  C
  C169     1.0000 0.33770  0.75360  0.62500  Biso   1.000  C
  C170     1.0000 0.18800  0.81300  0.63100  Biso   1.000  C
  C171     1.0000 0.02920  0.80620  0.64340  Biso   1.000  C
  C172     1.0000 0.98410  0.73740  0.64840  Biso   1.000  C
  C173     1.0000 0.13000  0.67740  0.64060  Biso   1.000  C
  C174     1.0000 0.88243  0.87020  0.65294  Biso   1.000  C
  C175     1.0000 0.88563  0.93580  0.64694  Biso   1.000  C
  C176     1.0000 0.73915  0.99380  0.65590  Biso   1.000  C
  C177     1.0000 0.51491  0.53200  0.80818  Biso   1.000  C
  C178     1.0000 0.42636  0.50340  0.79388  Biso   1.000  C
  C179     1.0000 0.50426  0.49920  0.77428  Biso   1.000  C
  C180     1.0000 0.66666  0.53600  0.77068  Biso   1.000  C
  C181     1.0000 0.74925  0.56980  0.78570  Biso   1.000  C
  C182     1.0000 0.42682  0.46240  0.75796  Biso   1.000  C
  C183     1.0000 0.26479  0.43060  0.75982  Biso   1.000  C
  C184     1.0000 0.18224  0.38900  0.74452  Biso   1.000  C
  C185     1.0000 0.00345  0.36320  0.74990  Biso   1.000  C
  C186     1.0000 0.92802  0.32160  0.73636  Biso   1.000  C
  C187     1.0000 0.02463  0.30500  0.71774  Biso   1.000  C
  C188     1.0000 0.20549  0.32840  0.71262  Biso   1.000  C
  C189     1.0000 0.28119  0.37180  0.72582  Biso   1.000  C
  C190     1.0000 0.94341  0.26100  0.70218  Biso   1.000  C
  C191     1.0000 0.78684  0.22920  0.70512  Biso   1.000  C
  C192     1.0000 0.71170  0.19100  0.68760  Biso   1.000  C
  C193     1.0000 0.58305  0.57720  0.54070  Biso   1.000  C
  C194     1.0000 0.44954  0.62380  0.55312  Biso   1.000  C
  C195     1.0000 0.25264  0.65100  0.54772  Biso   1.000  C
  C196     1.0000 0.19004  0.62660  0.52932  Biso   1.000  C
  C197     1.0000 0.33058  0.57860  0.51824  Biso   1.000  C
  C198     1.0000 0.10933  0.70280  0.56054  Biso   1.000  C
  C199     1.0000 0.92876  0.73180  0.55668  Biso   1.000  C
  C200     1.0000 0.77861  0.78540  0.56938  Biso   1.000  C
  C201     1.0000 0.83663  0.81100  0.58774  Biso   1.000  C
  C202     1.0000 0.70181  0.86460  0.59778  Biso   1.000  C
  C203     1.0000 0.52202  0.89400  0.58996  Biso   1.000  C
  C204     1.0000 0.46411  0.86560  0.57218  Biso   1.000  C
  C205     1.0000 0.59780  0.81340  0.56100  Biso   1.000  C
  C206     1.0000 0.38357  0.95340  0.59946  Biso   1.000  C
  C207     1.0000 0.38935  0.97920  0.61810  Biso   1.000  C
  C208     1.0000 0.23532  0.03580  0.62756  Biso   1.000  C
  C209     1.0000 0.19900  0.63760  0.73840  Biso   1.000  C
  C210     1.0000 0.10300  0.59260  0.72740  Biso   1.000  C
  C211     1.0000 0.92050  0.61300  0.71800  Biso   1.000  C
  C212     1.0000 0.85040  0.68440  0.72080  Biso   1.000  C
  C213     1.0000 0.93220  0.72760  0.73200  Biso   1.000  C
  C214     1.0000 0.84840  0.55800  0.70720  Biso   1.000  C
  C215     1.0000 0.68410  0.56400  0.69780  Biso   1.000  C
  C216     1.0000 0.60320  0.51300  0.68660  Biso   1.000  C
  C217     1.0000 0.69400  0.44140  0.68260  Biso   1.000  C
  C218     1.0000 0.59509  0.39680  0.67302  Biso   1.000  C
  C219     1.0000 0.39360  0.42020  0.66660  Biso   1.000  C
  C220     1.0000 0.29730  0.48940  0.67000  Biso   1.000  C
  C221     1.0000 0.41100  0.53480  0.67920  Biso   1.000  C
  C222     1.0000 0.27657  0.36920  0.65766  Biso   1.000  C
  C223     1.0000 0.32487  0.29960  0.65666  Biso   1.000  C
  C224     1.0000 0.18221  0.25480  0.64878  Biso   1.000  C
  C225     1.0000 0.60679  0.14900  0.60942  Biso   1.000  C
  C226     1.0000 0.43513  0.17120  0.59854  Biso   1.000  C
  C227     1.0000 0.36904  0.24360  0.59632  Biso   1.000  C
  C228     1.0000 0.47742  0.28760  0.60556  Biso   1.000  C
  C229     1.0000 0.64352  0.26220  0.61676  Biso   1.000  C
  C230     1.0000 0.19019  0.27540  0.58422  Biso   1.000  C
  C231     1.0000 0.05845  0.24160  0.57750  Biso   1.000  C
  C232     1.0000 0.87612  0.27700  0.56676  Biso   1.000  C
  C233     1.0000 0.75381  0.23840  0.55798  Biso   1.000  C
  C234     1.0000 0.57832  0.26960  0.54776  Biso   1.000  C
  C235     1.0000 0.51918  0.34800  0.54964  Biso   1.000  C
  C236     1.0000 0.63680  0.38320  0.55920  Biso   1.000  C
  C237     1.0000 0.81040  0.35100  0.56820  Biso   1.000  C
  C238     1.0000 0.33384  0.38740  0.54092  Biso   1.000  C
  C239     1.0000 0.20199  0.36120  0.53082  Biso   1.000  C
  C240     1.0000 0.03678  0.40920  0.52124  Biso   1.000  C
  C241     1.0000 0.21920  0.48740  0.40820  Biso   1.000  C
  C242     1.0000 0.11310  0.43260  0.40320  Biso   1.000  C
  C243     1.0000 0.96730  0.43780  0.38960  Biso   1.000  C
  C244     1.0000 0.92252  0.50520  0.38176  Biso   1.000  C
  C245     1.0000 0.02050  0.55700  0.38600  Biso   1.000  C
  C246     1.0000 0.86990  0.37640  0.38580  Biso   1.000  C
  C247     1.0000 0.71000  0.37520  0.37680  Biso   1.000  C
  C248     1.0000 0.62910  0.31120  0.37060  Biso   1.000  C
  C249     1.0000 0.71630  0.24640  0.37500  Biso   1.000  C
  C250     1.0000 0.63200  0.18700  0.36900  Biso   1.000  C
  C251     1.0000 0.47880  0.19380  0.35660  Biso   1.000  C
  C252     1.0000 0.36990  0.26260  0.35160  Biso   1.000  C
  C253     1.0000 0.44800  0.32260  0.35940  Biso   1.000  C
  C254     1.0000 0.40557  0.12980  0.34706  Biso   1.000  C
  C255     1.0000 0.46837  0.06420  0.35306  Biso   1.000  C
  C256     1.0000 0.38885  0.00620  0.34410  Biso   1.000  C
  C257     1.0000 0.85509  0.46800  0.19182  Biso   1.000  C
  C258     1.0000 0.72364  0.49660  0.20612  Biso   1.000  C
  C259     1.0000 0.77774  0.50080  0.22572  Biso   1.000  C
  C260     1.0000 0.97334  0.46400  0.22932  Biso   1.000  C
  C261     1.0000 0.10475  0.43020  0.21430  Biso   1.000  C
  C262     1.0000 0.64718  0.53760  0.24204  Biso   1.000  C
  C263     1.0000 0.45521  0.56940  0.24018  Biso   1.000  C
  C264     1.0000 0.31576  0.61100  0.25548  Biso   1.000  C
  C265     1.0000 0.11655  0.63680  0.25010  Biso   1.000  C
  C266     1.0000 0.98598  0.67840  0.26364  Biso   1.000  C
  C267     1.0000 0.04737  0.69500  0.28226  Biso   1.000  C
  C268     1.0000 0.24651  0.67160  0.28738  Biso   1.000  C
  C269     1.0000 0.37881  0.62820  0.27418  Biso   1.000  C
  C270     1.0000 0.90659  0.73900  0.29782  Biso   1.000  C
  C271     1.0000 0.72116  0.77080  0.29488  Biso   1.000  C
  C272     1.0000 0.59030  0.80900  0.31240  Biso   1.000  C
  C273     1.0000 0.70095  0.42280  0.45930  Biso   1.000  C
  C274     1.0000 0.62646  0.37620  0.44688  Biso   1.000  C
  C275     1.0000 0.45136  0.34900  0.45228  Biso   1.000  C
  C276     1.0000 0.34596  0.37340  0.47068  Biso   1.000  C
  C277     1.0000 0.42742  0.42140  0.48176  Biso   1.000  C
  C278     1.0000 0.37267  0.29720  0.43946  Biso   1.000  C
  C279     1.0000 0.21724  0.26820  0.44332  Biso   1.000  C
  C280     1.0000 0.13339  0.21460  0.43062  Biso   1.000  C
  C281     1.0000 0.23537  0.18900  0.41226  Biso   1.000  C
  C282     1.0000 0.16419  0.13540  0.40222  Biso   1.000  C
  C283     1.0000 0.00598  0.10600  0.41004  Biso   1.000  C
  C284     1.0000 0.90189  0.13440  0.42782  Biso   1.000  C
  C285     1.0000 0.97220  0.18660  0.43900  Biso   1.000  C
  C286     1.0000 0.93643  0.04660  0.40054  Biso   1.000  C
  C287     1.0000 0.98665  0.02080  0.38190  Biso   1.000  C
  C288     1.0000 0.89868  0.96420  0.37244  Biso   1.000  C
  C289     1.0000 0.57500  0.36240  0.26160  Biso   1.000  C
  C290     1.0000 0.42300  0.40740  0.27260  Biso   1.000  C
  C291     1.0000 0.25150  0.38700  0.28200  Biso   1.000  C
  C292     1.0000 0.25560  0.31560  0.27920  Biso   1.000  C
  C293     1.0000 0.39180  0.27240  0.26800  Biso   1.000  C
  C294     1.0000 0.11360  0.44200  0.29280  Biso   1.000  C
  C295     1.0000 0.94590  0.43600  0.30220  Biso   1.000  C
  C296     1.0000 0.80280  0.48700  0.31340  Biso   1.000  C
  C297     1.0000 0.81800  0.55860  0.31740  Biso   1.000  C
  C298     1.0000 0.66491  0.60320  0.32698  Biso   1.000  C
  C299     1.0000 0.48040  0.57980  0.33340  Biso   1.000  C
  C300     1.0000 0.45670  0.51060  0.33000  Biso   1.000  C
  C301     1.0000 0.62500  0.46520  0.32080  Biso   1.000  C
  C302     1.0000 0.30343  0.63080  0.34234  Biso   1.000  C
  C303     1.0000 0.28113  0.70040  0.34334  Biso   1.000  C
  C304     1.0000 0.08579  0.74520  0.35122  Biso   1.000  C
  C305     1.0000 0.36521  0.85100  0.39058  Biso   1.000  C
  C306     1.0000 0.20487  0.82880  0.40146  Biso   1.000  C
  C307     1.0000 0.20896  0.75640  0.40368  Biso   1.000  C
  C308     1.0000 0.37058  0.71240  0.39444  Biso   1.000  C
  C309     1.0000 0.52248  0.73780  0.38324  Biso   1.000  C
  C310     1.0000 0.04981  0.72460  0.41578  Biso   1.000  C
  C311     1.0000 0.87755  0.75840  0.42250  Biso   1.000  C
  C312     1.0000 0.71988  0.72300  0.43324  Biso   1.000  C
  C313     1.0000 0.55019  0.76160  0.44202  Biso   1.000  C
  C314     1.0000 0.39568  0.73040  0.45224  Biso   1.000  C
  C315     1.0000 0.41682  0.65200  0.45036  Biso   1.000  C
  C316     1.0000 0.57920  0.61680  0.44080  Biso   1.000  C
  C317     1.0000 0.72960  0.64900  0.43180  Biso   1.000  C
  C318     1.0000 0.26216  0.61260  0.45908  Biso   1.000  C
  C319     1.0000 0.09401  0.63880  0.46918  Biso   1.000  C
  C320     1.0000 0.96722  0.59080  0.47876  Biso   1.000  C
  N1       1.0000 0.47556  0.95340  0.89948  Biso   1.000  N
  N2       1.0000 0.22886  0.06780  0.69448  Biso   1.000  N
  N3       1.0000 0.79054  0.05740  0.97752  Biso   1.000  N
  N4       1.0000 0.59590  0.20560  0.75860  Biso   1.000  N
  N5       1.0000 0.07266  0.69200  0.88068  Biso   1.000  N
  N6       1.0000 0.32844  0.04660  0.10052  Biso   1.000  N
  N7       1.0000 0.99114  0.93220  0.30552  Biso   1.000  N
  N8       1.0000 0.82546  0.94260  0.02248  Biso   1.000  N
  N9       1.0000 0.56010  0.79440  0.24140  Biso   1.000  N
  N10      1.0000 0.64534  0.30800  0.11932  Biso   1.000  N
  N11      1.0000 0.12504  0.45340  0.60052  Biso   1.000  N
  N12      1.0000 0.67334  0.56780  0.80552  Biso   1.000  N
  N13      1.0000 0.51806  0.55740  0.52248  Biso   1.000  N
  N14      1.0000 0.10450  0.70560  0.74140  Biso   1.000  N
  N15      1.0000 0.70334  0.19200  0.61932  Biso   1.000  N
  N16      1.0000 0.17896  0.54660  0.39948  Biso   1.000  N
  N17      1.0000 0.04666  0.43220  0.19448  Biso   1.000  N
  N18      1.0000 0.59794  0.44260  0.47752  Biso   1.000  N
  N19      1.0000 0.55150  0.29440  0.25860  Biso   1.000  N
  N20      1.0000 0.51466  0.80800  0.38068  Biso   1.000  N
  O1       1.0000 0.12175  0.55680  0.85170  Biso   1.000  O
  O2       1.0000 0.03799  0.48320  0.82882  Biso   1.000  O
  O3       1.0000 0.21986  0.68700  0.82928  Biso   1.000  O
  O4       1.0000 0.99857  0.66460  0.80826  Biso   1.000  O
  O5       1.0000 0.47417  0.57120  0.88446  Biso   1.000  O
  O6       1.0000 0.63350  0.68800  0.84900  Biso   1.000  O
  O7       1.0000 0.41805  0.78020  0.85970  Biso   1.000  O
  O8       1.0000 0.26797  0.97320  0.97486  Biso   1.000  O
  O9       1.0000 0.19451  0.88300  0.99198  Biso   1.000  O
  O10      1.0000 0.62438  0.54740  0.85384  Biso   1.000  O
  O11      1.0000 0.53025  0.44320  0.14830  Biso   1.000  O
  O12      1.0000 0.35001  0.51680  0.17118  Biso   1.000  O
  O13      1.0000 0.73614  0.31300  0.17072  Biso   1.000  O
  O14      1.0000 0.47143  0.33540  0.19174  Biso   1.000  O
  O15      1.0000 0.92983  0.42880  0.11554  Biso   1.000  O
  O16      1.0000 0.17050  0.31200  0.15100  Biso   1.000  O
  O17      1.0000 0.05795  0.21980  0.14030  Biso   1.000  O
  O18      1.0000 0.21603  0.02680  0.02514  Biso   1.000  O
  O19      1.0000 0.06949  0.11700  0.00802  Biso   1.000  O
  O20      1.0000 0.02562  0.45260  0.14616  Biso   1.000  O
  O21      1.0000 0.72345  0.05680  0.64830  Biso   1.000  O
  O22      1.0000 0.61681  0.98320  0.67118  Biso   1.000  O
  O23      1.0000 0.79914  0.18700  0.67072  Biso   1.000  O
  O24      1.0000 0.55683  0.16460  0.69174  Biso   1.000  O
  O25      1.0000 0.10863  0.07120  0.61554  Biso   1.000  O
  O26      1.0000 0.23250  0.18800  0.65100  Biso   1.000  O
  O27      1.0000 0.02775  0.28020  0.64030  Biso   1.000  O
  O28      1.0000 0.99283  0.47320  0.52514  Biso   1.000  O
  O29      1.0000 0.93649  0.38300  0.50802  Biso   1.000  O
  O30      1.0000 0.22822  0.04740  0.64616  Biso   1.000  O
  O31      1.0000 0.42855  0.94320  0.35170  Biso   1.000  O
  O32      1.0000 0.27119  0.01680  0.32882  Biso   1.000  O
  O33      1.0000 0.65686  0.81300  0.32928  Biso   1.000  O
  O34      1.0000 0.41317  0.83540  0.30826  Biso   1.000  O
  O35      1.0000 0.79537  0.92880  0.38446  Biso   1.000  O
  O36      1.0000 0.07150  0.81200  0.34900  Biso   1.000  O
  O37      1.0000 0.94825  0.71980  0.35970  Biso   1.000  O
  O38      1.0000 0.99117  0.52680  0.47486  Biso   1.000  O
  O39      1.0000 0.82751  0.61700  0.49198  Biso   1.000  O
  O40      1.0000 0.92178  0.95260  0.35384  Biso   1.000  O
