data_image0
_cell_length_a       11.84
_cell_length_b       12.3247
_cell_length_c       13.7362
_cell_angle_alpha    92.615
_cell_angle_beta     112.675
_cell_angle_gamma    109.04

_symmetry_space_group_name_H-M    P 1
_symmetry_int_tables_number       1

loop_
  _symmetry_equiv_pos_as_xyz
  'x, y, z'

loop_
  _atom_site_label
  _atom_site_occupancy
  _atom_site_fract_x
  _atom_site_fract_y
  _atom_site_fract_z
  _atom_site_thermal_displace_type
  _atom_site_B_iso_or_equiv
  _atom_site_type_symbol
  Cd1      1.0000 0.11509  0.23332  0.46084  Biso   1.000  Cd
  Cd2      1.0000 0.88491  0.76668  0.53916  Biso   1.000  Cd
  Cd3      1.0000 0.00000  0.50000  0.50000  Biso   1.000  Cd
  H1       1.0000 0.45530  0.33100  0.88470  Biso   1.000  H
  H2       1.0000 0.39930  0.63120  0.93400  Biso   1.000  H
  H3       1.0000 0.89220  0.54890  0.09560  Biso   1.000  H
  H4       1.0000 0.13780  0.39660  0.06990  Biso   1.000  H
  H5       1.0000 0.34050  0.07500  0.49360  Biso   1.000  H
  H6       1.0000 0.46910  0.80730  0.51890  Biso   1.000  H
  H7       1.0000 0.09880  0.98450  0.35830  Biso   1.000  H
  H8       1.0000 0.05360  0.80540  0.28170  Biso   1.000  H
  H9       1.0000 0.89860  0.72930  0.22580  Biso   1.000  H
  H10      1.0000 0.97530  0.77700  0.15340  Biso   1.000  H
  H11      1.0000 0.81610  0.97860  0.15570  Biso   1.000  H
  H12      1.0000 0.82260  0.88780  0.07280  Biso   1.000  H
  H13      1.0000 0.74640  0.84080  0.14570  Biso   1.000  H
  H14      1.0000 0.23490  0.21630  0.29740  Biso   1.000  H
  H15      1.0000 0.31490  0.25630  0.17500  Biso   1.000  H
  H16      1.0000 0.41340  0.38940  0.20000  Biso   1.000  H
  H17      1.0000 0.47050  0.28720  0.22070  Biso   1.000  H
  H18      1.0000 0.53210  0.41170  0.48550  Biso   1.000  H
  H19      1.0000 0.60920  0.38640  0.41920  Biso   1.000  H
  H20      1.0000 0.55230  0.48860  0.39840  Biso   1.000  H
  H21      1.0000 0.16900  0.04900  0.55900  Biso   1.000  H
  H22      1.0000 0.23600  0.14400  0.63000  Biso   1.000  H
  H23      1.0000 0.54470  0.66900  0.11530  Biso   1.000  H
  H24      1.0000 0.60070  0.36880  0.06600  Biso   1.000  H
  H25      1.0000 0.10780  0.45110  0.90440  Biso   1.000  H
  H26      1.0000 0.86220  0.60340  0.93010  Biso   1.000  H
  H27      1.0000 0.65950  0.92500  0.50640  Biso   1.000  H
  H28      1.0000 0.53090  0.19270  0.48110  Biso   1.000  H
  H29      1.0000 0.90120  0.01550  0.64170  Biso   1.000  H
  H30      1.0000 0.94640  0.19460  0.71830  Biso   1.000  H
  H31      1.0000 0.10140  0.27070  0.77420  Biso   1.000  H
  H32      1.0000 0.02470  0.22300  0.84660  Biso   1.000  H
  H33      1.0000 0.18390  0.02140  0.84430  Biso   1.000  H
  H34      1.0000 0.17740  0.11220  0.92720  Biso   1.000  H
  H35      1.0000 0.25360  0.15920  0.85430  Biso   1.000  H
  H36      1.0000 0.76510  0.78370  0.70260  Biso   1.000  H
  H37      1.0000 0.68510  0.74370  0.82500  Biso   1.000  H
  H38      1.0000 0.58660  0.61060  0.80000  Biso   1.000  H
  H39      1.0000 0.52950  0.71280  0.77930  Biso   1.000  H
  H40      1.0000 0.46790  0.58830  0.51450  Biso   1.000  H
  H41      1.0000 0.39080  0.61360  0.58080  Biso   1.000  H
  H42      1.0000 0.44770  0.51140  0.60160  Biso   1.000  H
  H43      1.0000 0.83100  0.95100  0.44100  Biso   1.000  H
  H44      1.0000 0.76400  0.85600  0.37000  Biso   1.000  H
  C1       1.0000 0.32230  0.45560  0.77697  Biso   1.000  C
  C2       1.0000 0.41330  0.47840  0.89155  Biso   1.000  C
  C3       1.0000 0.47330  0.39980  0.93130  Biso   1.000  C
  C4       1.0000 0.44030  0.57750  0.96060  Biso   1.000  C
  C5       1.0000 0.04070  0.44130  0.20660  Biso   1.000  C
  C6       1.0000 0.01970  0.46950  0.09980  Biso   1.000  C
  C7       1.0000 0.93650  0.52950  0.05680  Biso   1.000  C
  C8       1.0000 0.08230  0.43900  0.04180  Biso   1.000  C
  C9       1.0000 0.26610  0.85280  0.51550  Biso   1.000  C
  C10      1.0000 0.38610  0.92940  0.50810  Biso   1.000  C
  C11      1.0000 0.40530  0.04420  0.49630  Biso   1.000  C
  C12      1.0000 0.48160  0.88610  0.51130  Biso   1.000  C
  C13      1.0000 0.02280  0.99180  0.30520  Biso   1.000  C
  C14      1.0000 0.96970  0.79450  0.22130  Biso   1.000  C
  C15      1.0000 0.82220  0.90220  0.14340  Biso   1.000  C
  C16      1.0000 0.31300  0.26900  0.35530  Biso   1.000  C
  C17      1.0000 0.40210  0.31400  0.22320  Biso   1.000  C
  C18      1.0000 0.53670  0.41030  0.41580  Biso   1.000  C
  C19      1.0000 0.67770  0.54440  0.22303  Biso   1.000  C
  C20      1.0000 0.58670  0.52160  0.10845  Biso   1.000  C
  C21      1.0000 0.52670  0.60020  0.06870  Biso   1.000  C
  C22      1.0000 0.55970  0.42250  0.03940  Biso   1.000  C
  C23      1.0000 0.95930  0.55870  0.79340  Biso   1.000  C
  C24      1.0000 0.98030  0.53050  0.90020  Biso   1.000  C
  C25      1.0000 0.06350  0.47050  0.94320  Biso   1.000  C
  C26      1.0000 0.91770  0.56100  0.95820  Biso   1.000  C
  C27      1.0000 0.73390  0.14720  0.48450  Biso   1.000  C
  C28      1.0000 0.61390  0.07060  0.49190  Biso   1.000  C
  C29      1.0000 0.59470  0.95580  0.50370  Biso   1.000  C
  C30      1.0000 0.51840  0.11390  0.48870  Biso   1.000  C
  C31      1.0000 0.97720  0.00820  0.69480  Biso   1.000  C
  C32      1.0000 0.03030  0.20550  0.77870  Biso   1.000  C
  C33      1.0000 0.17780  0.09780  0.85660  Biso   1.000  C
  C34      1.0000 0.68700  0.73100  0.64470  Biso   1.000  C
  C35      1.0000 0.59790  0.68600  0.77680  Biso   1.000  C
  C36      1.0000 0.46330  0.58970  0.58420  Biso   1.000  C
  N1       1.0000 0.25410  0.52277  0.73326  Biso   1.000  N
  N2       1.0000 0.18390  0.46988  0.63012  Biso   1.000  N
  N3       1.0000 0.20958  0.37639  0.61302  Biso   1.000  N
  N4       1.0000 0.29710  0.36488  0.70498  Biso   1.000  N
  N5       1.0000 0.06690  0.34794  0.23966  Biso   1.000  N
  N6       1.0000 0.07290  0.35663  0.33897  Biso   1.000  N
  N7       1.0000 0.05210  0.45070  0.36279  Biso   1.000  N
  N8       1.0000 0.03130  0.50614  0.28098  Biso   1.000  N
  N9       1.0000 0.23370  0.73726  0.50938  Biso   1.000  N
  N10      1.0000 0.11887  0.70063  0.51675  Biso   1.000  N
  N11      1.0000 0.08357  0.79039  0.52711  Biso   1.000  N
  N12      1.0000 0.17510  0.88791  0.52608  Biso   1.000  N
  N13      1.0000 0.94230  0.90120  0.22590  Biso   1.000  N
  N14      1.0000 0.41320  0.32760  0.33290  Biso   1.000  N
  N15      1.0000 0.74590  0.47723  0.26674  Biso   1.000  N
  N16      1.0000 0.81610  0.53012  0.36988  Biso   1.000  N
  N17      1.0000 0.79042  0.62361  0.38698  Biso   1.000  N
  N18      1.0000 0.70290  0.63512  0.29502  Biso   1.000  N
  N19      1.0000 0.93310  0.65206  0.76034  Biso   1.000  N
  N20      1.0000 0.92710  0.64337  0.66103  Biso   1.000  N
  N21      1.0000 0.94790  0.54930  0.63721  Biso   1.000  N
  N22      1.0000 0.96870  0.49386  0.71902  Biso   1.000  N
  N23      1.0000 0.76630  0.26274  0.49062  Biso   1.000  N
  N24      1.0000 0.88113  0.29937  0.48325  Biso   1.000  N
  N25      1.0000 0.91643  0.20961  0.47289  Biso   1.000  N
  N26      1.0000 0.82490  0.11209  0.47392  Biso   1.000  N
  N27      1.0000 0.05770  0.09880  0.77410  Biso   1.000  N
  N28      1.0000 0.58680  0.67240  0.66710  Biso   1.000  N
  O1       1.0000 0.00810  0.08351  0.31596  Biso   1.000  O
  O2       1.0000 0.31327  0.27769  0.44529  Biso   1.000  O
  O3       1.0000 0.17110  0.11276  0.57710  Biso   1.000  O
  O4       1.0000 0.99190  0.91649  0.68404  Biso   1.000  O
  O5       1.0000 0.68673  0.72231  0.55471  Biso   1.000  O
  O6       1.0000 0.82890  0.88724  0.42290  Biso   1.000  O
