data_ICITUK_charged
_audit_creation_date              2014-07-02
_audit_creation_method            'Materials Studio'
_symmetry_space_group_name_H-M    'P1'
_symmetry_Int_Tables_number       1
_symmetry_cell_setting            triclinic
loop_
_symmetry_equiv_pos_as_xyz
  x,y,z
_cell_length_a                    17.6646
_cell_length_b                    17.6646
_cell_length_c                    28.0569
_cell_angle_alpha                 71.6513
_cell_angle_beta                  71.6513
_cell_angle_gamma                 60.0000
loop_
_atom_site_label
_atom_site_type_symbol
_atom_site_fract_x
_atom_site_fract_y
_atom_site_fract_z
_atom_site_U_iso_or_equiv
_atom_site_adp_type
_atom_site_occupancy
Li1    Li    0.79880   0.42430   0.12180   0.01267  Uiso   1.00
Li2    Li    0.42430   0.65510   0.12180   0.01267  Uiso   1.00
Li3    Li    0.65510   0.79880   0.12180   0.01267  Uiso   1.00
Li4    Li    0.70120   0.84490   0.37820   0.01267  Uiso   1.00
Li5    Li    0.07570   0.70120   0.37820   0.01267  Uiso   1.00
Li6    Li    0.84490   0.07570   0.37820   0.01267  Uiso   1.00
Li7    Li    0.20120   0.57570   0.87820   0.01267  Uiso   1.00
Li8    Li    0.57570   0.34490   0.87820   0.01267  Uiso   1.00
Li9    Li    0.34490   0.20120   0.87820   0.01267  Uiso   1.00
Li10   Li    0.29880   0.15510   0.62180   0.01267  Uiso   1.00
Li11   Li    0.92430   0.29880   0.62180   0.01267  Uiso   1.00
Li12   Li    0.15510   0.92430   0.62180   0.01267  Uiso   1.00
Li13   Li    0.03150   0.03150   0.90550   0.01267  Uiso   1.00
Li14   Li    0.46850   0.46850   0.59450   0.01267  Uiso   1.00
Li15   Li    0.96850   0.96850   0.09450   0.01267  Uiso   1.00
Li16   Li    0.53150   0.53150   0.40550   0.01267  Uiso   1.00
Li17   Li    0.11635   0.38365   0.75000   0.01267  Uiso   1.00
Li18   Li    0.38365   0.75000   0.75000   0.01267  Uiso   1.00
Li19   Li    0.75000   0.11635   0.75000   0.01267  Uiso   1.00
Li20   Li    0.88365   0.61635   0.25000   0.01267  Uiso   1.00
Li21   Li    0.61635   0.25000   0.25000   0.01267  Uiso   1.00
Li22   Li    0.25000   0.88365   0.25000   0.01267  Uiso   1.00
Ni1    Ni    0.85292   0.35756   0.93104   0.01267  Uiso   1.00
Ni2    Ni    0.35756   0.85848   0.93104   0.01267  Uiso   1.00
Ni3    Ni    0.85848   0.85292   0.93104   0.01267  Uiso   1.00
Ni4    Ni    0.64708   0.64152   0.56896   0.01267  Uiso   1.00
Ni5    Ni    0.14244   0.64708   0.56896   0.01267  Uiso   1.00
Ni6    Ni    0.64152   0.14244   0.56895   0.01267  Uiso   1.00
Ni7    Ni    0.14708   0.64244   0.06896   0.01267  Uiso   1.00
Ni8    Ni    0.64244   0.14152   0.06896   0.01267  Uiso   1.00
Ni9    Ni    0.14152   0.14708   0.06896   0.01267  Uiso   1.00
Ni10   Ni    0.35291   0.35848   0.43105   0.01267  Uiso   1.00
Ni11   Ni    0.85756   0.35292   0.43104   0.01267  Uiso   1.00
Ni12   Ni    0.35848   0.85756   0.43104   0.01267  Uiso   1.00
Ni13   Ni    0.06841   0.06841   0.79477   0.01267  Uiso   1.00
Ni14   Ni    0.43159   0.43159   0.70523   0.01267  Uiso   1.00
Ni15   Ni    0.93159   0.93159   0.20523   0.01267  Uiso   1.00
Ni16   Ni    0.56841   0.56841   0.29477   0.01267  Uiso   1.00
H1     H     0.91480   0.16170   0.89590   0.01267  Uiso   1.00
H2     H     0.04980   0.18760   0.96670   0.01267  Uiso   1.00
H3     H     0.16170   0.02760   0.89590   0.01267  Uiso   1.00
H4     H     0.18760   0.79590   0.96670   0.01267  Uiso   1.00
H5     H     0.02760   0.91480   0.89590   0.01267  Uiso   1.00
H6     H     0.79590   0.04980   0.96670   0.01267  Uiso   1.00
H7     H     0.58520   0.47240   0.60410   0.01267  Uiso   1.00
H8     H     0.45020   0.70410   0.53330   0.01267  Uiso   1.00
H9     H     0.33830   0.58520   0.60410   0.01267  Uiso   1.00
H10    H     0.31240   0.45020   0.53330   0.01267  Uiso   1.00
H11    H     0.47240   0.33830   0.60410   0.01267  Uiso   1.00
H12    H     0.70410   0.31240   0.53330   0.01267  Uiso   1.00
H13    H     0.08520   0.83830   0.10410   0.01267  Uiso   1.00
H14    H     0.95020   0.81240   0.03330   0.01267  Uiso   1.00
H15    H     0.83830   0.97240   0.10410   0.01267  Uiso   1.00
H16    H     0.81240   0.20410   0.03330   0.01267  Uiso   1.00
H17    H     0.97240   0.08520   0.10410   0.01267  Uiso   1.00
H18    H     0.20410   0.95020   0.03330   0.01267  Uiso   1.00
H19    H     0.41480   0.52760   0.39590   0.01267  Uiso   1.00
H20    H     0.54980   0.29590   0.46670   0.01267  Uiso   1.00
H21    H     0.66170   0.41480   0.39590   0.01267  Uiso   1.00
H22    H     0.68760   0.54980   0.46670   0.01267  Uiso   1.00
H23    H     0.52760   0.66170   0.39590   0.01267  Uiso   1.00
H24    H     0.29590   0.68760   0.46670   0.01267  Uiso   1.00
C1     C     0.94329   0.19539   0.87403   0.01267  Uiso   1.00
C2     C     0.03108   0.23698   0.81076   0.01267  Uiso   1.00
C3     C     0.98154   0.30114   0.84148   0.01267  Uiso   1.00
C4     C     0.97695   0.38875   0.84055   0.01267  Uiso   1.00
C5     C     0.09905   0.22375   0.76345   0.01267  Uiso   1.00
C6     C     0.01717   0.23007   0.98749   0.01267  Uiso   1.00
C7     C     0.91136   0.34486   0.01812   0.01267  Uiso   1.00
C8     C     0.97717   0.29717   0.04929   0.01267  Uiso   1.00
C9     C     0.82886   0.43056   0.01662   0.01267  Uiso   1.00
C10    C     0.99220   0.30710   0.09600   0.01267  Uiso   1.00
C11    C     0.19539   0.98729   0.87403   0.01267  Uiso   1.00
C12    C     0.23698   0.92118   0.81076   0.01267  Uiso   1.00
C13    C     0.30114   0.87584   0.84148   0.01267  Uiso   1.00
C14    C     0.38875   0.79375   0.84055   0.01267  Uiso   1.00
C15    C     0.22375   0.91375   0.76345   0.01267  Uiso   1.00
C16    C     0.23007   0.76527   0.98749   0.01267  Uiso   1.00
C17    C     0.34486   0.72566   0.01812   0.01267  Uiso   1.00
C18    C     0.29717   0.67637   0.04929   0.01267  Uiso   1.00
C19    C     0.43056   0.72396   0.01662   0.01267  Uiso   1.00
C20    C     0.30710   0.60470   0.09600   0.01267  Uiso   1.00
C21    C     0.98729   0.94329   0.87403   0.01267  Uiso   1.00
C22    C     0.92118   0.03108   0.81076   0.01267  Uiso   1.00
C23    C     0.87584   0.98154   0.84148   0.01267  Uiso   1.00
C24    C     0.79375   0.97695   0.84055   0.01267  Uiso   1.00
C25    C     0.91375   0.09905   0.76345   0.01267  Uiso   1.00
C26    C     0.76527   0.01717   0.98749   0.01267  Uiso   1.00
C27    C     0.72566   0.91136   0.01812   0.01267  Uiso   1.00
C28    C     0.67637   0.97717   0.04929   0.01267  Uiso   1.00
C29    C     0.72396   0.82886   0.01662   0.01267  Uiso   1.00
C30    C     0.60470   0.99220   0.09600   0.01267  Uiso   1.00
C31    C     0.55671   0.51271   0.62597   0.01267  Uiso   1.00
C32    C     0.46892   0.57882   0.68924   0.01267  Uiso   1.00
C33    C     0.51846   0.62416   0.65852   0.01267  Uiso   1.00
C34    C     0.52305   0.70625   0.65945   0.01267  Uiso   1.00
C35    C     0.40095   0.58625   0.73655   0.01267  Uiso   1.00
C36    C     0.48283   0.73473   0.51251   0.01267  Uiso   1.00
C37    C     0.58864   0.77434   0.48188   0.01267  Uiso   1.00
C38    C     0.52283   0.82363   0.45071   0.01267  Uiso   1.00
C39    C     0.67114   0.77604   0.48338   0.01267  Uiso   1.00
C40    C     0.50780   0.89530   0.40400   0.01267  Uiso   1.00
C41    C     0.30461   0.55671   0.62597   0.01267  Uiso   1.00
C42    C     0.26302   0.46892   0.68924   0.01267  Uiso   1.00
C43    C     0.19886   0.51846   0.65852   0.01267  Uiso   1.00
C44    C     0.11125   0.52305   0.65945   0.01267  Uiso   1.00
C45    C     0.27625   0.40095   0.73655   0.01267  Uiso   1.00
C46    C     0.26993   0.48283   0.51251   0.01267  Uiso   1.00
C47    C     0.15514   0.58864   0.48188   0.01267  Uiso   1.00
C48    C     0.20283   0.52283   0.45071   0.01267  Uiso   1.00
C49    C     0.06944   0.67114   0.48338   0.01267  Uiso   1.00
C50    C     0.19290   0.50780   0.40400   0.01267  Uiso   1.00
C51    C     0.51271   0.30461   0.62597   0.01267  Uiso   1.00
C52    C     0.57882   0.26302   0.68924   0.01267  Uiso   1.00
C53    C     0.62416   0.19886   0.65852   0.01267  Uiso   1.00
C54    C     0.70625   0.11125   0.65945   0.01267  Uiso   1.00
C55    C     0.58625   0.27625   0.73655   0.01267  Uiso   1.00
C56    C     0.73473   0.26993   0.51251   0.01267  Uiso   1.00
C57    C     0.77434   0.15514   0.48188   0.01267  Uiso   1.00
C58    C     0.82363   0.20283   0.45071   0.01267  Uiso   1.00
C59    C     0.77604   0.06944   0.48338   0.01267  Uiso   1.00
C60    C     0.89530   0.19290   0.40400   0.01267  Uiso   1.00
C61    C     0.05671   0.80461   0.12597   0.01267  Uiso   1.00
C62    C     0.96892   0.76302   0.18924   0.01267  Uiso   1.00
C63    C     0.01846   0.69886   0.15852   0.01267  Uiso   1.00
C64    C     0.02305   0.61125   0.15945   0.01267  Uiso   1.00
C65    C     0.90095   0.77625   0.23655   0.01267  Uiso   1.00
C66    C     0.98283   0.76993   0.01251   0.01267  Uiso   1.00
C67    C     0.08864   0.65514   0.98188   0.01267  Uiso   1.00
C68    C     0.02283   0.70283   0.95071   0.01267  Uiso   1.00
C69    C     0.17114   0.56944   0.98338   0.01267  Uiso   1.00
C70    C     0.00780   0.69290   0.90400   0.01267  Uiso   1.00
C71    C     0.80461   0.01271   0.12597   0.01267  Uiso   1.00
C72    C     0.76302   0.07882   0.18924   0.01267  Uiso   1.00
C73    C     0.69886   0.12416   0.15852   0.01267  Uiso   1.00
C74    C     0.61125   0.20625   0.15945   0.01267  Uiso   1.00
C75    C     0.77625   0.08625   0.23655   0.01267  Uiso   1.00
C76    C     0.76993   0.23473   0.01251   0.01267  Uiso   1.00
C77    C     0.65514   0.27434   0.98188   0.01267  Uiso   1.00
C78    C     0.70283   0.32363   0.95071   0.01267  Uiso   1.00
C79    C     0.56944   0.27604   0.98338   0.01267  Uiso   1.00
C80    C     0.69290   0.39530   0.90400   0.01267  Uiso   1.00
C81    C     0.01271   0.05671   0.12597   0.01267  Uiso   1.00
C82    C     0.07882   0.96892   0.18924   0.01267  Uiso   1.00
C83    C     0.12416   0.01846   0.15852   0.01267  Uiso   1.00
C84    C     0.20625   0.02305   0.15945   0.01267  Uiso   1.00
C85    C     0.08625   0.90095   0.23655   0.01267  Uiso   1.00
C86    C     0.23473   0.98283   0.01251   0.01267  Uiso   1.00
C87    C     0.27434   0.08864   0.98188   0.01267  Uiso   1.00
C88    C     0.32363   0.02283   0.95071   0.01267  Uiso   1.00
C89    C     0.27604   0.17114   0.98338   0.01267  Uiso   1.00
C90    C     0.39530   0.00780   0.90400   0.01267  Uiso   1.00
C91    C     0.44329   0.48729   0.37403   0.01267  Uiso   1.00
C92    C     0.53108   0.42118   0.31076   0.01267  Uiso   1.00
C93    C     0.48154   0.37584   0.34148   0.01267  Uiso   1.00
C94    C     0.47695   0.29375   0.34055   0.01267  Uiso   1.00
C95    C     0.59905   0.41375   0.26345   0.01267  Uiso   1.00
C96    C     0.51717   0.26527   0.48749   0.01267  Uiso   1.00
C97    C     0.41136   0.22566   0.51812   0.01267  Uiso   1.00
C98    C     0.47717   0.17637   0.54929   0.01267  Uiso   1.00
C99    C     0.32886   0.22396   0.51662   0.01267  Uiso   1.00
C100   C     0.49220   0.10470   0.59600   0.01267  Uiso   1.00
C101   C     0.69539   0.44329   0.37403   0.01267  Uiso   1.00
C102   C     0.73698   0.53108   0.31076   0.01267  Uiso   1.00
C103   C     0.80114   0.48154   0.34148   0.01267  Uiso   1.00
C104   C     0.88875   0.47695   0.34055   0.01267  Uiso   1.00
C105   C     0.72375   0.59905   0.26345   0.01267  Uiso   1.00
C106   C     0.73007   0.51717   0.48749   0.01267  Uiso   1.00
C107   C     0.84486   0.41136   0.51812   0.01267  Uiso   1.00
C108   C     0.79717   0.47717   0.54929   0.01267  Uiso   1.00
C109   C     0.93056   0.32886   0.51662   0.01267  Uiso   1.00
C110   C     0.80710   0.49220   0.59600   0.01267  Uiso   1.00
C111   C     0.48729   0.69539   0.37403   0.01267  Uiso   1.00
C112   C     0.42118   0.73698   0.31076   0.01267  Uiso   1.00
C113   C     0.37584   0.80114   0.34148   0.01267  Uiso   1.00
C114   C     0.29375   0.88875   0.34055   0.01267  Uiso   1.00
C115   C     0.41375   0.72375   0.26345   0.01267  Uiso   1.00
C116   C     0.26527   0.73007   0.48749   0.01267  Uiso   1.00
C117   C     0.22566   0.84486   0.51812   0.01267  Uiso   1.00
C118   C     0.17637   0.79717   0.54929   0.01267  Uiso   1.00
C119   C     0.22396   0.93056   0.51662   0.01267  Uiso   1.00
C120   C     0.10470   0.80710   0.59600   0.01267  Uiso   1.00
N1     N     0.00421   0.17071   0.83257   0.01267  Uiso   1.00
N2     N     0.92715   0.27425   0.88075   0.01267  Uiso   1.00
N3     N     0.93996   0.30146   0.97882   0.01267  Uiso   1.00
N4     N     0.04224   0.22594   0.02838   0.01267  Uiso   1.00
N5     N     0.17071   0.99251   0.83257   0.01267  Uiso   1.00
N6     N     0.27425   0.91785   0.88075   0.01267  Uiso   1.00
N7     N     0.30146   0.77976   0.97882   0.01267  Uiso   1.00
N8     N     0.22594   0.70344   0.02838   0.01267  Uiso   1.00
N9     N     0.99251   0.00421   0.83257   0.01267  Uiso   1.00
N10    N     0.91785   0.92715   0.88075   0.01267  Uiso   1.00
N11    N     0.77976   0.93996   0.97882   0.01267  Uiso   1.00
N12    N     0.70344   0.04224   0.02838   0.01267  Uiso   1.00
N13    N     0.49579   0.50749   0.66743   0.01267  Uiso   1.00
N14    N     0.57285   0.58215   0.61925   0.01267  Uiso   1.00
N15    N     0.56004   0.72024   0.52118   0.01267  Uiso   1.00
N16    N     0.45776   0.79656   0.47162   0.01267  Uiso   1.00
N17    N     0.32929   0.49579   0.66743   0.01267  Uiso   1.00
N18    N     0.22575   0.57285   0.61925   0.01267  Uiso   1.00
N19    N     0.19854   0.56004   0.52118   0.01267  Uiso   1.00
N20    N     0.27406   0.45776   0.47162   0.01267  Uiso   1.00
N21    N     0.50749   0.32929   0.66743   0.01267  Uiso   1.00
N22    N     0.58215   0.22575   0.61925   0.01267  Uiso   1.00
N23    N     0.72024   0.19854   0.52118   0.01267  Uiso   1.00
N24    N     0.79656   0.27406   0.47162   0.01267  Uiso   1.00
N25    N     0.99579   0.82929   0.16743   0.01267  Uiso   1.00
N26    N     0.07285   0.72575   0.11925   0.01267  Uiso   1.00
N27    N     0.06004   0.69854   0.02118   0.01267  Uiso   1.00
N28    N     0.95776   0.77406   0.97162   0.01267  Uiso   1.00
N29    N     0.82929   0.00749   0.16743   0.01267  Uiso   1.00
N30    N     0.72575   0.08215   0.11925   0.01267  Uiso   1.00
N31    N     0.69854   0.22024   0.02118   0.01267  Uiso   1.00
N32    N     0.77406   0.29656   0.97162   0.01267  Uiso   1.00
N33    N     0.00749   0.99579   0.16743   0.01267  Uiso   1.00
N34    N     0.08215   0.07285   0.11925   0.01267  Uiso   1.00
N35    N     0.22024   0.06004   0.02118   0.01267  Uiso   1.00
N36    N     0.29656   0.95776   0.97162   0.01267  Uiso   1.00
N37    N     0.50421   0.49251   0.33257   0.01267  Uiso   1.00
N38    N     0.42715   0.41785   0.38075   0.01267  Uiso   1.00
N39    N     0.43996   0.27976   0.47882   0.01267  Uiso   1.00
N40    N     0.54224   0.20344   0.52838   0.01267  Uiso   1.00
N41    N     0.67071   0.50421   0.33257   0.01267  Uiso   1.00
N42    N     0.77425   0.42715   0.38075   0.01267  Uiso   1.00
N43    N     0.80146   0.43996   0.47882   0.01267  Uiso   1.00
N44    N     0.72594   0.54224   0.52838   0.01267  Uiso   1.00
N45    N     0.49251   0.67071   0.33257   0.01267  Uiso   1.00
N46    N     0.41785   0.77425   0.38075   0.01267  Uiso   1.00
N47    N     0.27976   0.80146   0.47882   0.01267  Uiso   1.00
N48    N     0.20344   0.72594   0.52838   0.01267  Uiso   1.00
O1     O     0.92101   0.42771   0.87757   0.01267  Uiso   1.00
O2     O     0.02466   0.42086   0.80662   0.01267  Uiso   1.00
O3     O     0.12634   0.15204   0.74818   0.01267  Uiso   1.00
O4     O     0.12959   0.27919   0.74023   0.01267  Uiso   1.00
O5     O     0.79344   0.45324   0.97798   0.01267  Uiso   1.00
O6     O     0.79793   0.47503   0.05031   0.01267  Uiso   1.00
O7     O     0.06615   0.25395   0.10845   0.01267  Uiso   1.00
O8     O     0.92928   0.36618   0.12036   0.01267  Uiso   1.00
O9     O     0.74220   0.51330   0.16320   0.01267  Uiso   1.00
O10    O     0.74391   0.34971   0.14727   0.01267  Uiso   1.00
O11    O     0.42771   0.77371   0.87757   0.01267  Uiso   1.00
O12    O     0.42086   0.74786   0.80662   0.01267  Uiso   1.00
O13    O     0.15204   0.97344   0.74818   0.01267  Uiso   1.00
O14    O     0.27919   0.85099   0.74023   0.01267  Uiso   1.00
O15    O     0.45324   0.77534   0.97798   0.01267  Uiso   1.00
O16    O     0.47503   0.67673   0.05031   0.01267  Uiso   1.00
O17    O     0.25395   0.57145   0.10845   0.01267  Uiso   1.00
O18    O     0.36618   0.58418   0.12036   0.01267  Uiso   1.00
O19    O     0.51330   0.58130   0.16320   0.01267  Uiso   1.00
O20    O     0.34971   0.75911   0.14727   0.01267  Uiso   1.00
O21    O     0.77371   0.92101   0.87757   0.01267  Uiso   1.00
O22    O     0.74786   0.02466   0.80662   0.01267  Uiso   1.00
O23    O     0.97344   0.12634   0.74818   0.01267  Uiso   1.00
O24    O     0.85099   0.12959   0.74023   0.01267  Uiso   1.00
O25    O     0.77534   0.79344   0.97798   0.01267  Uiso   1.00
O26    O     0.67673   0.79793   0.05031   0.01267  Uiso   1.00
O27    O     0.57145   0.06615   0.10845   0.01267  Uiso   1.00
O28    O     0.58418   0.92928   0.12036   0.01267  Uiso   1.00
O29    O     0.58130   0.74220   0.16320   0.01267  Uiso   1.00
O30    O     0.75911   0.74391   0.14727   0.01267  Uiso   1.00
O31    O     0.57899   0.72629   0.62243   0.01267  Uiso   1.00
O32    O     0.47534   0.75214   0.69338   0.01267  Uiso   1.00
O33    O     0.37366   0.52656   0.75182   0.01267  Uiso   1.00
O34    O     0.37041   0.64901   0.75977   0.01267  Uiso   1.00
O35    O     0.70656   0.72466   0.52202   0.01267  Uiso   1.00
O36    O     0.70207   0.82327   0.44969   0.01267  Uiso   1.00
O37    O     0.43385   0.92855   0.39155   0.01267  Uiso   1.00
O38    O     0.57072   0.91582   0.37964   0.01267  Uiso   1.00
O39    O     0.75780   0.91870   0.33680   0.01267  Uiso   1.00
O40    O     0.75609   0.74089   0.35273   0.01267  Uiso   1.00
O41    O     0.07229   0.57899   0.62243   0.01267  Uiso   1.00
O42    O     0.07914   0.47534   0.69338   0.01267  Uiso   1.00
O43    O     0.34796   0.37366   0.75182   0.01267  Uiso   1.00
O44    O     0.22081   0.37041   0.75977   0.01267  Uiso   1.00
O45    O     0.04676   0.70656   0.52202   0.01267  Uiso   1.00
O46    O     0.02497   0.70207   0.44969   0.01267  Uiso   1.00
O47    O     0.24605   0.43385   0.39155   0.01267  Uiso   1.00
O48    O     0.13382   0.57072   0.37964   0.01267  Uiso   1.00
O49    O     0.98670   0.75780   0.33680   0.01267  Uiso   1.00
O50    O     0.15029   0.75609   0.35273   0.01267  Uiso   1.00
O51    O     0.72629   0.07229   0.62243   0.01267  Uiso   1.00
O52    O     0.75214   0.07914   0.69338   0.01267  Uiso   1.00
O53    O     0.52656   0.34796   0.75182   0.01267  Uiso   1.00
O54    O     0.64901   0.22081   0.75977   0.01267  Uiso   1.00
O55    O     0.72466   0.04676   0.52202   0.01267  Uiso   1.00
O56    O     0.82327   0.02497   0.44969   0.01267  Uiso   1.00
O57    O     0.92855   0.24605   0.39155   0.01267  Uiso   1.00
O58    O     0.91582   0.13382   0.37964   0.01267  Uiso   1.00
O59    O     0.91870   0.98670   0.33680   0.01267  Uiso   1.00
O60    O     0.74089   0.15029   0.35273   0.01267  Uiso   1.00
O61    O     0.07899   0.57229   0.12243   0.01267  Uiso   1.00
O62    O     0.97534   0.57914   0.19338   0.01267  Uiso   1.00
O63    O     0.87366   0.84796   0.25182   0.01267  Uiso   1.00
O64    O     0.87041   0.72081   0.25977   0.01267  Uiso   1.00
O65    O     0.20656   0.54676   0.02202   0.01267  Uiso   1.00
O66    O     0.20207   0.52497   0.94969   0.01267  Uiso   1.00
O67    O     0.93385   0.74605   0.89155   0.01267  Uiso   1.00
O68    O     0.07072   0.63382   0.87964   0.01267  Uiso   1.00
O69    O     0.25780   0.48670   0.83680   0.01267  Uiso   1.00
O70    O     0.25609   0.65029   0.85273   0.01267  Uiso   1.00
O71    O     0.57229   0.22629   0.12243   0.01267  Uiso   1.00
O72    O     0.57914   0.25214   0.19338   0.01267  Uiso   1.00
O73    O     0.84796   0.02656   0.25182   0.01267  Uiso   1.00
O74    O     0.72081   0.14901   0.25977   0.01267  Uiso   1.00
O75    O     0.54676   0.22466   0.02202   0.01267  Uiso   1.00
O76    O     0.52497   0.32327   0.94969   0.01267  Uiso   1.00
O77    O     0.74605   0.42855   0.89155   0.01267  Uiso   1.00
O78    O     0.63382   0.41582   0.87964   0.01267  Uiso   1.00
O79    O     0.48670   0.41870   0.83680   0.01267  Uiso   1.00
O80    O     0.65029   0.24089   0.85273   0.01267  Uiso   1.00
O81    O     0.22629   0.07899   0.12243   0.01267  Uiso   1.00
O82    O     0.25214   0.97534   0.19338   0.01267  Uiso   1.00
O83    O     0.02656   0.87366   0.25182   0.01267  Uiso   1.00
O84    O     0.14901   0.87041   0.25977   0.01267  Uiso   1.00
O85    O     0.22466   0.20656   0.02202   0.01267  Uiso   1.00
O86    O     0.32327   0.20207   0.94969   0.01267  Uiso   1.00
O87    O     0.42855   0.93385   0.89155   0.01267  Uiso   1.00
O88    O     0.41582   0.07072   0.87964   0.01267  Uiso   1.00
O89    O     0.41870   0.25780   0.83680   0.01267  Uiso   1.00
O90    O     0.24089   0.25609   0.85273   0.01267  Uiso   1.00
O91    O     0.42101   0.27371   0.37757   0.01267  Uiso   1.00
O92    O     0.52466   0.24786   0.30662   0.01267  Uiso   1.00
O93    O     0.62634   0.47344   0.24818   0.01267  Uiso   1.00
O94    O     0.62959   0.35099   0.24023   0.01267  Uiso   1.00
O95    O     0.29344   0.27534   0.47798   0.01267  Uiso   1.00
O96    O     0.29793   0.17673   0.55031   0.01267  Uiso   1.00
O97    O     0.56615   0.07145   0.60845   0.01267  Uiso   1.00
O98    O     0.42928   0.08418   0.62036   0.01267  Uiso   1.00
O99    O     0.24220   0.08130   0.66320   0.01267  Uiso   1.00
O100   O     0.24391   0.25911   0.64727   0.01267  Uiso   1.00
O101   O     0.92771   0.42101   0.37757   0.01267  Uiso   1.00
O102   O     0.92086   0.52466   0.30662   0.01267  Uiso   1.00
O103   O     0.65204   0.62634   0.24818   0.01267  Uiso   1.00
O104   O     0.77919   0.62959   0.24023   0.01267  Uiso   1.00
O105   O     0.95324   0.29344   0.47798   0.01267  Uiso   1.00
O106   O     0.97503   0.29793   0.55031   0.01267  Uiso   1.00
O107   O     0.75395   0.56615   0.60845   0.01267  Uiso   1.00
O108   O     0.86618   0.42928   0.62036   0.01267  Uiso   1.00
O109   O     0.01330   0.24220   0.66320   0.01267  Uiso   1.00
O110   O     0.84971   0.24391   0.64727   0.01267  Uiso   1.00
O111   O     0.27371   0.92771   0.37757   0.01267  Uiso   1.00
O112   O     0.24786   0.92086   0.30662   0.01267  Uiso   1.00
O113   O     0.47344   0.65204   0.24818   0.01267  Uiso   1.00
O114   O     0.35099   0.77919   0.24023   0.01267  Uiso   1.00
O115   O     0.27534   0.95324   0.47798   0.01267  Uiso   1.00
O116   O     0.17673   0.97503   0.55031   0.01267  Uiso   1.00
O117   O     0.07145   0.75395   0.60845   0.01267  Uiso   1.00
O118   O     0.08418   0.86618   0.62036   0.01267  Uiso   1.00
O119   O     0.08130   0.01330   0.66320   0.01267  Uiso   1.00
O120   O     0.25911   0.84971   0.64727   0.01267  Uiso   1.00
Li23   Li    0.06850   0.75000   0.75000   0.01267  Uiso   1.00
Li24   Li    0.75000   0.43150   0.75000   0.01267  Uiso   1.00
Li25   Li    0.43150   0.06850   0.75000   0.01267  Uiso   1.00
Li26   Li    0.93150   0.25000   0.25000   0.01267  Uiso   1.00
Li27   Li    0.25000   0.56850   0.25000   0.01267  Uiso   1.00
Li28   Li    0.56850   0.93150   0.25000   0.01267  Uiso   1.00
