data_image0
_cell_length_a       9.316
_cell_length_b       11.917
_cell_length_c       25.515
_cell_angle_alpha    90
_cell_angle_beta     94.663
_cell_angle_gamma    90

_symmetry_space_group_name_H-M    P 1
_symmetry_int_tables_number       1

loop_
  _symmetry_equiv_pos_as_xyz
  'x, y, z'

loop_
  _atom_site_label
  _atom_site_occupancy
  _atom_site_fract_x
  _atom_site_fract_y
  _atom_site_fract_z
  _atom_site_thermal_displace_type
  _atom_site_B_iso_or_equiv
  _atom_site_type_symbol
  Mn1      1.0000 0.55567  0.91943  0.97874  Biso   1.000  Mn
  Mn2      1.0000 0.07356  0.60055  0.29405  Biso   1.000  Mn
  Mn3      1.0000 0.55567  0.08057  0.47874  Biso   1.000  Mn
  Mn4      1.0000 0.07356  0.39945  0.79405  Biso   1.000  Mn
  H1       1.0000 0.38110  0.31220  0.00790  Biso   1.000  H
  H2       1.0000 0.52240  0.45270  0.05050  Biso   1.000  H
  H3       1.0000 0.76040  0.48130  0.02620  Biso   1.000  H
  H4       1.0000 0.70630  0.23670  0.91660  Biso   1.000  H
  H5       1.0000 0.91440  0.25420  0.04770  Biso   1.000  H
  H6       1.0000 0.94570  0.23560  0.13910  Biso   1.000  H
  H7       1.0000 0.05850  0.37020  0.19130  Biso   1.000  H
  H8       1.0000 0.15540  0.54020  0.05970  Biso   1.000  H
  H9       1.0000 0.36810  0.56200  0.95700  Biso   1.000  H
  H10      1.0000 0.57700  0.62070  0.91800  Biso   1.000  H
  H11      1.0000 0.57950  0.59300  0.82310  Biso   1.000  H
  H12      1.0000 0.39180  0.50330  0.77800  Biso   1.000  H
  H13      1.0000 0.87930  0.97480  0.50830  Biso   1.000  H
  H14      1.0000 0.08260  0.92140  0.46880  Biso   1.000  H
  H15      1.0000 0.08270  0.92520  0.37690  Biso   1.000  H
  H16      1.0000 0.88230  0.00610  0.32680  Biso   1.000  H
  H17      1.0000 0.23940  0.00420  0.24070  Biso   1.000  H
  H18      1.0000 0.00180  0.02180  0.20400  Biso   1.000  H
  H19      1.0000 0.85640  0.16330  0.23020  Biso   1.000  H
  H20      1.0000 0.17030  0.27660  0.33330  Biso   1.000  H
  H21      1.0000 0.63260  0.99560  0.21450  Biso   1.000  H
  H22      1.0000 0.51890  0.17790  0.08190  Biso   1.000  H
  H23      1.0000 0.39930  0.30560  0.13330  Biso   1.000  H
  H24      1.0000 0.37700  0.27760  0.22200  Biso   1.000  H
  H25      1.0000 0.38110  0.68780  0.50790  Biso   1.000  H
  H26      1.0000 0.52240  0.54730  0.55050  Biso   1.000  H
  H27      1.0000 0.76040  0.51870  0.52620  Biso   1.000  H
  H28      1.0000 0.70630  0.76330  0.41660  Biso   1.000  H
  H29      1.0000 0.91440  0.74580  0.54770  Biso   1.000  H
  H30      1.0000 0.94570  0.76440  0.63910  Biso   1.000  H
  H31      1.0000 0.05850  0.62980  0.69130  Biso   1.000  H
  H32      1.0000 0.15540  0.45980  0.55970  Biso   1.000  H
  H33      1.0000 0.36810  0.43800  0.45700  Biso   1.000  H
  H34      1.0000 0.57700  0.37930  0.41800  Biso   1.000  H
  H35      1.0000 0.57950  0.40700  0.32310  Biso   1.000  H
  H36      1.0000 0.39180  0.49670  0.27800  Biso   1.000  H
  H37      1.0000 0.87930  0.02520  0.00830  Biso   1.000  H
  H38      1.0000 0.08260  0.07860  0.96880  Biso   1.000  H
  H39      1.0000 0.08270  0.07480  0.87690  Biso   1.000  H
  H40      1.0000 0.88230  0.99390  0.82680  Biso   1.000  H
  H41      1.0000 0.23940  0.99580  0.74070  Biso   1.000  H
  H42      1.0000 0.00180  0.97820  0.70400  Biso   1.000  H
  H43      1.0000 0.85640  0.83670  0.73020  Biso   1.000  H
  H44      1.0000 0.17030  0.72340  0.83330  Biso   1.000  H
  H45      1.0000 0.63260  0.00440  0.71450  Biso   1.000  H
  H46      1.0000 0.51890  0.82210  0.58190  Biso   1.000  H
  H47      1.0000 0.39930  0.69440  0.63330  Biso   1.000  H
  H48      1.0000 0.37700  0.72240  0.72200  Biso   1.000  H
  C1       1.0000 0.52520  0.26590  0.95600  Biso   1.000  C
  C2       1.0000 0.47470  0.32700  0.99740  Biso   1.000  C
  C3       1.0000 0.55880  0.40920  0.02340  Biso   1.000  C
  C4       1.0000 0.70100  0.42650  0.00830  Biso   1.000  C
  C5       1.0000 0.75410  0.36600  0.96850  Biso   1.000  C
  C6       1.0000 0.66830  0.28210  0.94270  Biso   1.000  C
  C7       1.0000 0.89770  0.38430  0.95190  Biso   1.000  C
  C8       1.0000 0.02190  0.41320  0.98650  Biso   1.000  C
  C9       1.0000 0.03030  0.40040  0.04410  Biso   1.000  C
  C10      1.0000 0.96750  0.30890  0.06820  Biso   1.000  C
  C11      1.0000 0.98440  0.29960  0.12310  Biso   1.000  C
  C12      1.0000 0.05330  0.37740  0.15410  Biso   1.000  C
  C13      1.0000 0.11850  0.47100  0.13020  Biso   1.000  C
  C14      1.0000 0.10880  0.47990  0.07570  Biso   1.000  C
  C15      1.0000 0.13990  0.45280  0.91350  Biso   1.000  C
  C16      1.0000 0.26790  0.49720  0.88920  Biso   1.000  C
  C17      1.0000 0.37720  0.55050  0.92060  Biso   1.000  C
  C18      1.0000 0.49870  0.58620  0.89790  Biso   1.000  C
  C19      1.0000 0.50020  0.56780  0.84120  Biso   1.000  C
  C20      1.0000 0.38800  0.51490  0.81470  Biso   1.000  C
  C21      1.0000 0.87920  0.98040  0.47120  Biso   1.000  C
  C22      1.0000 0.00040  0.94740  0.44790  Biso   1.000  C
  C23      1.0000 0.00210  0.95250  0.39360  Biso   1.000  C
  C24      1.0000 0.88320  0.99840  0.36380  Biso   1.000  C
  C25      1.0000 0.76710  0.03200  0.39080  Biso   1.000  C
  C26      1.0000 0.63620  0.07700  0.36180  Biso   1.000  C
  C27      1.0000 0.50670  0.11370  0.28470  Biso   1.000  C
  C28      1.0000 0.38240  0.13120  0.31360  Biso   1.000  C
  C29      1.0000 0.23700  0.14390  0.29040  Biso   1.000  C
  C30      1.0000 0.18040  0.06350  0.25150  Biso   1.000  C
  C31      1.0000 0.03860  0.07380  0.22990  Biso   1.000  C
  C32      1.0000 0.95240  0.15740  0.24560  Biso   1.000  C
  C33      1.0000 0.00070  0.23230  0.28270  Biso   1.000  C
  C34      1.0000 0.13980  0.22540  0.30620  Biso   1.000  C
  C35      1.0000 0.50420  0.13010  0.22660  Biso   1.000  C
  C36      1.0000 0.58220  0.05700  0.19790  Biso   1.000  C
  C37      1.0000 0.58510  0.07630  0.14300  Biso   1.000  C
  C38      1.0000 0.51670  0.16630  0.11870  Biso   1.000  C
  C39      1.0000 0.44290  0.24130  0.14980  Biso   1.000  C
  C40      1.0000 0.43060  0.22710  0.20230  Biso   1.000  C
  C41      1.0000 0.52520  0.73410  0.45600  Biso   1.000  C
  C42      1.0000 0.47470  0.67300  0.49740  Biso   1.000  C
  C43      1.0000 0.55880  0.59080  0.52340  Biso   1.000  C
  C44      1.0000 0.70100  0.57350  0.50830  Biso   1.000  C
  C45      1.0000 0.75410  0.63400  0.46850  Biso   1.000  C
  C46      1.0000 0.66830  0.71790  0.44270  Biso   1.000  C
  C47      1.0000 0.89770  0.61570  0.45190  Biso   1.000  C
  C48      1.0000 0.02190  0.58680  0.48650  Biso   1.000  C
  C49      1.0000 0.03030  0.59960  0.54410  Biso   1.000  C
  C50      1.0000 0.96750  0.69110  0.56820  Biso   1.000  C
  C51      1.0000 0.98440  0.70040  0.62310  Biso   1.000  C
  C52      1.0000 0.05330  0.62260  0.65410  Biso   1.000  C
  C53      1.0000 0.11850  0.52900  0.63020  Biso   1.000  C
  C54      1.0000 0.10880  0.52010  0.57570  Biso   1.000  C
  C55      1.0000 0.13990  0.54720  0.41350  Biso   1.000  C
  C56      1.0000 0.26790  0.50280  0.38920  Biso   1.000  C
  C57      1.0000 0.37720  0.44950  0.42060  Biso   1.000  C
  C58      1.0000 0.49870  0.41380  0.39790  Biso   1.000  C
  C59      1.0000 0.50020  0.43220  0.34120  Biso   1.000  C
  C60      1.0000 0.38800  0.48510  0.31470  Biso   1.000  C
  C61      1.0000 0.87920  0.01960  0.97120  Biso   1.000  C
  C62      1.0000 0.00040  0.05260  0.94790  Biso   1.000  C
  C63      1.0000 0.00210  0.04750  0.89360  Biso   1.000  C
  C64      1.0000 0.88320  0.00160  0.86380  Biso   1.000  C
  C65      1.0000 0.76710  0.96800  0.89080  Biso   1.000  C
  C66      1.0000 0.63620  0.92300  0.86180  Biso   1.000  C
  C67      1.0000 0.50670  0.88630  0.78470  Biso   1.000  C
  C68      1.0000 0.38240  0.86880  0.81360  Biso   1.000  C
  C69      1.0000 0.23700  0.85610  0.79040  Biso   1.000  C
  C70      1.0000 0.18040  0.93650  0.75150  Biso   1.000  C
  C71      1.0000 0.03860  0.92620  0.72990  Biso   1.000  C
  C72      1.0000 0.95240  0.84260  0.74560  Biso   1.000  C
  C73      1.0000 0.00070  0.76770  0.78270  Biso   1.000  C
  C74      1.0000 0.13980  0.77460  0.80620  Biso   1.000  C
  C75      1.0000 0.50420  0.86990  0.72660  Biso   1.000  C
  C76      1.0000 0.58220  0.94300  0.69790  Biso   1.000  C
  C77      1.0000 0.58510  0.92370  0.64300  Biso   1.000  C
  C78      1.0000 0.51670  0.83370  0.61870  Biso   1.000  C
  C79      1.0000 0.44290  0.75870  0.64980  Biso   1.000  C
  C80      1.0000 0.43060  0.77290  0.70230  Biso   1.000  C
  S1       1.0000 0.41740  0.16210  0.92317  Biso   1.000  S
  S2       1.0000 0.22060  0.56710  0.16948  Biso   1.000  S
  S3       1.0000 0.68730  0.98380  0.10583  Biso   1.000  S
  S4       1.0000 0.88980  0.34410  0.30183  Biso   1.000  S
  S5       1.0000 0.41740  0.83790  0.42317  Biso   1.000  S
  S6       1.0000 0.22060  0.43290  0.66948  Biso   1.000  S
  S7       1.0000 0.68730  0.01620  0.60583  Biso   1.000  S
  S8       1.0000 0.88980  0.65590  0.80183  Biso   1.000  S
  N1       1.0000 0.91240  0.37400  0.90060  Biso   1.000  N
  N2       1.0000 0.03810  0.40190  0.88120  Biso   1.000  N
  N3       1.0000 0.14000  0.45380  0.96650  Biso   1.000  N
  N4       1.0000 0.27230  0.47790  0.83710  Biso   1.000  N
  N5       1.0000 0.53070  0.11470  0.39110  Biso   1.000  N
  N6       1.0000 0.39980  0.13950  0.36510  Biso   1.000  N
  N7       1.0000 0.62880  0.08350  0.30910  Biso   1.000  N
  N8       1.0000 0.75870  0.02070  0.44330  Biso   1.000  N
  N9       1.0000 0.91240  0.62600  0.40060  Biso   1.000  N
  N10      1.0000 0.03810  0.59810  0.38120  Biso   1.000  N
  N11      1.0000 0.14000  0.54620  0.46650  Biso   1.000  N
  N12      1.0000 0.27230  0.52210  0.33710  Biso   1.000  N
  N13      1.0000 0.53070  0.88530  0.89110  Biso   1.000  N
  N14      1.0000 0.39980  0.86050  0.86510  Biso   1.000  N
  N15      1.0000 0.62880  0.91650  0.80910  Biso   1.000  N
  N16      1.0000 0.75870  0.97930  0.94330  Biso   1.000  N
  O1       1.0000 0.35800  0.84290  0.99780  Biso   1.000  O
  O2       1.0000 0.66250  0.76070  0.00050  Biso   1.000  O
  O3       1.0000 0.41960  0.06700  0.95970  Biso   1.000  O
  O4       1.0000 0.27140  0.21160  0.91420  Biso   1.000  O
  O5       1.0000 0.48130  0.13530  0.87480  Biso   1.000  O
  O6       1.0000 0.16170  0.56910  0.21950  Biso   1.000  O
  O7       1.0000 0.20230  0.67170  0.14270  Biso   1.000  O
  O8       1.0000 0.36680  0.52380  0.17440  Biso   1.000  O
  O9       1.0000 0.88520  0.33660  0.35520  Biso   1.000  O
  O10      1.0000 0.75260  0.33090  0.27150  Biso   1.000  O
  O11      1.0000 0.96020  0.44400  0.28690  Biso   1.000  O
  O12      1.0000 0.68380  0.87600  0.12790  Biso   1.000  O
  O13      1.0000 0.61780  0.99090  0.05230  Biso   1.000  O
  O14      1.0000 0.83530  0.02430  0.10980  Biso   1.000  O
  O15      1.0000 0.87770  0.67530  0.26010  Biso   1.000  O
  O16      1.0000 0.18030  0.76350  0.30210  Biso   1.000  O
  O17      1.0000 0.35800  0.15710  0.49780  Biso   1.000  O
  O18      1.0000 0.66250  0.23930  0.50050  Biso   1.000  O
  O19      1.0000 0.41960  0.93300  0.45970  Biso   1.000  O
  O20      1.0000 0.27140  0.78840  0.41420  Biso   1.000  O
  O21      1.0000 0.48130  0.86470  0.37480  Biso   1.000  O
  O22      1.0000 0.16170  0.43090  0.71950  Biso   1.000  O
  O23      1.0000 0.20230  0.32830  0.64270  Biso   1.000  O
  O24      1.0000 0.36680  0.47620  0.67440  Biso   1.000  O
  O25      1.0000 0.88520  0.66340  0.85520  Biso   1.000  O
  O26      1.0000 0.75260  0.66910  0.77150  Biso   1.000  O
  O27      1.0000 0.96020  0.55600  0.78690  Biso   1.000  O
  O28      1.0000 0.68380  0.12400  0.62790  Biso   1.000  O
  O29      1.0000 0.61780  0.00910  0.55230  Biso   1.000  O
  O30      1.0000 0.83530  0.97570  0.60980  Biso   1.000  O
  O31      1.0000 0.87770  0.32470  0.76010  Biso   1.000  O
  O32      1.0000 0.18030  0.23650  0.80210  Biso   1.000  O
