data_image0
_cell_length_a       7.5074
_cell_length_b       9.2012
_cell_length_c       11.6139
_cell_angle_alpha    100.368
_cell_angle_beta     104.665
_cell_angle_gamma    94.691

_symmetry_space_group_name_H-M    P 1
_symmetry_int_tables_number       1

loop_
  _symmetry_equiv_pos_as_xyz
  'x, y, z'

loop_
  _atom_site_label
  _atom_site_occupancy
  _atom_site_fract_x
  _atom_site_fract_y
  _atom_site_fract_z
  _atom_site_thermal_displace_type
  _atom_site_B_iso_or_equiv
  _atom_site_type_symbol
  Cu1      1.0000 0.83950  0.87880  0.48816  Biso   1.000  Cu
  Cu2      1.0000 0.35870  0.92474  0.27853  Biso   1.000  Cu
  Cu3      1.0000 0.16050  0.12120  0.51184  Biso   1.000  Cu
  Cu4      1.0000 0.64130  0.07526  0.72147  Biso   1.000  Cu
  P1       1.0000 0.64680  0.16390  0.47590  Biso   1.000  P
  P2       1.0000 0.96550  0.91970  0.26090  Biso   1.000  P
  P3       1.0000 0.35320  0.83610  0.52410  Biso   1.000  P
  P4       1.0000 0.03450  0.08030  0.73910  Biso   1.000  P
  H1       1.0000 0.68500  0.44190  0.65200  Biso   1.000  H
  H2       1.0000 0.76120  0.69120  0.65060  Biso   1.000  H
  H3       1.0000 0.83490  0.58710  0.32550  Biso   1.000  H
  H4       1.0000 0.76530  0.33810  0.31940  Biso   1.000  H
  H5       1.0000 0.91770  0.18380  0.16250  Biso   1.000  H
  H6       1.0000 0.79010  0.23260  0.97360  Biso   1.000  H
  H7       1.0000 0.60050  0.81290  0.84030  Biso   1.000  H
  H8       1.0000 0.72070  0.75380  0.02550  Biso   1.000  H
  H9       1.0000 0.31500  0.55810  0.34800  Biso   1.000  H
  H10      1.0000 0.23880  0.30880  0.34940  Biso   1.000  H
  H11      1.0000 0.16510  0.41290  0.67450  Biso   1.000  H
  H12      1.0000 0.23470  0.66190  0.68060  Biso   1.000  H
  H13      1.0000 0.08230  0.81620  0.83750  Biso   1.000  H
  H14      1.0000 0.20990  0.76740  0.02640  Biso   1.000  H
  H15      1.0000 0.39950  0.18710  0.15970  Biso   1.000  H
  H16      1.0000 0.27930  0.24620  0.97450  Biso   1.000  H
  C1       1.0000 0.71620  0.35900  0.48380  Biso   1.000  C
  C2       1.0000 0.71490  0.46860  0.58490  Biso   1.000  C
  C3       1.0000 0.75950  0.61910  0.58290  Biso   1.000  C
  C4       1.0000 0.80400  0.55750  0.39110  Biso   1.000  C
  C5       1.0000 0.76200  0.40760  0.38750  Biso   1.000  C
  C6       1.0000 0.84040  0.96180  0.11710  Biso   1.000  C
  C7       1.0000 0.85600  0.10570  0.09830  Biso   1.000  C
  C8       1.0000 0.77900  0.13460  0.98390  Biso   1.000  C
  C9       1.0000 0.66700  0.88810  0.90540  Biso   1.000  C
  C10      1.0000 0.74000  0.85200  0.01700  Biso   1.000  C
  C11      1.0000 0.28380  0.64100  0.51620  Biso   1.000  C
  C12      1.0000 0.28510  0.53140  0.41510  Biso   1.000  C
  C13      1.0000 0.24050  0.38090  0.41710  Biso   1.000  C
  C14      1.0000 0.19600  0.44250  0.60890  Biso   1.000  C
  C15      1.0000 0.23800  0.59240  0.61250  Biso   1.000  C
  C16      1.0000 0.15960  0.03820  0.88290  Biso   1.000  C
  C17      1.0000 0.14400  0.89430  0.90170  Biso   1.000  C
  C18      1.0000 0.22100  0.86540  0.01610  Biso   1.000  C
  C19      1.0000 0.33300  0.11190  0.09460  Biso   1.000  C
  C20      1.0000 0.26000  0.14800  0.98300  Biso   1.000  C
  N1       1.0000 0.79940  0.66250  0.48840  Biso   1.000  N
  N2       1.0000 0.69010  0.02670  0.88780  Biso   1.000  N
  N3       1.0000 0.20060  0.33750  0.51160  Biso   1.000  N
  N4       1.0000 0.30990  0.97330  0.11220  Biso   1.000  N
  O1       1.0000 0.82550  0.09090  0.49370  Biso   1.000  O
  O2       1.0000 0.51370  0.11210  0.34930  Biso   1.000  O
  O3       1.0000 0.54780  0.15610  0.57600  Biso   1.000  O
  O4       1.0000 0.81920  0.84710  0.31090  Biso   1.000  O
  O5       1.0000 0.07350  0.06890  0.33390  Biso   1.000  O
  O6       1.0000 0.10070  0.81170  0.23120  Biso   1.000  O
  O7       1.0000 0.17450  0.90910  0.50630  Biso   1.000  O
  O8       1.0000 0.48630  0.88790  0.65070  Biso   1.000  O
  O9       1.0000 0.45220  0.84390  0.42400  Biso   1.000  O
  O10      1.0000 0.18080  0.15290  0.68910  Biso   1.000  O
  O11      1.0000 0.92650  0.93110  0.66610  Biso   1.000  O
  O12      1.0000 0.89930  0.18830  0.76880  Biso   1.000  O
