data_image0
_cell_length_a       8.7544
_cell_length_b       10.0037
_cell_length_c       11.7895
_cell_angle_alpha    74.695
_cell_angle_beta     69.848
_cell_angle_gamma    86.182

_symmetry_space_group_name_H-M    P 1
_symmetry_int_tables_number       1

loop_
  _symmetry_equiv_pos_as_xyz
  'x, y, z'

loop_
  _atom_site_label
  _atom_site_occupancy
  _atom_site_fract_x
  _atom_site_fract_y
  _atom_site_fract_z
  _atom_site_thermal_displace_type
  _atom_site_B_iso_or_equiv
  _atom_site_type_symbol
  La1      1.0000 0.25466  0.52247  0.48761  Biso   1.000  La
  La2      1.0000 0.74534  0.47753  0.51239  Biso   1.000  La
  H1       1.0000 0.76670  0.70040  0.13640  Biso   1.000  H
  H2       1.0000 0.79380  0.54060  0.16250  Biso   1.000  H
  H3       1.0000 0.62650  0.69070  0.00520  Biso   1.000  H
  H4       1.0000 0.62710  0.52840  0.04130  Biso   1.000  H
  H5       1.0000 0.91300  0.53960  0.94030  Biso   1.000  H
  H6       1.0000 0.90460  0.70150  0.89780  Biso   1.000  H
  H7       1.0000 0.75650  0.68620  0.77480  Biso   1.000  H
  H8       1.0000 0.73680  0.52540  0.82780  Biso   1.000  H
  H9       1.0000 0.27560  0.03300  0.39950  Biso   1.000  H
  H10      1.0000 0.24020  0.01990  0.28120  Biso   1.000  H
  H11      1.0000 0.02180  0.12180  0.40170  Biso   1.000  H
  H12      1.0000 0.96460  0.97850  0.39770  Biso   1.000  H
  H13      1.0000 0.18600  0.22600  0.65300  Biso   1.000  H
  H14      1.0000 0.35000  0.23200  0.47300  Biso   1.000  H
  H15      1.0000 0.46900  0.29700  0.36100  Biso   1.000  H
  H16      1.0000 0.04900  0.26900  0.64200  Biso   1.000  H
  H17      1.0000 0.23330  0.29960  0.86360  Biso   1.000  H
  H18      1.0000 0.20620  0.45940  0.83750  Biso   1.000  H
  H19      1.0000 0.37350  0.30930  0.99480  Biso   1.000  H
  H20      1.0000 0.37290  0.47160  0.95870  Biso   1.000  H
  H21      1.0000 0.08700  0.46040  0.05970  Biso   1.000  H
  H22      1.0000 0.09540  0.29850  0.10220  Biso   1.000  H
  H23      1.0000 0.24350  0.31380  0.22520  Biso   1.000  H
  H24      1.0000 0.26320  0.47460  0.17220  Biso   1.000  H
  H25      1.0000 0.72440  0.96700  0.60050  Biso   1.000  H
  H26      1.0000 0.75980  0.98010  0.71880  Biso   1.000  H
  H27      1.0000 0.97820  0.87820  0.59830  Biso   1.000  H
  H28      1.0000 0.03540  0.02150  0.60230  Biso   1.000  H
  H29      1.0000 0.81400  0.77400  0.34700  Biso   1.000  H
  H30      1.0000 0.65000  0.76800  0.52700  Biso   1.000  H
  H31      1.0000 0.53100  0.70300  0.63900  Biso   1.000  H
  H32      1.0000 0.95100  0.73100  0.35800  Biso   1.000  H
  C1       1.0000 0.56590  0.58810  0.26100  Biso   1.000  C
  C2       1.0000 0.71730  0.61190  0.14750  Biso   1.000  C
  C3       1.0000 0.69020  0.61120  0.02680  Biso   1.000  C
  C4       1.0000 0.84510  0.61520  0.91740  Biso   1.000  C
  C5       1.0000 0.81160  0.60350  0.80310  Biso   1.000  C
  C6       1.0000 0.95600  0.58550  0.69450  Biso   1.000  C
  C7       1.0000 0.23610  0.83220  0.40460  Biso   1.000  C
  C8       1.0000 0.20750  0.98600  0.37140  Biso   1.000  C
  C9       1.0000 0.03200  0.02230  0.42880  Biso   1.000  C
  C10      1.0000 0.43410  0.41190  0.73900  Biso   1.000  C
  C11      1.0000 0.28270  0.38810  0.85250  Biso   1.000  C
  C12      1.0000 0.30980  0.38880  0.97320  Biso   1.000  C
  C13      1.0000 0.15490  0.38480  0.08260  Biso   1.000  C
  C14      1.0000 0.18840  0.39650  0.19690  Biso   1.000  C
  C15      1.0000 0.04400  0.41450  0.30550  Biso   1.000  C
  C16      1.0000 0.76390  0.16780  0.59540  Biso   1.000  C
  C17      1.0000 0.79250  0.01400  0.62860  Biso   1.000  C
  C18      1.0000 0.96800  0.97770  0.57120  Biso   1.000  C
  O1       1.0000 0.42720  0.60740  0.25050  Biso   1.000  O
  O2       1.0000 0.57730  0.54610  0.37000  Biso   1.000  O
  O3       1.0000 0.09860  0.61780  0.68310  Biso   1.000  O
  O4       1.0000 0.93320  0.53570  0.61178  Biso   1.000  O
  O5       1.0000 0.13730  0.74980  0.39950  Biso   1.000  O
  O6       1.0000 0.35680  0.78550  0.43760  Biso   1.000  O
  O7       1.0000 0.12840  0.29360  0.65330  Biso   1.000  O
  O8       1.0000 0.37770  0.29960  0.41170  Biso   1.000  O
  O9       1.0000 0.57280  0.39260  0.74950  Biso   1.000  O
  O10      1.0000 0.42270  0.45390  0.63000  Biso   1.000  O
  O11      1.0000 0.90140  0.38220  0.31690  Biso   1.000  O
  O12      1.0000 0.06680  0.46430  0.38822  Biso   1.000  O
  O13      1.0000 0.86270  0.25020  0.60050  Biso   1.000  O
  O14      1.0000 0.64320  0.21450  0.56240  Biso   1.000  O
  O15      1.0000 0.87160  0.70640  0.34670  Biso   1.000  O
  O16      1.0000 0.62230  0.70040  0.58830  Biso   1.000  O
