data_image0
_cell_length_a       23.118
_cell_length_b       20.9192
_cell_length_c       12.0021
_cell_angle_alpha    90
_cell_angle_beta     111.627
_cell_angle_gamma    90

_symmetry_space_group_name_H-M    "P 1"
_symmetry_int_tables_number       1

loop_
  _symmetry_equiv_pos_as_xyz
  'x, y, z'

loop_
  _atom_site_label
  _atom_site_occupancy
  _atom_site_fract_x
  _atom_site_fract_y
  _atom_site_fract_z
  _atom_site_thermal_displace_type
  _atom_site_B_iso_or_equiv
  _atom_site_type_symbol
  O1       1.0000 0.03780  0.00040  0.18550  Biso   1.000  O
  O2       1.0000 0.93400  0.12460  0.14400  Biso   1.000  O
  O3       1.0000 0.95870  0.08980  0.98700  Biso   1.000  O
  O4       1.0000 0.55820  0.37590  0.36610  Biso   1.000  O
  O5       1.0000 0.58070  0.45670  0.49720  Biso   1.000  O
  C1       1.0000 0.92810  0.12320  0.02800  Biso   1.000  C
  C2       1.0000 0.87940  0.16690  0.95300  Biso   1.000  C
  C3       1.0000 0.85000  0.21140  0.99400  Biso   1.000  C
  C4       1.0000 0.80360  0.25080  0.92100  Biso   1.000  C
  C5       1.0000 0.78630  0.24530  0.79400  Biso   1.000  C
  C6       1.0000 0.81510  0.19910  0.75200  Biso   1.000  C
  C7       1.0000 0.86240  0.16070  0.82700  Biso   1.000  C
  C8       1.0000 0.73550  0.28650  0.71300  Biso   1.000  C
  C9       1.0000 0.72600  0.34910  0.74200  Biso   1.000  C
  C10      1.0000 0.67700  0.38560  0.66200  Biso   1.000  C
  C11      1.0000 0.64010  0.36110  0.55300  Biso   1.000  C
  C12      1.0000 0.65000  0.30000  0.52500  Biso   1.000  C
  C13      1.0000 0.69680  0.26110  0.60000  Biso   1.000  C
  C14      1.0000 0.59070  0.40200  0.46800  Biso   1.000  C
  H1       1.0000 0.86190  0.21590  0.07860  Biso   1.000  H
  H2       1.0000 0.78370  0.28100  0.95410  Biso   1.000  H
  H3       1.0000 0.80210  0.19310  0.66770  Biso   1.000  H
  H4       1.0000 0.88310  0.13090  0.79460  Biso   1.000  H
  H5       1.0000 0.75250  0.36730  0.81550  Biso   1.000  H
  H6       1.0000 0.66960  0.42770  0.68330  Biso   1.000  H
  H7       1.0000 0.62350  0.28340  0.45040  Biso   1.000  H
  H8       1.0000 0.70270  0.21900  0.57670  Biso   1.000  H
  H9       1.0000 0.08200  0.00030  0.21770  Biso   1.000  H
  O6       1.0000 0.53780  0.50040  0.18550  Biso   1.000  O
  O7       1.0000 0.43400  0.62460  0.14400  Biso   1.000  O
  O8       1.0000 0.45870  0.58980  0.98700  Biso   1.000  O
  O9       1.0000 0.05820  0.87590  0.36610  Biso   1.000  O
  O10      1.0000 0.08070  0.95670  0.49720  Biso   1.000  O
  C15      1.0000 0.42810  0.62320  0.02800  Biso   1.000  C
  C16      1.0000 0.37940  0.66690  0.95300  Biso   1.000  C
  C17      1.0000 0.35000  0.71140  0.99400  Biso   1.000  C
  C18      1.0000 0.30360  0.75080  0.92100  Biso   1.000  C
  C19      1.0000 0.28630  0.74530  0.79400  Biso   1.000  C
  C20      1.0000 0.31510  0.69910  0.75200  Biso   1.000  C
  C21      1.0000 0.36240  0.66070  0.82700  Biso   1.000  C
  C22      1.0000 0.23550  0.78650  0.71300  Biso   1.000  C
  C23      1.0000 0.22600  0.84910  0.74200  Biso   1.000  C
  C24      1.0000 0.17700  0.88560  0.66200  Biso   1.000  C
  C25      1.0000 0.14010  0.86110  0.55300  Biso   1.000  C
  C26      1.0000 0.15000  0.80000  0.52500  Biso   1.000  C
  C27      1.0000 0.19680  0.76110  0.60000  Biso   1.000  C
  C28      1.0000 0.09070  0.90200  0.46800  Biso   1.000  C
  H10      1.0000 0.36190  0.71590  0.07860  Biso   1.000  H
  H11      1.0000 0.28370  0.78100  0.95410  Biso   1.000  H
  H12      1.0000 0.30210  0.69310  0.66770  Biso   1.000  H
  H13      1.0000 0.38310  0.63090  0.79460  Biso   1.000  H
  H14      1.0000 0.25250  0.86730  0.81550  Biso   1.000  H
  H15      1.0000 0.16960  0.92770  0.68330  Biso   1.000  H
  H16      1.0000 0.12350  0.78340  0.45040  Biso   1.000  H
  H17      1.0000 0.20270  0.71900  0.57670  Biso   1.000  H
  H18      1.0000 0.58200  0.50030  0.21770  Biso   1.000  H
  O11      1.0000 0.96220  0.00040  0.31450  Biso   1.000  O
  O12      1.0000 0.06600  0.12460  0.35600  Biso   1.000  O
  O13      1.0000 0.04130  0.08980  0.51300  Biso   1.000  O
  O14      1.0000 0.44180  0.37590  0.13390  Biso   1.000  O
  O15      1.0000 0.41930  0.45670  0.00280  Biso   1.000  O
  C29      1.0000 0.07190  0.12320  0.47200  Biso   1.000  C
  C30      1.0000 0.12060  0.16690  0.54700  Biso   1.000  C
  C31      1.0000 0.15000  0.21140  0.50600  Biso   1.000  C
  C32      1.0000 0.19640  0.25080  0.57900  Biso   1.000  C
  C33      1.0000 0.21370  0.24530  0.70600  Biso   1.000  C
  C34      1.0000 0.18490  0.19910  0.74800  Biso   1.000  C
  C35      1.0000 0.13760  0.16070  0.67300  Biso   1.000  C
  C36      1.0000 0.26450  0.28650  0.78700  Biso   1.000  C
  C37      1.0000 0.27400  0.34910  0.75800  Biso   1.000  C
  C38      1.0000 0.32300  0.38560  0.83800  Biso   1.000  C
  C39      1.0000 0.35990  0.36110  0.94700  Biso   1.000  C
  C40      1.0000 0.35000  0.30000  0.97500  Biso   1.000  C
  C41      1.0000 0.30320  0.26110  0.90000  Biso   1.000  C
  C42      1.0000 0.40930  0.40200  0.03200  Biso   1.000  C
  H19      1.0000 0.13810  0.21590  0.42140  Biso   1.000  H
  H20      1.0000 0.21630  0.28100  0.54590  Biso   1.000  H
  H21      1.0000 0.19790  0.19310  0.83230  Biso   1.000  H
  H22      1.0000 0.11690  0.13090  0.70540  Biso   1.000  H
  H23      1.0000 0.24750  0.36730  0.68450  Biso   1.000  H
  H24      1.0000 0.33040  0.42770  0.81670  Biso   1.000  H
  H25      1.0000 0.37650  0.28340  0.04960  Biso   1.000  H
  H26      1.0000 0.29730  0.21900  0.92330  Biso   1.000  H
  H27      1.0000 0.91800  0.00030  0.28230  Biso   1.000  H
  O16      1.0000 0.46220  0.50040  0.31450  Biso   1.000  O
  O17      1.0000 0.56600  0.62460  0.35600  Biso   1.000  O
  O18      1.0000 0.54130  0.58980  0.51300  Biso   1.000  O
  O19      1.0000 0.94180  0.87590  0.13390  Biso   1.000  O
  O20      1.0000 0.91930  0.95670  0.00280  Biso   1.000  O
  C43      1.0000 0.57190  0.62320  0.47200  Biso   1.000  C
  C44      1.0000 0.62060  0.66690  0.54700  Biso   1.000  C
  C45      1.0000 0.65000  0.71140  0.50600  Biso   1.000  C
  C46      1.0000 0.69640  0.75080  0.57900  Biso   1.000  C
  C47      1.0000 0.71370  0.74530  0.70600  Biso   1.000  C
  C48      1.0000 0.68490  0.69910  0.74800  Biso   1.000  C
  C49      1.0000 0.63760  0.66070  0.67300  Biso   1.000  C
  C50      1.0000 0.76450  0.78650  0.78700  Biso   1.000  C
  C51      1.0000 0.77400  0.84910  0.75800  Biso   1.000  C
  C52      1.0000 0.82300  0.88560  0.83800  Biso   1.000  C
  C53      1.0000 0.85990  0.86110  0.94700  Biso   1.000  C
  C54      1.0000 0.85000  0.80000  0.97500  Biso   1.000  C
  C55      1.0000 0.80320  0.76110  0.90000  Biso   1.000  C
  C56      1.0000 0.90930  0.90200  0.03200  Biso   1.000  C
  H28      1.0000 0.63810  0.71590  0.42140  Biso   1.000  H
  H29      1.0000 0.71630  0.78100  0.54590  Biso   1.000  H
  H30      1.0000 0.69790  0.69310  0.83230  Biso   1.000  H
  H31      1.0000 0.61690  0.63090  0.70540  Biso   1.000  H
  H32      1.0000 0.74750  0.86730  0.68450  Biso   1.000  H
  H33      1.0000 0.83040  0.92770  0.81670  Biso   1.000  H
  H34      1.0000 0.87650  0.78340  0.04960  Biso   1.000  H
  H35      1.0000 0.79730  0.71900  0.92330  Biso   1.000  H
  H36      1.0000 0.41800  0.50030  0.28230  Biso   1.000  H
  O21      1.0000 0.96220  0.99960  0.81450  Biso   1.000  O
  O22      1.0000 0.06600  0.87540  0.85600  Biso   1.000  O
  O23      1.0000 0.04130  0.91020  0.01300  Biso   1.000  O
  O24      1.0000 0.44180  0.62410  0.63390  Biso   1.000  O
  O25      1.0000 0.41930  0.54330  0.50280  Biso   1.000  O
  C57      1.0000 0.07190  0.87680  0.97200  Biso   1.000  C
  C58      1.0000 0.12060  0.83310  0.04700  Biso   1.000  C
  C59      1.0000 0.15000  0.78860  0.00600  Biso   1.000  C
  C60      1.0000 0.19640  0.74920  0.07900  Biso   1.000  C
  C61      1.0000 0.21370  0.75470  0.20600  Biso   1.000  C
  C62      1.0000 0.18490  0.80090  0.24800  Biso   1.000  C
  C63      1.0000 0.13760  0.83930  0.17300  Biso   1.000  C
  C64      1.0000 0.26450  0.71350  0.28700  Biso   1.000  C
  C65      1.0000 0.27400  0.65090  0.25800  Biso   1.000  C
  C66      1.0000 0.32300  0.61440  0.33800  Biso   1.000  C
  C67      1.0000 0.35990  0.63890  0.44700  Biso   1.000  C
  C68      1.0000 0.35000  0.70000  0.47500  Biso   1.000  C
  C69      1.0000 0.30320  0.73890  0.40000  Biso   1.000  C
  C70      1.0000 0.40930  0.59800  0.53200  Biso   1.000  C
  H37      1.0000 0.13810  0.78410  0.92140  Biso   1.000  H
  H38      1.0000 0.21630  0.71900  0.04590  Biso   1.000  H
  H39      1.0000 0.19790  0.80690  0.33230  Biso   1.000  H
  H40      1.0000 0.11690  0.86910  0.20540  Biso   1.000  H
  H41      1.0000 0.24750  0.63270  0.18450  Biso   1.000  H
  H42      1.0000 0.33040  0.57230  0.31670  Biso   1.000  H
  H43      1.0000 0.37650  0.71660  0.54960  Biso   1.000  H
  H44      1.0000 0.29730  0.78100  0.42330  Biso   1.000  H
  H45      1.0000 0.91800  0.99970  0.78230  Biso   1.000  H
  O26      1.0000 0.46220  0.49960  0.81450  Biso   1.000  O
  O27      1.0000 0.56600  0.37540  0.85600  Biso   1.000  O
  O28      1.0000 0.54130  0.41020  0.01300  Biso   1.000  O
  O29      1.0000 0.94180  0.12410  0.63390  Biso   1.000  O
  O30      1.0000 0.91930  0.04330  0.50280  Biso   1.000  O
  C71      1.0000 0.57190  0.37680  0.97200  Biso   1.000  C
  C72      1.0000 0.62060  0.33310  0.04700  Biso   1.000  C
  C73      1.0000 0.65000  0.28860  0.00600  Biso   1.000  C
  C74      1.0000 0.69640  0.24920  0.07900  Biso   1.000  C
  C75      1.0000 0.71370  0.25470  0.20600  Biso   1.000  C
  C76      1.0000 0.68490  0.30090  0.24800  Biso   1.000  C
  C77      1.0000 0.63760  0.33930  0.17300  Biso   1.000  C
  C78      1.0000 0.76450  0.21350  0.28700  Biso   1.000  C
  C79      1.0000 0.77400  0.15090  0.25800  Biso   1.000  C
  C80      1.0000 0.82300  0.11440  0.33800  Biso   1.000  C
  C81      1.0000 0.85990  0.13890  0.44700  Biso   1.000  C
  C82      1.0000 0.85000  0.20000  0.47500  Biso   1.000  C
  C83      1.0000 0.80320  0.23890  0.40000  Biso   1.000  C
  C84      1.0000 0.90930  0.09800  0.53200  Biso   1.000  C
  H46      1.0000 0.63810  0.28410  0.92140  Biso   1.000  H
  H47      1.0000 0.71630  0.21900  0.04590  Biso   1.000  H
  H48      1.0000 0.69790  0.30690  0.33230  Biso   1.000  H
  H49      1.0000 0.61690  0.36910  0.20540  Biso   1.000  H
  H50      1.0000 0.74750  0.13270  0.18450  Biso   1.000  H
  H51      1.0000 0.83040  0.07230  0.31670  Biso   1.000  H
  H52      1.0000 0.87650  0.21660  0.54960  Biso   1.000  H
  H53      1.0000 0.79730  0.28100  0.42330  Biso   1.000  H
  H54      1.0000 0.41800  0.49970  0.78230  Biso   1.000  H
  O31      1.0000 0.03780  0.99960  0.68550  Biso   1.000  O
  O32      1.0000 0.93400  0.87540  0.64400  Biso   1.000  O
  O33      1.0000 0.95870  0.91020  0.48700  Biso   1.000  O
  O34      1.0000 0.55820  0.62410  0.86610  Biso   1.000  O
  O35      1.0000 0.58070  0.54330  0.99720  Biso   1.000  O
  C85      1.0000 0.92810  0.87680  0.52800  Biso   1.000  C
  C86      1.0000 0.87940  0.83310  0.45300  Biso   1.000  C
  C87      1.0000 0.85000  0.78860  0.49400  Biso   1.000  C
  C88      1.0000 0.80360  0.74920  0.42100  Biso   1.000  C
  C89      1.0000 0.78630  0.75470  0.29400  Biso   1.000  C
  C90      1.0000 0.81510  0.80090  0.25200  Biso   1.000  C
  C91      1.0000 0.86240  0.83930  0.32700  Biso   1.000  C
  C92      1.0000 0.73550  0.71350  0.21300  Biso   1.000  C
  C93      1.0000 0.72600  0.65090  0.24200  Biso   1.000  C
  C94      1.0000 0.67700  0.61440  0.16200  Biso   1.000  C
  C95      1.0000 0.64010  0.63890  0.05300  Biso   1.000  C
  C96      1.0000 0.65000  0.70000  0.02500  Biso   1.000  C
  C97      1.0000 0.69680  0.73890  0.10000  Biso   1.000  C
  C98      1.0000 0.59070  0.59800  0.96800  Biso   1.000  C
  H55      1.0000 0.86190  0.78410  0.57860  Biso   1.000  H
  H56      1.0000 0.78370  0.71900  0.45410  Biso   1.000  H
  H57      1.0000 0.80210  0.80690  0.16770  Biso   1.000  H
  H58      1.0000 0.88310  0.86910  0.29460  Biso   1.000  H
  H59      1.0000 0.75250  0.63270  0.31550  Biso   1.000  H
  H60      1.0000 0.66960  0.57230  0.18330  Biso   1.000  H
  H61      1.0000 0.62350  0.71660  0.95040  Biso   1.000  H
  H62      1.0000 0.70270  0.78100  0.07670  Biso   1.000  H
  H63      1.0000 0.08200  0.99970  0.71770  Biso   1.000  H
  O36      1.0000 0.53780  0.49960  0.68550  Biso   1.000  O
  O37      1.0000 0.43400  0.37540  0.64400  Biso   1.000  O
  O38      1.0000 0.45870  0.41020  0.48700  Biso   1.000  O
  O39      1.0000 0.05820  0.12410  0.86610  Biso   1.000  O
  O40      1.0000 0.08070  0.04330  0.99720  Biso   1.000  O
  C99      1.0000 0.42810  0.37680  0.52800  Biso   1.000  C
  C100     1.0000 0.37940  0.33310  0.45300  Biso   1.000  C
  C101     1.0000 0.35000  0.28860  0.49400  Biso   1.000  C
  C102     1.0000 0.30360  0.24920  0.42100  Biso   1.000  C
  C103     1.0000 0.28630  0.25470  0.29400  Biso   1.000  C
  C104     1.0000 0.31510  0.30090  0.25200  Biso   1.000  C
  C105     1.0000 0.36240  0.33930  0.32700  Biso   1.000  C
  C106     1.0000 0.23550  0.21350  0.21300  Biso   1.000  C
  C107     1.0000 0.22600  0.15090  0.24200  Biso   1.000  C
  C108     1.0000 0.17700  0.11440  0.16200  Biso   1.000  C
  C109     1.0000 0.14010  0.13890  0.05300  Biso   1.000  C
  C110     1.0000 0.15000  0.20000  0.02500  Biso   1.000  C
  C111     1.0000 0.19680  0.23890  0.10000  Biso   1.000  C
  C112     1.0000 0.09070  0.09800  0.96800  Biso   1.000  C
  H64      1.0000 0.36190  0.28410  0.57860  Biso   1.000  H
  H65      1.0000 0.28370  0.21900  0.45410  Biso   1.000  H
  H66      1.0000 0.30210  0.30690  0.16770  Biso   1.000  H
  H67      1.0000 0.38310  0.36910  0.29460  Biso   1.000  H
  H68      1.0000 0.25250  0.13270  0.31550  Biso   1.000  H
  H69      1.0000 0.16960  0.07230  0.18330  Biso   1.000  H
  H70      1.0000 0.12350  0.21660  0.95040  Biso   1.000  H
  H71      1.0000 0.20270  0.28100  0.07670  Biso   1.000  H
  H72      1.0000 0.58200  0.49970  0.71770  Biso   1.000  H
  Zn1      1.0000 0.00000  0.00000  0.00000  Biso   1.000  Zn
  Zn2      1.0000 0.50000  0.50000  0.00000  Biso   1.000  Zn
  Zn3      1.0000 0.00000  0.00000  0.50000  Biso   1.000  Zn
  Zn4      1.0000 0.50000  0.50000  0.50000  Biso   1.000  Zn
  Zn5      1.0000 0.00000  0.07090  0.25000  Biso   1.000  Zn
  Zn6      1.0000 0.00000  0.93180  0.25000  Biso   1.000  Zn
  Zn7      1.0000 0.50000  0.57090  0.25000  Biso   1.000  Zn
  Zn8      1.0000 0.50000  0.43180  0.25000  Biso   1.000  Zn
  Zn9      1.0000 0.00000  0.92910  0.75000  Biso   1.000  Zn
  Zn10     1.0000 0.00000  0.06820  0.75000  Biso   1.000  Zn
  Zn11     1.0000 0.50000  0.42910  0.75000  Biso   1.000  Zn
  Zn12     1.0000 0.50000  0.56820  0.75000  Biso   1.000  Zn
