data_image0
_cell_length_a       18.177
_cell_length_b       23.867
_cell_length_c       22.425
_cell_angle_alpha    90
_cell_angle_beta     90
_cell_angle_gamma    90

_symmetry_space_group_name_H-M    P 1
_symmetry_int_tables_number       1

loop_
  _symmetry_equiv_pos_as_xyz
  'x, y, z'

loop_
  _atom_site_label
  _atom_site_occupancy
  _atom_site_fract_x
  _atom_site_fract_y
  _atom_site_fract_z
  _atom_site_thermal_displace_type
  _atom_site_B_iso_or_equiv
  _atom_site_type_symbol
  Cu1      1.0000 0.42968  0.74238  0.65523  Biso   1.000  Cu
  Cu2      1.0000 0.92948  0.75435  0.31064  Biso   1.000  Cu
  Cu3      1.0000 0.92723  0.89034  0.37472  Biso   1.000  Cu
  Cu4      1.0000 0.42681  0.87806  0.59275  Biso   1.000  Cu
  Cu5      1.0000 0.69023  0.77757  0.49380  Biso   1.000  Cu
  Cu6      1.0000 0.17242  0.77648  0.48855  Biso   1.000  Cu
  Cu7      1.0000 0.78930  0.88320  0.49980  Biso   1.000  Cu
  Cu8      1.0000 0.57032  0.25762  0.15523  Biso   1.000  Cu
  Cu9      1.0000 0.07052  0.24565  0.81064  Biso   1.000  Cu
  Cu10     1.0000 0.07277  0.10966  0.87472  Biso   1.000  Cu
  Cu11     1.0000 0.57319  0.12194  0.09275  Biso   1.000  Cu
  Cu12     1.0000 0.30977  0.22243  0.99380  Biso   1.000  Cu
  Cu13     1.0000 0.82758  0.22352  0.98855  Biso   1.000  Cu
  Cu14     1.0000 0.21070  0.11680  0.99980  Biso   1.000  Cu
  Cu15     1.0000 0.07032  0.24238  0.65523  Biso   1.000  Cu
  Cu16     1.0000 0.57052  0.25435  0.31064  Biso   1.000  Cu
  Cu17     1.0000 0.57277  0.39034  0.37472  Biso   1.000  Cu
  Cu18     1.0000 0.07319  0.37806  0.59275  Biso   1.000  Cu
  Cu19     1.0000 0.80977  0.27757  0.49380  Biso   1.000  Cu
  Cu20     1.0000 0.32758  0.27648  0.48855  Biso   1.000  Cu
  Cu21     1.0000 0.71070  0.38320  0.49980  Biso   1.000  Cu
  Cu22     1.0000 0.92968  0.75762  0.15523  Biso   1.000  Cu
  Cu23     1.0000 0.42948  0.74565  0.81064  Biso   1.000  Cu
  Cu24     1.0000 0.42723  0.60966  0.87472  Biso   1.000  Cu
  Cu25     1.0000 0.92681  0.62194  0.09275  Biso   1.000  Cu
  Cu26     1.0000 0.19023  0.72243  0.99380  Biso   1.000  Cu
  Cu27     1.0000 0.67242  0.72352  0.98855  Biso   1.000  Cu
  Cu28     1.0000 0.28930  0.61680  0.99980  Biso   1.000  Cu
  H1       1.0000 0.96410  0.52260  0.29650  Biso   1.000  H
  H2       1.0000 0.97190  0.46990  0.38520  Biso   1.000  H
  H3       1.0000 0.95890  0.61250  0.48100  Biso   1.000  H
  H4       1.0000 0.94680  0.66280  0.39390  Biso   1.000  H
  H5       1.0000 0.92770  0.03230  0.06220  Biso   1.000  H
  H6       1.0000 0.92490  0.84070  0.07610  Biso   1.000  H
  H7       1.0000 0.92940  0.99050  0.15540  Biso   1.000  H
  H8       1.0000 0.93550  0.88100  0.98450  Biso   1.000  H
  H9       1.0000 0.59450  0.68280  0.66860  Biso   1.000  H
  H10      1.0000 0.63230  0.58930  0.67300  Biso   1.000  H
  H11      1.0000 0.91590  0.54680  0.55990  Biso   1.000  H
  H12      1.0000 0.04020  0.43980  0.46950  Biso   1.000  H
  H13      1.0000 0.59590  0.67370  0.48830  Biso   1.000  H
  H14      1.0000 0.63590  0.58100  0.49360  Biso   1.000  H
  H15      1.0000 0.91240  0.93740  0.89420  Biso   1.000  H
  H16      1.0000 0.77110  0.69560  0.30320  Biso   1.000  H
  H17      1.0000 0.78880  0.66240  0.47880  Biso   1.000  H
  H18      1.0000 0.76650  0.56870  0.45910  Biso   1.000  H
  H19      1.0000 0.62230  0.51840  0.39520  Biso   1.000  H
  H20      1.0000 0.96980  0.00450  0.82260  Biso   1.000  H
  H21      1.0000 0.81310  0.48010  0.32280  Biso   1.000  H
  H22      1.0000 0.12480  0.67340  0.44370  Biso   1.000  H
  H23      1.0000 0.27090  0.68640  0.68350  Biso   1.000  H
  H24      1.0000 0.09650  0.72620  0.27640  Biso   1.000  H
  H25      1.0000 0.23790  0.59650  0.69970  Biso   1.000  H
  H26      1.0000 0.11950  0.50500  0.57250  Biso   1.000  H
  H27      1.0000 0.73760  0.39710  0.32500  Biso   1.000  H
  H28      1.0000 0.28160  0.48470  0.68570  Biso   1.000  H
  H29      1.0000 0.14240  0.64200  0.24120  Biso   1.000  H
  H30      1.0000 0.24260  0.66070  0.50680  Biso   1.000  H
  H31      1.0000 0.73520  0.60220  0.28560  Biso   1.000  H
  H32      1.0000 0.26410  0.53590  0.35940  Biso   1.000  H
  H33      1.0000 0.16900  0.58760  0.41000  Biso   1.000  H
  H34      1.0000 0.21750  0.56800  0.52500  Biso   1.000  H
  H35      1.0000 0.95970  0.47380  0.62760  Biso   1.000  H
  H36      1.0000 0.18100  0.44200  0.23210  Biso   1.000  H
  H37      1.0000 0.21820  0.39340  0.67030  Biso   1.000  H
  H38      1.0000 0.01500  0.05500  0.98490  Biso   1.000  H
  H39      1.0000 0.11720  0.53290  0.23260  Biso   1.000  H
  H40      1.0000 0.77430  0.42840  0.52880  Biso   1.000  H
  H41      1.0000 0.77730  0.52980  0.55600  Biso   1.000  H
  H42      1.0000 0.57550  0.46980  0.59620  Biso   1.000  H
  H43      1.0000 0.03590  0.47740  0.79650  Biso   1.000  H
  H44      1.0000 0.02810  0.53010  0.88520  Biso   1.000  H
  H45      1.0000 0.04110  0.38750  0.98100  Biso   1.000  H
  H46      1.0000 0.05320  0.33720  0.89390  Biso   1.000  H
  H47      1.0000 0.07230  0.96770  0.56220  Biso   1.000  H
  H48      1.0000 0.07510  0.15930  0.57610  Biso   1.000  H
  H49      1.0000 0.07060  0.00950  0.65540  Biso   1.000  H
  H50      1.0000 0.06450  0.11900  0.48450  Biso   1.000  H
  H51      1.0000 0.40550  0.31720  0.16860  Biso   1.000  H
  H52      1.0000 0.36770  0.41070  0.17300  Biso   1.000  H
  H53      1.0000 0.08410  0.45320  0.05990  Biso   1.000  H
  H54      1.0000 0.95980  0.56020  0.96950  Biso   1.000  H
  H55      1.0000 0.40410  0.32630  0.98830  Biso   1.000  H
  H56      1.0000 0.36410  0.41900  0.99360  Biso   1.000  H
  H57      1.0000 0.08760  0.06260  0.39420  Biso   1.000  H
  H58      1.0000 0.22890  0.30440  0.80320  Biso   1.000  H
  H59      1.0000 0.21120  0.33760  0.97880  Biso   1.000  H
  H60      1.0000 0.23350  0.43130  0.95910  Biso   1.000  H
  H61      1.0000 0.37770  0.48160  0.89520  Biso   1.000  H
  H62      1.0000 0.03020  0.99550  0.32260  Biso   1.000  H
  H63      1.0000 0.18690  0.51990  0.82280  Biso   1.000  H
  H64      1.0000 0.87520  0.32660  0.94370  Biso   1.000  H
  H65      1.0000 0.72910  0.31360  0.18350  Biso   1.000  H
  H66      1.0000 0.90350  0.27380  0.77640  Biso   1.000  H
  H67      1.0000 0.76210  0.40350  0.19970  Biso   1.000  H
  H68      1.0000 0.88050  0.49500  0.07250  Biso   1.000  H
  H69      1.0000 0.26240  0.60290  0.82500  Biso   1.000  H
  H70      1.0000 0.71840  0.51530  0.18570  Biso   1.000  H
  H71      1.0000 0.85760  0.35800  0.74120  Biso   1.000  H
  H72      1.0000 0.75740  0.33930  0.00680  Biso   1.000  H
  H73      1.0000 0.26480  0.39780  0.78560  Biso   1.000  H
  H74      1.0000 0.73590  0.46410  0.85940  Biso   1.000  H
  H75      1.0000 0.83100  0.41240  0.91000  Biso   1.000  H
  H76      1.0000 0.78250  0.43200  0.02500  Biso   1.000  H
  H77      1.0000 0.04030  0.52620  0.12760  Biso   1.000  H
  H78      1.0000 0.81900  0.55800  0.73210  Biso   1.000  H
  H79      1.0000 0.78180  0.60660  0.17030  Biso   1.000  H
  H80      1.0000 0.98500  0.94500  0.48490  Biso   1.000  H
  H81      1.0000 0.88280  0.46710  0.73260  Biso   1.000  H
  H82      1.0000 0.22570  0.57160  0.02880  Biso   1.000  H
  H83      1.0000 0.22270  0.47020  0.05600  Biso   1.000  H
  H84      1.0000 0.42450  0.53020  0.09620  Biso   1.000  H
  H85      1.0000 0.53590  0.02260  0.29650  Biso   1.000  H
  H86      1.0000 0.52810  0.96990  0.38520  Biso   1.000  H
  H87      1.0000 0.54110  0.11250  0.48100  Biso   1.000  H
  H88      1.0000 0.55320  0.16280  0.39390  Biso   1.000  H
  H89      1.0000 0.57230  0.53230  0.06220  Biso   1.000  H
  H90      1.0000 0.57510  0.34070  0.07610  Biso   1.000  H
  H91      1.0000 0.57060  0.49050  0.15540  Biso   1.000  H
  H92      1.0000 0.56450  0.38100  0.98450  Biso   1.000  H
  H93      1.0000 0.90550  0.18280  0.66860  Biso   1.000  H
  H94      1.0000 0.86770  0.08930  0.67300  Biso   1.000  H
  H95      1.0000 0.58410  0.04680  0.55990  Biso   1.000  H
  H96      1.0000 0.45980  0.93980  0.46950  Biso   1.000  H
  H97      1.0000 0.90410  0.17370  0.48830  Biso   1.000  H
  H98      1.0000 0.86410  0.08100  0.49360  Biso   1.000  H
  H99      1.0000 0.58760  0.43740  0.89420  Biso   1.000  H
  H100     1.0000 0.72890  0.19560  0.30320  Biso   1.000  H
  H101     1.0000 0.71120  0.16240  0.47880  Biso   1.000  H
  H102     1.0000 0.73350  0.06870  0.45910  Biso   1.000  H
  H103     1.0000 0.87770  0.01840  0.39520  Biso   1.000  H
  H104     1.0000 0.53020  0.50450  0.82260  Biso   1.000  H
  H105     1.0000 0.68690  0.98010  0.32280  Biso   1.000  H
  H106     1.0000 0.37520  0.17340  0.44370  Biso   1.000  H
  H107     1.0000 0.22910  0.18640  0.68350  Biso   1.000  H
  H108     1.0000 0.40350  0.22620  0.27640  Biso   1.000  H
  H109     1.0000 0.26210  0.09650  0.69970  Biso   1.000  H
  H110     1.0000 0.38050  0.00500  0.57250  Biso   1.000  H
  H111     1.0000 0.76240  0.89710  0.32500  Biso   1.000  H
  H112     1.0000 0.21840  0.98470  0.68570  Biso   1.000  H
  H113     1.0000 0.35760  0.14200  0.24120  Biso   1.000  H
  H114     1.0000 0.25740  0.16070  0.50680  Biso   1.000  H
  H115     1.0000 0.76480  0.10220  0.28560  Biso   1.000  H
  H116     1.0000 0.23590  0.03590  0.35940  Biso   1.000  H
  H117     1.0000 0.33100  0.08760  0.41000  Biso   1.000  H
  H118     1.0000 0.28250  0.06800  0.52500  Biso   1.000  H
  H119     1.0000 0.54030  0.97380  0.62760  Biso   1.000  H
  H120     1.0000 0.31900  0.94200  0.23210  Biso   1.000  H
  H121     1.0000 0.28180  0.89340  0.67030  Biso   1.000  H
  H122     1.0000 0.48500  0.55500  0.98490  Biso   1.000  H
  H123     1.0000 0.38280  0.03290  0.23260  Biso   1.000  H
  H124     1.0000 0.72570  0.92840  0.52880  Biso   1.000  H
  H125     1.0000 0.72270  0.02980  0.55600  Biso   1.000  H
  H126     1.0000 0.92450  0.96980  0.59620  Biso   1.000  H
  H127     1.0000 0.46410  0.97740  0.79650  Biso   1.000  H
  H128     1.0000 0.47190  0.03010  0.88520  Biso   1.000  H
  H129     1.0000 0.45890  0.88750  0.98100  Biso   1.000  H
  H130     1.0000 0.44680  0.83720  0.89390  Biso   1.000  H
  H131     1.0000 0.42770  0.46770  0.56220  Biso   1.000  H
  H132     1.0000 0.42490  0.65930  0.57610  Biso   1.000  H
  H133     1.0000 0.42940  0.50950  0.65540  Biso   1.000  H
  H134     1.0000 0.43550  0.61900  0.48450  Biso   1.000  H
  H135     1.0000 0.09450  0.81720  0.16860  Biso   1.000  H
  H136     1.0000 0.13230  0.91070  0.17300  Biso   1.000  H
  H137     1.0000 0.41590  0.95320  0.05990  Biso   1.000  H
  H138     1.0000 0.54020  0.06020  0.96950  Biso   1.000  H
  H139     1.0000 0.09590  0.82630  0.98830  Biso   1.000  H
  H140     1.0000 0.13590  0.91900  0.99360  Biso   1.000  H
  H141     1.0000 0.41240  0.56260  0.39420  Biso   1.000  H
  H142     1.0000 0.27110  0.80440  0.80320  Biso   1.000  H
  H143     1.0000 0.28880  0.83760  0.97880  Biso   1.000  H
  H144     1.0000 0.26650  0.93130  0.95910  Biso   1.000  H
  H145     1.0000 0.12230  0.98160  0.89520  Biso   1.000  H
  H146     1.0000 0.46980  0.49550  0.32260  Biso   1.000  H
  H147     1.0000 0.31310  0.01990  0.82280  Biso   1.000  H
  H148     1.0000 0.62480  0.82660  0.94370  Biso   1.000  H
  H149     1.0000 0.77090  0.81360  0.18350  Biso   1.000  H
  H150     1.0000 0.59650  0.77380  0.77640  Biso   1.000  H
  H151     1.0000 0.73790  0.90350  0.19970  Biso   1.000  H
  H152     1.0000 0.61950  0.99500  0.07250  Biso   1.000  H
  H153     1.0000 0.23760  0.10290  0.82500  Biso   1.000  H
  H154     1.0000 0.78160  0.01530  0.18570  Biso   1.000  H
  H155     1.0000 0.64240  0.85800  0.74120  Biso   1.000  H
  H156     1.0000 0.74260  0.83930  0.00680  Biso   1.000  H
  H157     1.0000 0.23520  0.89780  0.78560  Biso   1.000  H
  H158     1.0000 0.76410  0.96410  0.85940  Biso   1.000  H
  H159     1.0000 0.66900  0.91240  0.91000  Biso   1.000  H
  H160     1.0000 0.71750  0.93200  0.02500  Biso   1.000  H
  H161     1.0000 0.45970  0.02620  0.12760  Biso   1.000  H
  H162     1.0000 0.68100  0.05800  0.73210  Biso   1.000  H
  H163     1.0000 0.71820  0.10660  0.17030  Biso   1.000  H
  H164     1.0000 0.51500  0.44500  0.48490  Biso   1.000  H
  H165     1.0000 0.61720  0.96710  0.73260  Biso   1.000  H
  H166     1.0000 0.27430  0.07160  0.02880  Biso   1.000  H
  H167     1.0000 0.27730  0.97020  0.05600  Biso   1.000  H
  H168     1.0000 0.07550  0.03020  0.09620  Biso   1.000  H
  C1       1.0000 0.92930  0.88490  0.18570  Biso   1.000  C
  C2       1.0000 0.94980  0.62730  0.27920  Biso   1.000  C
  C3       1.0000 0.95540  0.59840  0.33600  Biso   1.000  C
  C4       1.0000 0.96280  0.54060  0.33330  Biso   1.000  C
  C5       1.0000 0.96860  0.50880  0.38670  Biso   1.000  C
  C6       1.0000 0.96950  0.53600  0.44050  Biso   1.000  C
  C7       1.0000 0.96020  0.59440  0.44420  Biso   1.000  C
  C8       1.0000 0.95320  0.62420  0.39200  Biso   1.000  C
  C9       1.0000 0.92970  0.91000  0.12720  Biso   1.000  C
  C10      1.0000 0.93140  0.99350  0.06530  Biso   1.000  C
  C11      1.0000 0.92910  0.87950  0.07370  Biso   1.000  C
  C12      1.0000 0.93790  0.96190  0.01460  Biso   1.000  C
  C13      1.0000 0.93010  0.96820  0.12140  Biso   1.000  C
  C14      1.0000 0.93430  0.90310  0.01860  Biso   1.000  C
  C15      1.0000 0.59190  0.68810  0.57720  Biso   1.000  C
  C16      1.0000 0.60290  0.66270  0.63370  Biso   1.000  C
  C17      1.0000 0.62650  0.60710  0.63640  Biso   1.000  C
  C18      1.0000 0.56720  0.74570  0.57120  Biso   1.000  C
  C19      1.0000 0.94620  0.51670  0.55020  Biso   1.000  C
  C20      1.0000 0.01470  0.45690  0.50050  Biso   1.000  C
  C21      1.0000 0.64140  0.57830  0.58310  Biso   1.000  C
  C22      1.0000 0.60410  0.65720  0.52530  Biso   1.000  C
  C23      1.0000 0.62850  0.60170  0.52820  Biso   1.000  C
  C24      1.0000 0.93820  0.96980  0.90390  Biso   1.000  C
  C25      1.0000 0.80200  0.74780  0.40260  Biso   1.000  C
  C26      1.0000 0.76780  0.67040  0.33460  Biso   1.000  C
  C27      1.0000 0.78220  0.68830  0.39300  Biso   1.000  C
  C28      1.0000 0.78030  0.65050  0.44000  Biso   1.000  C
  C29      1.0000 0.76550  0.59460  0.42810  Biso   1.000  C
  C30      1.0000 0.74980  0.57690  0.37220  Biso   1.000  C
  C31      1.0000 0.66050  0.49810  0.37800  Biso   1.000  C
  C32      1.0000 0.97050  0.00720  0.86400  Biso   1.000  C
  C33      1.0000 0.76560  0.47770  0.33800  Biso   1.000  C
  C34      1.0000 0.10530  0.70630  0.36420  Biso   1.000  C
  C35      1.0000 0.12770  0.66640  0.40290  Biso   1.000  C
  C36      1.0000 0.26060  0.66300  0.65140  Biso   1.000  C
  C37      1.0000 0.11100  0.69820  0.30280  Biso   1.000  C
  C38      1.0000 0.22460  0.57210  0.61530  Biso   1.000  C
  C39      1.0000 0.24080  0.60930  0.66060  Biso   1.000  C
  C40      1.0000 0.15240  0.48790  0.59860  Biso   1.000  C
  C41      1.0000 0.15980  0.60740  0.32230  Biso   1.000  C
  C42      1.0000 0.72370  0.43200  0.33950  Biso   1.000  C
  C43      1.0000 0.07420  0.76050  0.38620  Biso   1.000  C
  C44      1.0000 0.24180  0.47790  0.66070  Biso   1.000  C
  C45      1.0000 0.13830  0.64830  0.28200  Biso   1.000  C
  C46      1.0000 0.24480  0.64730  0.54570  Biso   1.000  C
  C47      1.0000 0.74840  0.61420  0.32360  Biso   1.000  C
  C48      1.0000 0.28580  0.74110  0.57840  Biso   1.000  C
  C49      1.0000 0.26550  0.68380  0.59140  Biso   1.000  C
  C50      1.0000 0.23620  0.52430  0.32690  Biso   1.000  C
  C51      1.0000 0.15480  0.61540  0.38330  Biso   1.000  C
  C52      1.0000 0.22740  0.59210  0.55660  Biso   1.000  C
  C53      1.0000 0.97000  0.47590  0.58710  Biso   1.000  C
  C54      1.0000 0.19110  0.47200  0.25720  Biso   1.000  C
  C55      1.0000 0.20600  0.42720  0.65220  Biso   1.000  C
  C56      1.0000 0.99460  0.03550  0.95300  Biso   1.000  C
  C57      1.0000 0.15540  0.52230  0.25790  Biso   1.000  C
  C58      1.0000 0.62400  0.47210  0.58320  Biso   1.000  C
  C59      1.0000 0.73570  0.44880  0.54530  Biso   1.000  C
  C60      1.0000 0.73740  0.50580  0.56060  Biso   1.000  C
  C61      1.0000 0.07070  0.11510  0.68570  Biso   1.000  C
  C62      1.0000 0.05020  0.37270  0.77920  Biso   1.000  C
  C63      1.0000 0.04460  0.40160  0.83600  Biso   1.000  C
  C64      1.0000 0.03720  0.45940  0.83330  Biso   1.000  C
  C65      1.0000 0.03140  0.49120  0.88670  Biso   1.000  C
  C66      1.0000 0.03050  0.46400  0.94050  Biso   1.000  C
  C67      1.0000 0.03980  0.40560  0.94420  Biso   1.000  C
  C68      1.0000 0.04680  0.37580  0.89200  Biso   1.000  C
  C69      1.0000 0.07030  0.09000  0.62720  Biso   1.000  C
  C70      1.0000 0.06860  0.00650  0.56530  Biso   1.000  C
  C71      1.0000 0.07090  0.12050  0.57370  Biso   1.000  C
  C72      1.0000 0.06210  0.03810  0.51460  Biso   1.000  C
  C73      1.0000 0.06990  0.03180  0.62140  Biso   1.000  C
  C74      1.0000 0.06570  0.09690  0.51860  Biso   1.000  C
  C75      1.0000 0.40810  0.31190  0.07720  Biso   1.000  C
  C76      1.0000 0.39710  0.33730  0.13370  Biso   1.000  C
  C77      1.0000 0.37350  0.39290  0.13640  Biso   1.000  C
  C78      1.0000 0.43280  0.25430  0.07120  Biso   1.000  C
  C79      1.0000 0.05380  0.48330  0.05020  Biso   1.000  C
  C80      1.0000 0.98530  0.54310  0.00050  Biso   1.000  C
  C81      1.0000 0.35860  0.42170  0.08310  Biso   1.000  C
  C82      1.0000 0.39590  0.34280  0.02530  Biso   1.000  C
  C83      1.0000 0.37150  0.39830  0.02820  Biso   1.000  C
  C84      1.0000 0.06180  0.03020  0.40390  Biso   1.000  C
  C85      1.0000 0.19800  0.25220  0.90260  Biso   1.000  C
  C86      1.0000 0.23220  0.32960  0.83460  Biso   1.000  C
  C87      1.0000 0.21780  0.31170  0.89300  Biso   1.000  C
  C88      1.0000 0.21970  0.34950  0.94000  Biso   1.000  C
  C89      1.0000 0.23450  0.40540  0.92810  Biso   1.000  C
  C90      1.0000 0.25020  0.42310  0.87220  Biso   1.000  C
  C91      1.0000 0.33950  0.50190  0.87800  Biso   1.000  C
  C92      1.0000 0.02950  0.99280  0.36400  Biso   1.000  C
  C93      1.0000 0.23440  0.52230  0.83800  Biso   1.000  C
  C94      1.0000 0.89470  0.29370  0.86420  Biso   1.000  C
  C95      1.0000 0.87230  0.33360  0.90290  Biso   1.000  C
  C96      1.0000 0.73940  0.33700  0.15140  Biso   1.000  C
  C97      1.0000 0.88900  0.30180  0.80280  Biso   1.000  C
  C98      1.0000 0.77540  0.42790  0.11530  Biso   1.000  C
  C99      1.0000 0.75920  0.39070  0.16060  Biso   1.000  C
  C100     1.0000 0.84760  0.51210  0.09860  Biso   1.000  C
  C101     1.0000 0.84020  0.39260  0.82230  Biso   1.000  C
  C102     1.0000 0.27630  0.56800  0.83950  Biso   1.000  C
  C103     1.0000 0.92580  0.23950  0.88620  Biso   1.000  C
  C104     1.0000 0.75820  0.52210  0.16070  Biso   1.000  C
  C105     1.0000 0.86170  0.35170  0.78200  Biso   1.000  C
  C106     1.0000 0.75520  0.35270  0.04570  Biso   1.000  C
  C107     1.0000 0.25160  0.38580  0.82360  Biso   1.000  C
  C108     1.0000 0.71420  0.25890  0.07840  Biso   1.000  C
  C109     1.0000 0.73450  0.31620  0.09140  Biso   1.000  C
  C110     1.0000 0.76380  0.47570  0.82690  Biso   1.000  C
  C111     1.0000 0.84520  0.38460  0.88330  Biso   1.000  C
  C112     1.0000 0.77260  0.40790  0.05660  Biso   1.000  C
  C113     1.0000 0.03000  0.52410  0.08710  Biso   1.000  C
  C114     1.0000 0.80890  0.52800  0.75720  Biso   1.000  C
  C115     1.0000 0.79400  0.57280  0.15220  Biso   1.000  C
  C116     1.0000 0.00540  0.96450  0.45300  Biso   1.000  C
  C117     1.0000 0.84460  0.47770  0.75790  Biso   1.000  C
  C118     1.0000 0.37600  0.52790  0.08320  Biso   1.000  C
  C119     1.0000 0.26430  0.55120  0.04530  Biso   1.000  C
  C120     1.0000 0.26260  0.49420  0.06060  Biso   1.000  C
  C121     1.0000 0.57070  0.38490  0.18570  Biso   1.000  C
  C122     1.0000 0.55020  0.12730  0.27920  Biso   1.000  C
  C123     1.0000 0.54460  0.09840  0.33600  Biso   1.000  C
  C124     1.0000 0.53720  0.04060  0.33330  Biso   1.000  C
  C125     1.0000 0.53140  0.00880  0.38670  Biso   1.000  C
  C126     1.0000 0.53050  0.03600  0.44050  Biso   1.000  C
  C127     1.0000 0.53980  0.09440  0.44420  Biso   1.000  C
  C128     1.0000 0.54680  0.12420  0.39200  Biso   1.000  C
  C129     1.0000 0.57030  0.41000  0.12720  Biso   1.000  C
  C130     1.0000 0.56860  0.49350  0.06530  Biso   1.000  C
  C131     1.0000 0.57090  0.37950  0.07370  Biso   1.000  C
  C132     1.0000 0.56210  0.46190  0.01460  Biso   1.000  C
  C133     1.0000 0.56990  0.46820  0.12140  Biso   1.000  C
  C134     1.0000 0.56570  0.40310  0.01860  Biso   1.000  C
  C135     1.0000 0.90810  0.18810  0.57720  Biso   1.000  C
  C136     1.0000 0.89710  0.16270  0.63370  Biso   1.000  C
  C137     1.0000 0.87350  0.10710  0.63640  Biso   1.000  C
  C138     1.0000 0.93280  0.24570  0.57120  Biso   1.000  C
  C139     1.0000 0.55380  0.01670  0.55020  Biso   1.000  C
  C140     1.0000 0.48530  0.95690  0.50050  Biso   1.000  C
  C141     1.0000 0.85860  0.07830  0.58310  Biso   1.000  C
  C142     1.0000 0.89590  0.15720  0.52530  Biso   1.000  C
  C143     1.0000 0.87150  0.10170  0.52820  Biso   1.000  C
  C144     1.0000 0.56180  0.46980  0.90390  Biso   1.000  C
  C145     1.0000 0.69800  0.24780  0.40260  Biso   1.000  C
  C146     1.0000 0.73220  0.17040  0.33460  Biso   1.000  C
  C147     1.0000 0.71780  0.18830  0.39300  Biso   1.000  C
  C148     1.0000 0.71970  0.15050  0.44000  Biso   1.000  C
  C149     1.0000 0.73450  0.09460  0.42810  Biso   1.000  C
  C150     1.0000 0.75020  0.07690  0.37220  Biso   1.000  C
  C151     1.0000 0.83950  0.99810  0.37800  Biso   1.000  C
  C152     1.0000 0.52950  0.50720  0.86400  Biso   1.000  C
  C153     1.0000 0.73440  0.97770  0.33800  Biso   1.000  C
  C154     1.0000 0.39470  0.20630  0.36420  Biso   1.000  C
  C155     1.0000 0.37230  0.16640  0.40290  Biso   1.000  C
  C156     1.0000 0.23940  0.16300  0.65140  Biso   1.000  C
  C157     1.0000 0.38900  0.19820  0.30280  Biso   1.000  C
  C158     1.0000 0.27540  0.07210  0.61530  Biso   1.000  C
  C159     1.0000 0.25920  0.10930  0.66060  Biso   1.000  C
  C160     1.0000 0.34760  0.98790  0.59860  Biso   1.000  C
  C161     1.0000 0.34020  0.10740  0.32230  Biso   1.000  C
  C162     1.0000 0.77630  0.93200  0.33950  Biso   1.000  C
  C163     1.0000 0.42580  0.26050  0.38620  Biso   1.000  C
  C164     1.0000 0.25820  0.97790  0.66070  Biso   1.000  C
  C165     1.0000 0.36170  0.14830  0.28200  Biso   1.000  C
  C166     1.0000 0.25520  0.14730  0.54570  Biso   1.000  C
  C167     1.0000 0.75160  0.11420  0.32360  Biso   1.000  C
  C168     1.0000 0.21420  0.24110  0.57840  Biso   1.000  C
  C169     1.0000 0.23450  0.18380  0.59140  Biso   1.000  C
  C170     1.0000 0.26380  0.02430  0.32690  Biso   1.000  C
  C171     1.0000 0.34520  0.11540  0.38330  Biso   1.000  C
  C172     1.0000 0.27260  0.09210  0.55660  Biso   1.000  C
  C173     1.0000 0.53000  0.97590  0.58710  Biso   1.000  C
  C174     1.0000 0.30890  0.97200  0.25720  Biso   1.000  C
  C175     1.0000 0.29400  0.92720  0.65220  Biso   1.000  C
  C176     1.0000 0.50540  0.53550  0.95300  Biso   1.000  C
  C177     1.0000 0.34460  0.02230  0.25790  Biso   1.000  C
  C178     1.0000 0.87600  0.97210  0.58320  Biso   1.000  C
  C179     1.0000 0.76430  0.94880  0.54530  Biso   1.000  C
  C180     1.0000 0.76260  0.00580  0.56060  Biso   1.000  C
  C181     1.0000 0.42930  0.61510  0.68570  Biso   1.000  C
  C182     1.0000 0.44980  0.87270  0.77920  Biso   1.000  C
  C183     1.0000 0.45540  0.90160  0.83600  Biso   1.000  C
  C184     1.0000 0.46280  0.95940  0.83330  Biso   1.000  C
  C185     1.0000 0.46860  0.99120  0.88670  Biso   1.000  C
  C186     1.0000 0.46950  0.96400  0.94050  Biso   1.000  C
  C187     1.0000 0.46020  0.90560  0.94420  Biso   1.000  C
  C188     1.0000 0.45320  0.87580  0.89200  Biso   1.000  C
  C189     1.0000 0.42970  0.59000  0.62720  Biso   1.000  C
  C190     1.0000 0.43140  0.50650  0.56530  Biso   1.000  C
  C191     1.0000 0.42910  0.62050  0.57370  Biso   1.000  C
  C192     1.0000 0.43790  0.53810  0.51460  Biso   1.000  C
  C193     1.0000 0.43010  0.53180  0.62140  Biso   1.000  C
  C194     1.0000 0.43430  0.59690  0.51860  Biso   1.000  C
  C195     1.0000 0.09190  0.81190  0.07720  Biso   1.000  C
  C196     1.0000 0.10290  0.83730  0.13370  Biso   1.000  C
  C197     1.0000 0.12650  0.89290  0.13640  Biso   1.000  C
  C198     1.0000 0.06720  0.75430  0.07120  Biso   1.000  C
  C199     1.0000 0.44620  0.98330  0.05020  Biso   1.000  C
  C200     1.0000 0.51470  0.04310  0.00050  Biso   1.000  C
  C201     1.0000 0.14140  0.92170  0.08310  Biso   1.000  C
  C202     1.0000 0.10410  0.84280  0.02530  Biso   1.000  C
  C203     1.0000 0.12850  0.89830  0.02820  Biso   1.000  C
  C204     1.0000 0.43820  0.53020  0.40390  Biso   1.000  C
  C205     1.0000 0.30200  0.75220  0.90260  Biso   1.000  C
  C206     1.0000 0.26780  0.82960  0.83460  Biso   1.000  C
  C207     1.0000 0.28220  0.81170  0.89300  Biso   1.000  C
  C208     1.0000 0.28030  0.84950  0.94000  Biso   1.000  C
  C209     1.0000 0.26550  0.90540  0.92810  Biso   1.000  C
  C210     1.0000 0.24980  0.92310  0.87220  Biso   1.000  C
  C211     1.0000 0.16050  0.00190  0.87800  Biso   1.000  C
  C212     1.0000 0.47050  0.49280  0.36400  Biso   1.000  C
  C213     1.0000 0.26560  0.02230  0.83800  Biso   1.000  C
  C214     1.0000 0.60530  0.79370  0.86420  Biso   1.000  C
  C215     1.0000 0.62770  0.83360  0.90290  Biso   1.000  C
  C216     1.0000 0.76060  0.83700  0.15140  Biso   1.000  C
  C217     1.0000 0.61100  0.80180  0.80280  Biso   1.000  C
  C218     1.0000 0.72460  0.92790  0.11530  Biso   1.000  C
  C219     1.0000 0.74080  0.89070  0.16060  Biso   1.000  C
  C220     1.0000 0.65240  0.01210  0.09860  Biso   1.000  C
  C221     1.0000 0.65980  0.89260  0.82230  Biso   1.000  C
  C222     1.0000 0.22370  0.06800  0.83950  Biso   1.000  C
  C223     1.0000 0.57420  0.73950  0.88620  Biso   1.000  C
  C224     1.0000 0.74180  0.02210  0.16070  Biso   1.000  C
  C225     1.0000 0.63830  0.85170  0.78200  Biso   1.000  C
  C226     1.0000 0.74480  0.85270  0.04570  Biso   1.000  C
  C227     1.0000 0.24840  0.88580  0.82360  Biso   1.000  C
  C228     1.0000 0.78580  0.75890  0.07840  Biso   1.000  C
  C229     1.0000 0.76550  0.81620  0.09140  Biso   1.000  C
  C230     1.0000 0.73620  0.97570  0.82690  Biso   1.000  C
  C231     1.0000 0.65480  0.88460  0.88330  Biso   1.000  C
  C232     1.0000 0.72740  0.90790  0.05660  Biso   1.000  C
  C233     1.0000 0.47000  0.02410  0.08710  Biso   1.000  C
  C234     1.0000 0.69110  0.02800  0.75720  Biso   1.000  C
  C235     1.0000 0.70600  0.07280  0.15220  Biso   1.000  C
  C236     1.0000 0.49460  0.46450  0.45300  Biso   1.000  C
  C237     1.0000 0.65540  0.97770  0.75790  Biso   1.000  C
  C238     1.0000 0.12400  0.02790  0.08320  Biso   1.000  C
  C239     1.0000 0.23570  0.05120  0.04530  Biso   1.000  C
  C240     1.0000 0.23740  0.99420  0.06060  Biso   1.000  C
  N1       1.0000 0.25240  0.77640  0.54090  Biso   1.000  N
  N2       1.0000 0.09740  0.78910  0.43240  Biso   1.000  N
  N3       1.0000 0.05490  0.83490  0.43570  Biso   1.000  N
  N4       1.0000 0.00820  0.83380  0.39260  Biso   1.000  N
  N5       1.0000 0.01700  0.78570  0.36030  Biso   1.000  N
  N6       1.0000 0.93000  0.82950  0.19710  Biso   1.000  N
  N7       1.0000 0.92890  0.82510  0.25730  Biso   1.000  N
  N8       1.0000 0.92930  0.87580  0.27970  Biso   1.000  N
  N9       1.0000 0.34310  0.76570  0.60280  Biso   1.000  N
  N10      1.0000 0.34460  0.81940  0.58030  Biso   1.000  N
  N11      1.0000 0.29090  0.82530  0.54150  Biso   1.000  N
  N12      1.0000 0.95710  0.60030  0.22700  Biso   1.000  N
  N13      1.0000 0.93800  0.68790  0.20870  Biso   1.000  N
  N14      1.0000 0.93800  0.68330  0.26880  Biso   1.000  N
  N15      1.0000 0.59880  0.78170  0.53260  Biso   1.000  N
  N16      1.0000 0.50890  0.76810  0.59520  Biso   1.000  N
  N17      1.0000 0.50370  0.82060  0.57170  Biso   1.000  N
  N18      1.0000 0.55980  0.82880  0.53390  Biso   1.000  N
  N19      1.0000 0.94770  0.63800  0.18520  Biso   1.000  N
  N20      1.0000 0.97600  0.50450  0.49530  Biso   1.000  N
  N21      1.0000 0.93060  0.91470  0.23570  Biso   1.000  N
  N22      1.0000 0.01190  0.43760  0.55560  Biso   1.000  N
  N23      1.0000 0.77580  0.77980  0.44750  Biso   1.000  N
  N24      1.0000 0.00340  0.04840  0.89650  Biso   1.000  N
  N25      1.0000 0.95110  0.98910  0.95820  Biso   1.000  N
  N26      1.0000 0.81000  0.82920  0.44330  Biso   1.000  N
  N27      1.0000 0.85410  0.82680  0.39690  Biso   1.000  N
  N28      1.0000 0.72620  0.52050  0.36270  Biso   1.000  N
  N29      1.0000 0.85170  0.77640  0.37250  Biso   1.000  N
  N30      1.0000 0.18550  0.55440  0.30210  Biso   1.000  N
  N31      1.0000 0.24380  0.47360  0.29960  Biso   1.000  N
  N32      1.0000 0.14870  0.43540  0.61220  Biso   1.000  N
  N33      1.0000 0.20680  0.51560  0.62480  Biso   1.000  N
  N34      1.0000 0.65660  0.44390  0.36570  Biso   1.000  N
  N35      1.0000 0.66830  0.52020  0.58400  Biso   1.000  N
  N36      1.0000 0.66560  0.42800  0.55930  Biso   1.000  N
  N37      1.0000 0.74760  0.22360  0.04090  Biso   1.000  N
  N38      1.0000 0.90260  0.21090  0.93240  Biso   1.000  N
  N39      1.0000 0.94510  0.16510  0.93570  Biso   1.000  N
  N40      1.0000 0.99180  0.16620  0.89260  Biso   1.000  N
  N41      1.0000 0.98300  0.21430  0.86030  Biso   1.000  N
  N42      1.0000 0.07000  0.17050  0.69710  Biso   1.000  N
  N43      1.0000 0.07110  0.17490  0.75730  Biso   1.000  N
  N44      1.0000 0.07070  0.12420  0.77970  Biso   1.000  N
  N45      1.0000 0.65690  0.23430  0.10280  Biso   1.000  N
  N46      1.0000 0.65540  0.18060  0.08030  Biso   1.000  N
  N47      1.0000 0.70910  0.17470  0.04150  Biso   1.000  N
  N48      1.0000 0.04290  0.39970  0.72700  Biso   1.000  N
  N49      1.0000 0.06200  0.31210  0.70870  Biso   1.000  N
  N50      1.0000 0.06200  0.31670  0.76880  Biso   1.000  N
  N51      1.0000 0.40120  0.21830  0.03260  Biso   1.000  N
  N52      1.0000 0.49110  0.23190  0.09520  Biso   1.000  N
  N53      1.0000 0.49630  0.17940  0.07170  Biso   1.000  N
  N54      1.0000 0.44020  0.17120  0.03390  Biso   1.000  N
  N55      1.0000 0.05230  0.36200  0.68520  Biso   1.000  N
  N56      1.0000 0.02400  0.49550  0.99530  Biso   1.000  N
  N57      1.0000 0.06940  0.08530  0.73570  Biso   1.000  N
  N58      1.0000 0.98810  0.56240  0.05560  Biso   1.000  N
  N59      1.0000 0.22420  0.22020  0.94750  Biso   1.000  N
  N60      1.0000 0.99660  0.95160  0.39650  Biso   1.000  N
  N61      1.0000 0.04890  0.01090  0.45820  Biso   1.000  N
  N62      1.0000 0.19000  0.17080  0.94330  Biso   1.000  N
  N63      1.0000 0.14590  0.17320  0.89690  Biso   1.000  N
  N64      1.0000 0.27380  0.47950  0.86270  Biso   1.000  N
  N65      1.0000 0.14830  0.22360  0.87250  Biso   1.000  N
  N66      1.0000 0.81450  0.44560  0.80210  Biso   1.000  N
  N67      1.0000 0.75620  0.52640  0.79960  Biso   1.000  N
  N68      1.0000 0.85130  0.56460  0.11220  Biso   1.000  N
  N69      1.0000 0.79320  0.48440  0.12480  Biso   1.000  N
  N70      1.0000 0.34340  0.55610  0.86570  Biso   1.000  N
  N71      1.0000 0.33170  0.47980  0.08400  Biso   1.000  N
  N72      1.0000 0.33440  0.57200  0.05930  Biso   1.000  N
  N73      1.0000 0.24760  0.27640  0.54090  Biso   1.000  N
  N74      1.0000 0.40260  0.28910  0.43240  Biso   1.000  N
  N75      1.0000 0.44510  0.33490  0.43570  Biso   1.000  N
  N76      1.0000 0.49180  0.33380  0.39260  Biso   1.000  N
  N77      1.0000 0.48300  0.28570  0.36030  Biso   1.000  N
  N78      1.0000 0.57000  0.32950  0.19710  Biso   1.000  N
  N79      1.0000 0.57110  0.32510  0.25730  Biso   1.000  N
  N80      1.0000 0.57070  0.37580  0.27970  Biso   1.000  N
  N81      1.0000 0.15690  0.26570  0.60280  Biso   1.000  N
  N82      1.0000 0.15540  0.31940  0.58030  Biso   1.000  N
  N83      1.0000 0.20910  0.32530  0.54150  Biso   1.000  N
  N84      1.0000 0.54290  0.10030  0.22700  Biso   1.000  N
  N85      1.0000 0.56200  0.18790  0.20870  Biso   1.000  N
  N86      1.0000 0.56200  0.18330  0.26880  Biso   1.000  N
  N87      1.0000 0.90120  0.28170  0.53260  Biso   1.000  N
  N88      1.0000 0.99110  0.26810  0.59520  Biso   1.000  N
  N89      1.0000 0.99630  0.32060  0.57170  Biso   1.000  N
  N90      1.0000 0.94020  0.32880  0.53390  Biso   1.000  N
  N91      1.0000 0.55230  0.13800  0.18520  Biso   1.000  N
  N92      1.0000 0.52400  0.00450  0.49530  Biso   1.000  N
  N93      1.0000 0.56940  0.41470  0.23570  Biso   1.000  N
  N94      1.0000 0.48810  0.93760  0.55560  Biso   1.000  N
  N95      1.0000 0.72420  0.27980  0.44750  Biso   1.000  N
  N96      1.0000 0.49660  0.54840  0.89650  Biso   1.000  N
  N97      1.0000 0.54890  0.48910  0.95820  Biso   1.000  N
  N98      1.0000 0.69000  0.32920  0.44330  Biso   1.000  N
  N99      1.0000 0.64590  0.32680  0.39690  Biso   1.000  N
  N100     1.0000 0.77380  0.02050  0.36270  Biso   1.000  N
  N101     1.0000 0.64830  0.27640  0.37250  Biso   1.000  N
  N102     1.0000 0.31450  0.05440  0.30210  Biso   1.000  N
  N103     1.0000 0.25620  0.97360  0.29960  Biso   1.000  N
  N104     1.0000 0.35130  0.93540  0.61220  Biso   1.000  N
  N105     1.0000 0.29320  0.01560  0.62480  Biso   1.000  N
  N106     1.0000 0.84340  0.94390  0.36570  Biso   1.000  N
  N107     1.0000 0.83170  0.02020  0.58400  Biso   1.000  N
  N108     1.0000 0.83440  0.92800  0.55930  Biso   1.000  N
  N109     1.0000 0.75240  0.72360  0.04090  Biso   1.000  N
  N110     1.0000 0.59740  0.71090  0.93240  Biso   1.000  N
  N111     1.0000 0.55490  0.66510  0.93570  Biso   1.000  N
  N112     1.0000 0.50820  0.66620  0.89260  Biso   1.000  N
  N113     1.0000 0.51700  0.71430  0.86030  Biso   1.000  N
  N114     1.0000 0.43000  0.67050  0.69710  Biso   1.000  N
  N115     1.0000 0.42890  0.67490  0.75730  Biso   1.000  N
  N116     1.0000 0.42930  0.62420  0.77970  Biso   1.000  N
  N117     1.0000 0.84310  0.73430  0.10280  Biso   1.000  N
  N118     1.0000 0.84460  0.68060  0.08030  Biso   1.000  N
  N119     1.0000 0.79090  0.67470  0.04150  Biso   1.000  N
  N120     1.0000 0.45710  0.89970  0.72700  Biso   1.000  N
  N121     1.0000 0.43800  0.81210  0.70870  Biso   1.000  N
  N122     1.0000 0.43800  0.81670  0.76880  Biso   1.000  N
  N123     1.0000 0.09880  0.71830  0.03260  Biso   1.000  N
  N124     1.0000 0.00890  0.73190  0.09520  Biso   1.000  N
  N125     1.0000 0.00370  0.67940  0.07170  Biso   1.000  N
  N126     1.0000 0.05980  0.67120  0.03390  Biso   1.000  N
  N127     1.0000 0.44770  0.86200  0.68520  Biso   1.000  N
  N128     1.0000 0.47600  0.99550  0.99530  Biso   1.000  N
  N129     1.0000 0.43060  0.58530  0.73570  Biso   1.000  N
  N130     1.0000 0.51190  0.06240  0.05560  Biso   1.000  N
  N131     1.0000 0.27580  0.72020  0.94750  Biso   1.000  N
  N132     1.0000 0.50340  0.45160  0.39650  Biso   1.000  N
  N133     1.0000 0.45110  0.51090  0.45820  Biso   1.000  N
  N134     1.0000 0.31000  0.67080  0.94330  Biso   1.000  N
  N135     1.0000 0.35410  0.67320  0.89690  Biso   1.000  N
  N136     1.0000 0.22620  0.97950  0.86270  Biso   1.000  N
  N137     1.0000 0.35170  0.72360  0.87250  Biso   1.000  N
  N138     1.0000 0.68550  0.94560  0.80210  Biso   1.000  N
  N139     1.0000 0.74380  0.02640  0.79960  Biso   1.000  N
  N140     1.0000 0.64870  0.06460  0.11220  Biso   1.000  N
  N141     1.0000 0.70680  0.98440  0.12480  Biso   1.000  N
  N142     1.0000 0.15660  0.05610  0.86570  Biso   1.000  N
  N143     1.0000 0.16830  0.97980  0.08400  Biso   1.000  N
  N144     1.0000 0.16560  0.07200  0.05930  Biso   1.000  N
