data_image0
_cell_length_a       10.908
_cell_length_b       12.434
_cell_length_c       14.354
_cell_angle_alpha    90
_cell_angle_beta     107.495
_cell_angle_gamma    90

_symmetry_space_group_name_H-M    P 1
_symmetry_int_tables_number       1

loop_
  _symmetry_equiv_pos_as_xyz
  'x, y, z'

loop_
  _atom_site_label
  _atom_site_occupancy
  _atom_site_fract_x
  _atom_site_fract_y
  _atom_site_fract_z
  _atom_site_thermal_displace_type
  _atom_site_B_iso_or_equiv
  _atom_site_type_symbol
  Cu1      1.0000 0.90114  0.93281  0.97522  Biso   1.000  Cu
  Cu2      1.0000 0.09886  0.43281  0.52478  Biso   1.000  Cu
  Cu3      1.0000 0.09886  0.06719  0.02478  Biso   1.000  Cu
  Cu4      1.0000 0.90114  0.56719  0.47522  Biso   1.000  Cu
  H1       1.0000 0.88390  0.79910  0.44910  Biso   1.000  H
  H2       1.0000 0.52840  0.91740  0.34790  Biso   1.000  H
  H3       1.0000 0.58270  0.60020  0.40180  Biso   1.000  H
  H4       1.0000 0.36120  0.85940  0.22790  Biso   1.000  H
  H5       1.0000 0.03010  0.73750  0.25080  Biso   1.000  H
  H6       1.0000 0.36970  0.62780  0.42570  Biso   1.000  H
  H7       1.0000 0.11610  0.29910  0.05090  Biso   1.000  H
  H8       1.0000 0.47160  0.41740  0.15210  Biso   1.000  H
  H9       1.0000 0.41730  0.10020  0.09820  Biso   1.000  H
  H10      1.0000 0.63880  0.35940  0.27210  Biso   1.000  H
  H11      1.0000 0.96990  0.23750  0.24920  Biso   1.000  H
  H12      1.0000 0.63030  0.12780  0.07430  Biso   1.000  H
  H13      1.0000 0.11610  0.20090  0.55090  Biso   1.000  H
  H14      1.0000 0.47160  0.08260  0.65210  Biso   1.000  H
  H15      1.0000 0.41730  0.39980  0.59820  Biso   1.000  H
  H16      1.0000 0.63880  0.14060  0.77210  Biso   1.000  H
  H17      1.0000 0.96990  0.26250  0.74920  Biso   1.000  H
  H18      1.0000 0.63030  0.37220  0.57430  Biso   1.000  H
  H19      1.0000 0.88390  0.70090  0.94910  Biso   1.000  H
  H20      1.0000 0.52840  0.58260  0.84790  Biso   1.000  H
  H21      1.0000 0.58270  0.89980  0.90180  Biso   1.000  H
  H22      1.0000 0.36120  0.64060  0.72790  Biso   1.000  H
  H23      1.0000 0.03010  0.76250  0.75080  Biso   1.000  H
  H24      1.0000 0.36970  0.87220  0.92570  Biso   1.000  H
  C1       1.0000 0.79550  0.78820  0.42880  Biso   1.000  C
  C2       1.0000 0.58300  0.85900  0.36880  Biso   1.000  C
  C3       1.0000 0.53100  0.75600  0.36970  Biso   1.000  C
  C4       1.0000 0.61530  0.66920  0.40070  Biso   1.000  C
  C5       1.0000 0.38760  0.74460  0.33270  Biso   1.000  C
  C6       1.0000 0.31830  0.81240  0.25770  Biso   1.000  C
  C7       1.0000 0.18430  0.80910  0.22800  Biso   1.000  C
  C8       1.0000 0.11940  0.73910  0.27120  Biso   1.000  C
  C9       1.0000 0.18840  0.67080  0.34550  Biso   1.000  C
  C10      1.0000 0.32350  0.67350  0.37630  Biso   1.000  C
  C11      1.0000 0.11380  0.88070  0.14390  Biso   1.000  C
  C12      1.0000 0.11930  0.60270  0.39990  Biso   1.000  C
  C13      1.0000 0.20450  0.28820  0.07120  Biso   1.000  C
  C14      1.0000 0.41700  0.35900  0.13120  Biso   1.000  C
  C15      1.0000 0.46900  0.25600  0.13030  Biso   1.000  C
  C16      1.0000 0.38470  0.16920  0.09930  Biso   1.000  C
  C17      1.0000 0.61240  0.24460  0.16730  Biso   1.000  C
  C18      1.0000 0.68170  0.31240  0.24230  Biso   1.000  C
  C19      1.0000 0.81570  0.30910  0.27200  Biso   1.000  C
  C20      1.0000 0.88060  0.23910  0.22880  Biso   1.000  C
  C21      1.0000 0.81160  0.17080  0.15450  Biso   1.000  C
  C22      1.0000 0.67650  0.17350  0.12370  Biso   1.000  C
  C23      1.0000 0.88620  0.38070  0.35610  Biso   1.000  C
  C24      1.0000 0.88070  0.10270  0.10010  Biso   1.000  C
  C25      1.0000 0.20450  0.21180  0.57120  Biso   1.000  C
  C26      1.0000 0.41700  0.14100  0.63120  Biso   1.000  C
  C27      1.0000 0.46900  0.24400  0.63030  Biso   1.000  C
  C28      1.0000 0.38470  0.33080  0.59930  Biso   1.000  C
  C29      1.0000 0.61240  0.25540  0.66730  Biso   1.000  C
  C30      1.0000 0.68170  0.18760  0.74230  Biso   1.000  C
  C31      1.0000 0.81570  0.19090  0.77200  Biso   1.000  C
  C32      1.0000 0.88060  0.26090  0.72880  Biso   1.000  C
  C33      1.0000 0.81160  0.32920  0.65450  Biso   1.000  C
  C34      1.0000 0.67650  0.32650  0.62370  Biso   1.000  C
  C35      1.0000 0.88620  0.11930  0.85610  Biso   1.000  C
  C36      1.0000 0.88070  0.39730  0.60010  Biso   1.000  C
  C37      1.0000 0.79550  0.71180  0.92880  Biso   1.000  C
  C38      1.0000 0.58300  0.64100  0.86880  Biso   1.000  C
  C39      1.0000 0.53100  0.74400  0.86970  Biso   1.000  C
  C40      1.0000 0.61530  0.83080  0.90070  Biso   1.000  C
  C41      1.0000 0.38760  0.75540  0.83270  Biso   1.000  C
  C42      1.0000 0.31830  0.68760  0.75770  Biso   1.000  C
  C43      1.0000 0.18430  0.69090  0.72800  Biso   1.000  C
  C44      1.0000 0.11940  0.76090  0.77120  Biso   1.000  C
  C45      1.0000 0.18840  0.82920  0.84550  Biso   1.000  C
  C46      1.0000 0.32350  0.82650  0.87630  Biso   1.000  C
  C47      1.0000 0.11380  0.61930  0.64390  Biso   1.000  C
  C48      1.0000 0.11930  0.89730  0.89990  Biso   1.000  C
  N1       1.0000 0.74710  0.68580  0.42970  Biso   1.000  N
  N2       1.0000 0.71400  0.87460  0.39830  Biso   1.000  N
  N3       1.0000 0.25290  0.18580  0.07030  Biso   1.000  N
  N4       1.0000 0.28600  0.37460  0.10170  Biso   1.000  N
  N5       1.0000 0.25290  0.31420  0.57030  Biso   1.000  N
  N6       1.0000 0.28600  0.12540  0.60170  Biso   1.000  N
  N7       1.0000 0.74710  0.81420  0.92970  Biso   1.000  N
  N8       1.0000 0.71400  0.62540  0.89830  Biso   1.000  N
  O1       1.0000 0.00290  0.84980  0.09175  Biso   1.000  O
  O2       1.0000 0.16970  0.96430  0.13242  Biso   1.000  O
  O3       1.0000 0.00760  0.63410  0.39921  Biso   1.000  O
  O4       1.0000 0.17500  0.51910  0.44150  Biso   1.000  O
  O5       1.0000 0.99710  0.34980  0.40825  Biso   1.000  O
  O6       1.0000 0.83030  0.46430  0.36758  Biso   1.000  O
  O7       1.0000 0.99240  0.13410  0.10079  Biso   1.000  O
  O8       1.0000 0.82500  0.01910  0.05850  Biso   1.000  O
  O9       1.0000 0.99710  0.15020  0.90825  Biso   1.000  O
  O10      1.0000 0.83030  0.03570  0.86758  Biso   1.000  O
  O11      1.0000 0.99240  0.36590  0.60079  Biso   1.000  O
  O12      1.0000 0.82500  0.48090  0.55850  Biso   1.000  O
  O13      1.0000 0.00290  0.65020  0.59175  Biso   1.000  O
  O14      1.0000 0.16970  0.53570  0.63242  Biso   1.000  O
  O15      1.0000 0.00760  0.86590  0.89921  Biso   1.000  O
  O16      1.0000 0.17500  0.98090  0.94150  Biso   1.000  O
