data_image0
_cell_length_a       21.624
_cell_length_b       21.624
_cell_length_c       24.5388
_cell_angle_alpha    116.143
_cell_angle_beta     116.143
_cell_angle_gamma    90

_symmetry_space_group_name_H-M    P 1
_symmetry_int_tables_number       1

loop_
  _symmetry_equiv_pos_as_xyz
  'x, y, z'

loop_
  _atom_site_label
  _atom_site_occupancy
  _atom_site_fract_x
  _atom_site_fract_y
  _atom_site_fract_z
  _atom_site_thermal_displace_type
  _atom_site_B_iso_or_equiv
  _atom_site_type_symbol
  Zn1      1.0000 0.88637  0.68460  0.82685  Biso   1.000  Zn
  Zn2      1.0000 0.44048  0.14225  0.82685  Biso   1.000  Zn
  Zn3      1.0000 0.68460  0.44048  0.32685  Biso   1.000  Zn
  Zn4      1.0000 0.14225  0.88637  0.32685  Biso   1.000  Zn
  Zn5      1.0000 0.05952  0.81540  0.17315  Biso   1.000  Zn
  Zn6      1.0000 0.61363  0.35775  0.17315  Biso   1.000  Zn
  Zn7      1.0000 0.35775  0.05952  0.67315  Biso   1.000  Zn
  Zn8      1.0000 0.81540  0.61363  0.67315  Biso   1.000  Zn
  Zn9      1.0000 0.11363  0.31540  0.17315  Biso   1.000  Zn
  Zn10     1.0000 0.55952  0.85775  0.17315  Biso   1.000  Zn
  Zn11     1.0000 0.31540  0.55952  0.67315  Biso   1.000  Zn
  Zn12     1.0000 0.85775  0.11363  0.67315  Biso   1.000  Zn
  Zn13     1.0000 0.94048  0.18460  0.82685  Biso   1.000  Zn
  Zn14     1.0000 0.38637  0.64225  0.82685  Biso   1.000  Zn
  Zn15     1.0000 0.64225  0.94048  0.32685  Biso   1.000  Zn
  Zn16     1.0000 0.18460  0.38637  0.32685  Biso   1.000  Zn
  H1       1.0000 0.96220  0.82810  0.95660  Biso   1.000  H
  H2       1.0000 0.02340  0.78720  0.95360  Biso   1.000  H
  H3       1.0000 0.85000  0.69150  0.93660  Biso   1.000  H
  H4       1.0000 0.86000  0.77180  0.95140  Biso   1.000  H
  H5       1.0000 0.00950  0.66490  0.93260  Biso   1.000  H
  H6       1.0000 0.94300  0.62890  0.93040  Biso   1.000  H
  H7       1.0000 0.98940  0.56520  0.65540  Biso   1.000  H
  H8       1.0000 0.11200  0.70490  0.91020  Biso   1.000  H
  H9       1.0000 0.08920  0.76110  0.88360  Biso   1.000  H
  H10      1.0000 0.17070  0.75770  0.91760  Biso   1.000  H
  H11      1.0000 0.21370  0.68460  0.84680  Biso   1.000  H
  H12      1.0000 0.08890  0.54090  0.59060  Biso   1.000  H
  H13      1.0000 0.11430  0.48700  0.61960  Biso   1.000  H
  H14      1.0000 0.03240  0.48880  0.58640  Biso   1.000  H
  H15      1.0000 0.49440  0.12850  0.95660  Biso   1.000  H
  H16      1.0000 0.43020  0.16640  0.95360  Biso   1.000  H
  H17      1.0000 0.58660  0.24510  0.93660  Biso   1.000  H
  H18      1.0000 0.59140  0.17960  0.95140  Biso   1.000  H
  H19      1.0000 0.42310  0.26770  0.93260  Biso   1.000  H
  H20      1.0000 0.48740  0.30150  0.93040  Biso   1.000  H
  H21      1.0000 0.16600  0.09020  0.65540  Biso   1.000  H
  H22      1.0000 0.29820  0.20530  0.91020  Biso   1.000  H
  H23      1.0000 0.29440  0.12250  0.88360  Biso   1.000  H
  H24      1.0000 0.24690  0.15990  0.91760  Biso   1.000  H
  H25      1.0000 0.13310  0.16220  0.84680  Biso   1.000  H
  H26      1.0000 0.00170  0.04970  0.59060  Biso   1.000  H
  H27      1.0000 0.00530  0.13260  0.61960  Biso   1.000  H
  H28      1.0000 0.05400  0.09760  0.58640  Biso   1.000  H
  H29      1.0000 0.82810  0.49440  0.45660  Biso   1.000  H
  H30      1.0000 0.78720  0.43020  0.45360  Biso   1.000  H
  H31      1.0000 0.69150  0.58660  0.43660  Biso   1.000  H
  H32      1.0000 0.77180  0.59140  0.45140  Biso   1.000  H
  H33      1.0000 0.66490  0.42310  0.43260  Biso   1.000  H
  H34      1.0000 0.62890  0.48740  0.43040  Biso   1.000  H
  H35      1.0000 0.56520  0.16600  0.15540  Biso   1.000  H
  H36      1.0000 0.70490  0.29820  0.41020  Biso   1.000  H
  H37      1.0000 0.76110  0.29440  0.38360  Biso   1.000  H
  H38      1.0000 0.75770  0.24690  0.41760  Biso   1.000  H
  H39      1.0000 0.68460  0.13310  0.34680  Biso   1.000  H
  H40      1.0000 0.54090  0.00170  0.09060  Biso   1.000  H
  H41      1.0000 0.48700  0.00530  0.11960  Biso   1.000  H
  H42      1.0000 0.48880  0.05400  0.08640  Biso   1.000  H
  H43      1.0000 0.12850  0.96220  0.45660  Biso   1.000  H
  H44      1.0000 0.16640  0.02340  0.45360  Biso   1.000  H
  H45      1.0000 0.24510  0.85000  0.43660  Biso   1.000  H
  H46      1.0000 0.17960  0.86000  0.45140  Biso   1.000  H
  H47      1.0000 0.26770  0.00950  0.43260  Biso   1.000  H
  H48      1.0000 0.30150  0.94300  0.43040  Biso   1.000  H
  H49      1.0000 0.09020  0.98940  0.15540  Biso   1.000  H
  H50      1.0000 0.20530  0.11200  0.41020  Biso   1.000  H
  H51      1.0000 0.12250  0.08920  0.38360  Biso   1.000  H
  H52      1.0000 0.15990  0.17070  0.41760  Biso   1.000  H
  H53      1.0000 0.16220  0.21370  0.34680  Biso   1.000  H
  H54      1.0000 0.04970  0.08890  0.09060  Biso   1.000  H
  H55      1.0000 0.13260  0.11430  0.11960  Biso   1.000  H
  H56      1.0000 0.09760  0.03240  0.08640  Biso   1.000  H
  H57      1.0000 0.00560  0.67190  0.04340  Biso   1.000  H
  H58      1.0000 0.06980  0.71280  0.04640  Biso   1.000  H
  H59      1.0000 0.91340  0.80850  0.06340  Biso   1.000  H
  H60      1.0000 0.90860  0.72820  0.04860  Biso   1.000  H
  H61      1.0000 0.07690  0.83510  0.06740  Biso   1.000  H
  H62      1.0000 0.01260  0.87110  0.06960  Biso   1.000  H
  H63      1.0000 0.33400  0.93480  0.34460  Biso   1.000  H
  H64      1.0000 0.20180  0.79510  0.08980  Biso   1.000  H
  H65      1.0000 0.20560  0.73890  0.11640  Biso   1.000  H
  H66      1.0000 0.25310  0.74230  0.08240  Biso   1.000  H
  H67      1.0000 0.36690  0.81540  0.15320  Biso   1.000  H
  H68      1.0000 0.49830  0.95910  0.40940  Biso   1.000  H
  H69      1.0000 0.49470  0.01300  0.38040  Biso   1.000  H
  H70      1.0000 0.44600  0.01120  0.41360  Biso   1.000  H
  H71      1.0000 0.53780  0.37150  0.04340  Biso   1.000  H
  H72      1.0000 0.47660  0.33360  0.04640  Biso   1.000  H
  H73      1.0000 0.65000  0.25490  0.06340  Biso   1.000  H
  H74      1.0000 0.64000  0.32040  0.04860  Biso   1.000  H
  H75      1.0000 0.49050  0.23230  0.06740  Biso   1.000  H
  H76      1.0000 0.55700  0.19850  0.06960  Biso   1.000  H
  H77      1.0000 0.51060  0.40980  0.34460  Biso   1.000  H
  H78      1.0000 0.38800  0.29470  0.08980  Biso   1.000  H
  H79      1.0000 0.41080  0.37750  0.11640  Biso   1.000  H
  H80      1.0000 0.32930  0.34010  0.08240  Biso   1.000  H
  H81      1.0000 0.28630  0.33780  0.15320  Biso   1.000  H
  H82      1.0000 0.41110  0.45030  0.40940  Biso   1.000  H
  H83      1.0000 0.38570  0.36740  0.38040  Biso   1.000  H
  H84      1.0000 0.46760  0.40240  0.41360  Biso   1.000  H
  H85      1.0000 0.37150  0.00560  0.54340  Biso   1.000  H
  H86      1.0000 0.33360  0.06980  0.54640  Biso   1.000  H
  H87      1.0000 0.25490  0.91340  0.56340  Biso   1.000  H
  H88      1.0000 0.32040  0.90860  0.54860  Biso   1.000  H
  H89      1.0000 0.23230  0.07690  0.56740  Biso   1.000  H
  H90      1.0000 0.19850  0.01260  0.56960  Biso   1.000  H
  H91      1.0000 0.40980  0.33400  0.84460  Biso   1.000  H
  H92      1.0000 0.29470  0.20180  0.58980  Biso   1.000  H
  H93      1.0000 0.37750  0.20560  0.61640  Biso   1.000  H
  H94      1.0000 0.34010  0.25310  0.58240  Biso   1.000  H
  H95      1.0000 0.33780  0.36690  0.65320  Biso   1.000  H
  H96      1.0000 0.45030  0.49830  0.90940  Biso   1.000  H
  H97      1.0000 0.36740  0.49470  0.88040  Biso   1.000  H
  H98      1.0000 0.40240  0.44600  0.91360  Biso   1.000  H
  H99      1.0000 0.67190  0.53780  0.54340  Biso   1.000  H
  H100     1.0000 0.71280  0.47660  0.54640  Biso   1.000  H
  H101     1.0000 0.80850  0.65000  0.56340  Biso   1.000  H
  H102     1.0000 0.72820  0.64000  0.54860  Biso   1.000  H
  H103     1.0000 0.83510  0.49050  0.56740  Biso   1.000  H
  H104     1.0000 0.87110  0.55700  0.56960  Biso   1.000  H
  H105     1.0000 0.93480  0.51060  0.84460  Biso   1.000  H
  H106     1.0000 0.79510  0.38800  0.58980  Biso   1.000  H
  H107     1.0000 0.73890  0.41080  0.61640  Biso   1.000  H
  H108     1.0000 0.74230  0.32930  0.58240  Biso   1.000  H
  H109     1.0000 0.81540  0.28630  0.65320  Biso   1.000  H
  H110     1.0000 0.95910  0.41110  0.90940  Biso   1.000  H
  H111     1.0000 0.01300  0.38570  0.88040  Biso   1.000  H
  H112     1.0000 0.01120  0.46760  0.91360  Biso   1.000  H
  H113     1.0000 0.03780  0.17190  0.04340  Biso   1.000  H
  H114     1.0000 0.97660  0.21280  0.04640  Biso   1.000  H
  H115     1.0000 0.15000  0.30850  0.06340  Biso   1.000  H
  H116     1.0000 0.14000  0.22820  0.04860  Biso   1.000  H
  H117     1.0000 0.99050  0.33510  0.06740  Biso   1.000  H
  H118     1.0000 0.05700  0.37110  0.06960  Biso   1.000  H
  H119     1.0000 0.01060  0.43480  0.34460  Biso   1.000  H
  H120     1.0000 0.88800  0.29510  0.08980  Biso   1.000  H
  H121     1.0000 0.91080  0.23890  0.11640  Biso   1.000  H
  H122     1.0000 0.82930  0.24230  0.08240  Biso   1.000  H
  H123     1.0000 0.78630  0.31540  0.15320  Biso   1.000  H
  H124     1.0000 0.91110  0.45910  0.40940  Biso   1.000  H
  H125     1.0000 0.88570  0.51300  0.38040  Biso   1.000  H
  H126     1.0000 0.96760  0.51120  0.41360  Biso   1.000  H
  H127     1.0000 0.50560  0.87150  0.04340  Biso   1.000  H
  H128     1.0000 0.56980  0.83360  0.04640  Biso   1.000  H
  H129     1.0000 0.41340  0.75490  0.06340  Biso   1.000  H
  H130     1.0000 0.40860  0.82040  0.04860  Biso   1.000  H
  H131     1.0000 0.57690  0.73230  0.06740  Biso   1.000  H
  H132     1.0000 0.51260  0.69850  0.06960  Biso   1.000  H
  H133     1.0000 0.83400  0.90980  0.34460  Biso   1.000  H
  H134     1.0000 0.70180  0.79470  0.08980  Biso   1.000  H
  H135     1.0000 0.70560  0.87750  0.11640  Biso   1.000  H
  H136     1.0000 0.75310  0.84010  0.08240  Biso   1.000  H
  H137     1.0000 0.86690  0.83780  0.15320  Biso   1.000  H
  H138     1.0000 0.99830  0.95030  0.40940  Biso   1.000  H
  H139     1.0000 0.99470  0.86740  0.38040  Biso   1.000  H
  H140     1.0000 0.94600  0.90240  0.41360  Biso   1.000  H
  H141     1.0000 0.17190  0.50560  0.54340  Biso   1.000  H
  H142     1.0000 0.21280  0.56980  0.54640  Biso   1.000  H
  H143     1.0000 0.30850  0.41340  0.56340  Biso   1.000  H
  H144     1.0000 0.22820  0.40860  0.54860  Biso   1.000  H
  H145     1.0000 0.33510  0.57690  0.56740  Biso   1.000  H
  H146     1.0000 0.37110  0.51260  0.56960  Biso   1.000  H
  H147     1.0000 0.43480  0.83400  0.84460  Biso   1.000  H
  H148     1.0000 0.29510  0.70180  0.58980  Biso   1.000  H
  H149     1.0000 0.23890  0.70560  0.61640  Biso   1.000  H
  H150     1.0000 0.24230  0.75310  0.58240  Biso   1.000  H
  H151     1.0000 0.31540  0.86690  0.65320  Biso   1.000  H
  H152     1.0000 0.45910  0.99830  0.90940  Biso   1.000  H
  H153     1.0000 0.51300  0.99470  0.88040  Biso   1.000  H
  H154     1.0000 0.51120  0.94600  0.91360  Biso   1.000  H
  H155     1.0000 0.87150  0.03780  0.54340  Biso   1.000  H
  H156     1.0000 0.83360  0.97660  0.54640  Biso   1.000  H
  H157     1.0000 0.75490  0.15000  0.56340  Biso   1.000  H
  H158     1.0000 0.82040  0.14000  0.54860  Biso   1.000  H
  H159     1.0000 0.73230  0.99050  0.56740  Biso   1.000  H
  H160     1.0000 0.69850  0.05700  0.56960  Biso   1.000  H
  H161     1.0000 0.90980  0.01060  0.84460  Biso   1.000  H
  H162     1.0000 0.79470  0.88800  0.58980  Biso   1.000  H
  H163     1.0000 0.87750  0.91080  0.61640  Biso   1.000  H
  H164     1.0000 0.84010  0.82930  0.58240  Biso   1.000  H
  H165     1.0000 0.83780  0.78630  0.65320  Biso   1.000  H
  H166     1.0000 0.95030  0.91110  0.90940  Biso   1.000  H
  H167     1.0000 0.86740  0.88570  0.88040  Biso   1.000  H
  H168     1.0000 0.90240  0.96760  0.91360  Biso   1.000  H
  H169     1.0000 0.99440  0.32810  0.95660  Biso   1.000  H
  H170     1.0000 0.93020  0.28720  0.95360  Biso   1.000  H
  H171     1.0000 0.08660  0.19150  0.93660  Biso   1.000  H
  H172     1.0000 0.09140  0.27180  0.95140  Biso   1.000  H
  H173     1.0000 0.92310  0.16490  0.93260  Biso   1.000  H
  H174     1.0000 0.98740  0.12890  0.93040  Biso   1.000  H
  H175     1.0000 0.66600  0.06520  0.65540  Biso   1.000  H
  H176     1.0000 0.79820  0.20490  0.91020  Biso   1.000  H
  H177     1.0000 0.79440  0.26110  0.88360  Biso   1.000  H
  H178     1.0000 0.74690  0.25770  0.91760  Biso   1.000  H
  H179     1.0000 0.63310  0.18460  0.84680  Biso   1.000  H
  H180     1.0000 0.50170  0.04090  0.59060  Biso   1.000  H
  H181     1.0000 0.50530  0.98700  0.61960  Biso   1.000  H
  H182     1.0000 0.55400  0.98880  0.58640  Biso   1.000  H
  H183     1.0000 0.46220  0.62850  0.95660  Biso   1.000  H
  H184     1.0000 0.52340  0.66640  0.95360  Biso   1.000  H
  H185     1.0000 0.35000  0.74510  0.93660  Biso   1.000  H
  H186     1.0000 0.36000  0.67960  0.95140  Biso   1.000  H
  H187     1.0000 0.50950  0.76770  0.93260  Biso   1.000  H
  H188     1.0000 0.44300  0.80150  0.93040  Biso   1.000  H
  H189     1.0000 0.48940  0.59020  0.65540  Biso   1.000  H
  H190     1.0000 0.61200  0.70530  0.91020  Biso   1.000  H
  H191     1.0000 0.58920  0.62250  0.88360  Biso   1.000  H
  H192     1.0000 0.67070  0.65990  0.91760  Biso   1.000  H
  H193     1.0000 0.71370  0.66220  0.84680  Biso   1.000  H
  H194     1.0000 0.58890  0.54970  0.59060  Biso   1.000  H
  H195     1.0000 0.61430  0.63260  0.61960  Biso   1.000  H
  H196     1.0000 0.53240  0.59760  0.58640  Biso   1.000  H
  H197     1.0000 0.62850  0.99440  0.45660  Biso   1.000  H
  H198     1.0000 0.66640  0.93020  0.45360  Biso   1.000  H
  H199     1.0000 0.74510  0.08660  0.43660  Biso   1.000  H
  H200     1.0000 0.67960  0.09140  0.45140  Biso   1.000  H
  H201     1.0000 0.76770  0.92310  0.43260  Biso   1.000  H
  H202     1.0000 0.80150  0.98740  0.43040  Biso   1.000  H
  H203     1.0000 0.59020  0.66600  0.15540  Biso   1.000  H
  H204     1.0000 0.70530  0.79820  0.41020  Biso   1.000  H
  H205     1.0000 0.62250  0.79440  0.38360  Biso   1.000  H
  H206     1.0000 0.65990  0.74690  0.41760  Biso   1.000  H
  H207     1.0000 0.66220  0.63310  0.34680  Biso   1.000  H
  H208     1.0000 0.54970  0.50170  0.09060  Biso   1.000  H
  H209     1.0000 0.63260  0.50530  0.11960  Biso   1.000  H
  H210     1.0000 0.59760  0.55400  0.08640  Biso   1.000  H
  H211     1.0000 0.32810  0.46220  0.45660  Biso   1.000  H
  H212     1.0000 0.28720  0.52340  0.45360  Biso   1.000  H
  H213     1.0000 0.19150  0.35000  0.43660  Biso   1.000  H
  H214     1.0000 0.27180  0.36000  0.45140  Biso   1.000  H
  H215     1.0000 0.16490  0.50950  0.43260  Biso   1.000  H
  H216     1.0000 0.12890  0.44300  0.43040  Biso   1.000  H
  H217     1.0000 0.06520  0.48940  0.15540  Biso   1.000  H
  H218     1.0000 0.20490  0.61200  0.41020  Biso   1.000  H
  H219     1.0000 0.26110  0.58920  0.38360  Biso   1.000  H
  H220     1.0000 0.25770  0.67070  0.41760  Biso   1.000  H
  H221     1.0000 0.18460  0.71370  0.34680  Biso   1.000  H
  H222     1.0000 0.04090  0.58890  0.09060  Biso   1.000  H
  H223     1.0000 0.98700  0.61430  0.11960  Biso   1.000  H
  H224     1.0000 0.98880  0.53240  0.08640  Biso   1.000  H
  C1       1.0000 0.98758  0.79437  0.96926  Biso   1.000  C
  C2       1.0000 0.88550  0.73659  0.96076  Biso   1.000  C
  C3       1.0000 0.97643  0.67446  0.95162  Biso   1.000  C
  C4       1.0000 0.97351  0.64934  0.75966  Biso   1.000  C
  C5       1.0000 0.04163  0.63909  0.75774  Biso   1.000  C
  C6       1.0000 0.03558  0.58939  0.69436  Biso   1.000  C
  C7       1.0000 0.10959  0.67578  0.81726  Biso   1.000  C
  C8       1.0000 0.12140  0.72959  0.88844  Biso   1.000  C
  C9       1.0000 0.22999  0.60074  0.74256  Biso   1.000  C
  C10      1.0000 0.16161  0.61047  0.74418  Biso   1.000  C
  C11      1.0000 0.16754  0.66021  0.80790  Biso   1.000  C
  C12      1.0000 0.09401  0.57335  0.68530  Biso   1.000  C
  C13      1.0000 0.08131  0.51757  0.61418  Biso   1.000  C
  C14      1.0000 0.48168  0.17489  0.96926  Biso   1.000  C
  C15      1.0000 0.57526  0.22417  0.96076  Biso   1.000  C
  C16      1.0000 0.47519  0.27716  0.95162  Biso   1.000  C
  C17      1.0000 0.28615  0.11032  0.75966  Biso   1.000  C
  C18      1.0000 0.21611  0.11865  0.75774  Biso   1.000  C
  C19      1.0000 0.15878  0.10497  0.69436  Biso   1.000  C
  C20      1.0000 0.20767  0.14148  0.81726  Biso   1.000  C
  C21      1.0000 0.26704  0.15885  0.88844  Biso   1.000  C
  C22      1.0000 0.01257  0.14182  0.74256  Biso   1.000  C
  C23      1.0000 0.08257  0.13371  0.74418  Biso   1.000  C
  C24      1.0000 0.14036  0.14769  0.80790  Biso   1.000  C
  C25      1.0000 0.09129  0.11195  0.68530  Biso   1.000  C
  C26      1.0000 0.03287  0.09661  0.61418  Biso   1.000  C
  C27      1.0000 0.79437  0.48168  0.46926  Biso   1.000  C
  C28      1.0000 0.73659  0.57526  0.46076  Biso   1.000  C
  C29      1.0000 0.67446  0.47519  0.45162  Biso   1.000  C
  C30      1.0000 0.64934  0.28615  0.25966  Biso   1.000  C
  C31      1.0000 0.63909  0.21611  0.25774  Biso   1.000  C
  C32      1.0000 0.58939  0.15878  0.19436  Biso   1.000  C
  C33      1.0000 0.67578  0.20767  0.31726  Biso   1.000  C
  C34      1.0000 0.72959  0.26704  0.38844  Biso   1.000  C
  C35      1.0000 0.60074  0.01257  0.24256  Biso   1.000  C
  C36      1.0000 0.61047  0.08257  0.24418  Biso   1.000  C
  C37      1.0000 0.66021  0.14036  0.30790  Biso   1.000  C
  C38      1.0000 0.57335  0.09129  0.18530  Biso   1.000  C
  C39      1.0000 0.51757  0.03287  0.11418  Biso   1.000  C
  C40      1.0000 0.17489  0.98758  0.46926  Biso   1.000  C
  C41      1.0000 0.22417  0.88550  0.46076  Biso   1.000  C
  C42      1.0000 0.27716  0.97643  0.45162  Biso   1.000  C
  C43      1.0000 0.11032  0.97351  0.25966  Biso   1.000  C
  C44      1.0000 0.11865  0.04163  0.25774  Biso   1.000  C
  C45      1.0000 0.10497  0.03558  0.19436  Biso   1.000  C
  C46      1.0000 0.14148  0.10959  0.31726  Biso   1.000  C
  C47      1.0000 0.15885  0.12140  0.38844  Biso   1.000  C
  C48      1.0000 0.14182  0.22999  0.24256  Biso   1.000  C
  C49      1.0000 0.13371  0.16161  0.24418  Biso   1.000  C
  C50      1.0000 0.14769  0.16754  0.30790  Biso   1.000  C
  C51      1.0000 0.11195  0.09401  0.18530  Biso   1.000  C
  C52      1.0000 0.09661  0.08131  0.11418  Biso   1.000  C
  C53      1.0000 0.01832  0.70563  0.03074  Biso   1.000  C
  C54      1.0000 0.92474  0.76341  0.03924  Biso   1.000  C
  C55      1.0000 0.02481  0.82554  0.04838  Biso   1.000  C
  C56      1.0000 0.21385  0.85066  0.24034  Biso   1.000  C
  C57      1.0000 0.28389  0.86091  0.24226  Biso   1.000  C
  C58      1.0000 0.34122  0.91061  0.30564  Biso   1.000  C
  C59      1.0000 0.29233  0.82422  0.18274  Biso   1.000  C
  C60      1.0000 0.23296  0.77041  0.11156  Biso   1.000  C
  C61      1.0000 0.48743  0.89926  0.25744  Biso   1.000  C
  C62      1.0000 0.41743  0.88953  0.25582  Biso   1.000  C
  C63      1.0000 0.35964  0.83979  0.19210  Biso   1.000  C
  C64      1.0000 0.40871  0.92665  0.31470  Biso   1.000  C
  C65      1.0000 0.46713  0.98243  0.38582  Biso   1.000  C
  C66      1.0000 0.51242  0.32511  0.03074  Biso   1.000  C
  C67      1.0000 0.61450  0.27583  0.03924  Biso   1.000  C
  C68      1.0000 0.52357  0.22284  0.04838  Biso   1.000  C
  C69      1.0000 0.52649  0.38968  0.24034  Biso   1.000  C
  C70      1.0000 0.45837  0.38135  0.24226  Biso   1.000  C
  C71      1.0000 0.46442  0.39503  0.30564  Biso   1.000  C
  C72      1.0000 0.39041  0.35852  0.18274  Biso   1.000  C
  C73      1.0000 0.37860  0.34115  0.11156  Biso   1.000  C
  C74      1.0000 0.27001  0.35818  0.25744  Biso   1.000  C
  C75      1.0000 0.33839  0.36629  0.25582  Biso   1.000  C
  C76      1.0000 0.33246  0.35231  0.19210  Biso   1.000  C
  C77      1.0000 0.40599  0.38805  0.31470  Biso   1.000  C
  C78      1.0000 0.41869  0.40339  0.38582  Biso   1.000  C
  C79      1.0000 0.32511  0.01832  0.53074  Biso   1.000  C
  C80      1.0000 0.27583  0.92474  0.53924  Biso   1.000  C
  C81      1.0000 0.22284  0.02481  0.54838  Biso   1.000  C
  C82      1.0000 0.38968  0.21385  0.74034  Biso   1.000  C
  C83      1.0000 0.38135  0.28389  0.74226  Biso   1.000  C
  C84      1.0000 0.39503  0.34122  0.80564  Biso   1.000  C
  C85      1.0000 0.35852  0.29233  0.68274  Biso   1.000  C
  C86      1.0000 0.34115  0.23296  0.61156  Biso   1.000  C
  C87      1.0000 0.35818  0.48743  0.75744  Biso   1.000  C
  C88      1.0000 0.36629  0.41743  0.75582  Biso   1.000  C
  C89      1.0000 0.35231  0.35964  0.69210  Biso   1.000  C
  C90      1.0000 0.38805  0.40871  0.81470  Biso   1.000  C
  C91      1.0000 0.40339  0.46713  0.88582  Biso   1.000  C
  C92      1.0000 0.70563  0.51242  0.53074  Biso   1.000  C
  C93      1.0000 0.76341  0.61450  0.53924  Biso   1.000  C
  C94      1.0000 0.82554  0.52357  0.54838  Biso   1.000  C
  C95      1.0000 0.85066  0.52649  0.74034  Biso   1.000  C
  C96      1.0000 0.86091  0.45837  0.74226  Biso   1.000  C
  C97      1.0000 0.91061  0.46442  0.80564  Biso   1.000  C
  C98      1.0000 0.82422  0.39041  0.68274  Biso   1.000  C
  C99      1.0000 0.77041  0.37860  0.61156  Biso   1.000  C
  C100     1.0000 0.89926  0.27001  0.75744  Biso   1.000  C
  C101     1.0000 0.88953  0.33839  0.75582  Biso   1.000  C
  C102     1.0000 0.83979  0.33246  0.69210  Biso   1.000  C
  C103     1.0000 0.92665  0.40599  0.81470  Biso   1.000  C
  C104     1.0000 0.98243  0.41869  0.88582  Biso   1.000  C
  C105     1.0000 0.01242  0.20563  0.03074  Biso   1.000  C
  C106     1.0000 0.11450  0.26341  0.03924  Biso   1.000  C
  C107     1.0000 0.02357  0.32554  0.04838  Biso   1.000  C
  C108     1.0000 0.02649  0.35066  0.24034  Biso   1.000  C
  C109     1.0000 0.95837  0.36091  0.24226  Biso   1.000  C
  C110     1.0000 0.96442  0.41061  0.30564  Biso   1.000  C
  C111     1.0000 0.89041  0.32422  0.18274  Biso   1.000  C
  C112     1.0000 0.87860  0.27041  0.11156  Biso   1.000  C
  C113     1.0000 0.77001  0.39926  0.25744  Biso   1.000  C
  C114     1.0000 0.83839  0.38953  0.25582  Biso   1.000  C
  C115     1.0000 0.83246  0.33979  0.19210  Biso   1.000  C
  C116     1.0000 0.90599  0.42665  0.31470  Biso   1.000  C
  C117     1.0000 0.91869  0.48243  0.38582  Biso   1.000  C
  C118     1.0000 0.51832  0.82511  0.03074  Biso   1.000  C
  C119     1.0000 0.42474  0.77583  0.03924  Biso   1.000  C
  C120     1.0000 0.52481  0.72284  0.04838  Biso   1.000  C
  C121     1.0000 0.71385  0.88968  0.24034  Biso   1.000  C
  C122     1.0000 0.78389  0.88135  0.24226  Biso   1.000  C
  C123     1.0000 0.84122  0.89503  0.30564  Biso   1.000  C
  C124     1.0000 0.79233  0.85852  0.18274  Biso   1.000  C
  C125     1.0000 0.73296  0.84115  0.11156  Biso   1.000  C
  C126     1.0000 0.98743  0.85818  0.25744  Biso   1.000  C
  C127     1.0000 0.91743  0.86629  0.25582  Biso   1.000  C
  C128     1.0000 0.85964  0.85231  0.19210  Biso   1.000  C
  C129     1.0000 0.90871  0.88805  0.31470  Biso   1.000  C
  C130     1.0000 0.96713  0.90339  0.38582  Biso   1.000  C
  C131     1.0000 0.20563  0.51832  0.53074  Biso   1.000  C
  C132     1.0000 0.26341  0.42474  0.53924  Biso   1.000  C
  C133     1.0000 0.32554  0.52481  0.54838  Biso   1.000  C
  C134     1.0000 0.35066  0.71385  0.74034  Biso   1.000  C
  C135     1.0000 0.36091  0.78389  0.74226  Biso   1.000  C
  C136     1.0000 0.41061  0.84122  0.80564  Biso   1.000  C
  C137     1.0000 0.32422  0.79233  0.68274  Biso   1.000  C
  C138     1.0000 0.27041  0.73296  0.61156  Biso   1.000  C
  C139     1.0000 0.39926  0.98743  0.75744  Biso   1.000  C
  C140     1.0000 0.38953  0.91743  0.75582  Biso   1.000  C
  C141     1.0000 0.33979  0.85964  0.69210  Biso   1.000  C
  C142     1.0000 0.42665  0.90871  0.81470  Biso   1.000  C
  C143     1.0000 0.48243  0.96713  0.88582  Biso   1.000  C
  C144     1.0000 0.82511  0.01242  0.53074  Biso   1.000  C
  C145     1.0000 0.77583  0.11450  0.53924  Biso   1.000  C
  C146     1.0000 0.72284  0.02357  0.54838  Biso   1.000  C
  C147     1.0000 0.88968  0.02649  0.74034  Biso   1.000  C
  C148     1.0000 0.88135  0.95837  0.74226  Biso   1.000  C
  C149     1.0000 0.89503  0.96442  0.80564  Biso   1.000  C
  C150     1.0000 0.85852  0.89041  0.68274  Biso   1.000  C
  C151     1.0000 0.84115  0.87860  0.61156  Biso   1.000  C
  C152     1.0000 0.85818  0.77001  0.75744  Biso   1.000  C
  C153     1.0000 0.86629  0.83839  0.75582  Biso   1.000  C
  C154     1.0000 0.85231  0.83246  0.69210  Biso   1.000  C
  C155     1.0000 0.88805  0.90599  0.81470  Biso   1.000  C
  C156     1.0000 0.90339  0.91869  0.88582  Biso   1.000  C
  C157     1.0000 0.98168  0.29437  0.96926  Biso   1.000  C
  C158     1.0000 0.07526  0.23659  0.96076  Biso   1.000  C
  C159     1.0000 0.97519  0.17446  0.95162  Biso   1.000  C
  C160     1.0000 0.78615  0.14934  0.75966  Biso   1.000  C
  C161     1.0000 0.71611  0.13909  0.75774  Biso   1.000  C
  C162     1.0000 0.65878  0.08939  0.69436  Biso   1.000  C
  C163     1.0000 0.70767  0.17578  0.81726  Biso   1.000  C
  C164     1.0000 0.76704  0.22959  0.88844  Biso   1.000  C
  C165     1.0000 0.51257  0.10074  0.74256  Biso   1.000  C
  C166     1.0000 0.58257  0.11047  0.74418  Biso   1.000  C
  C167     1.0000 0.64036  0.16021  0.80790  Biso   1.000  C
  C168     1.0000 0.59129  0.07335  0.68530  Biso   1.000  C
  C169     1.0000 0.53287  0.01757  0.61418  Biso   1.000  C
  C170     1.0000 0.48758  0.67489  0.96926  Biso   1.000  C
  C171     1.0000 0.38550  0.72417  0.96076  Biso   1.000  C
  C172     1.0000 0.47643  0.77716  0.95162  Biso   1.000  C
  C173     1.0000 0.47351  0.61032  0.75966  Biso   1.000  C
  C174     1.0000 0.54163  0.61865  0.75774  Biso   1.000  C
  C175     1.0000 0.53558  0.60497  0.69436  Biso   1.000  C
  C176     1.0000 0.60959  0.64148  0.81726  Biso   1.000  C
  C177     1.0000 0.62140  0.65885  0.88844  Biso   1.000  C
  C178     1.0000 0.72999  0.64182  0.74256  Biso   1.000  C
  C179     1.0000 0.66161  0.63371  0.74418  Biso   1.000  C
  C180     1.0000 0.66754  0.64769  0.80790  Biso   1.000  C
  C181     1.0000 0.59401  0.61195  0.68530  Biso   1.000  C
  C182     1.0000 0.58131  0.59661  0.61418  Biso   1.000  C
  C183     1.0000 0.67489  0.98168  0.46926  Biso   1.000  C
  C184     1.0000 0.72417  0.07526  0.46076  Biso   1.000  C
  C185     1.0000 0.77716  0.97519  0.45162  Biso   1.000  C
  C186     1.0000 0.61032  0.78615  0.25966  Biso   1.000  C
  C187     1.0000 0.61865  0.71611  0.25774  Biso   1.000  C
  C188     1.0000 0.60497  0.65878  0.19436  Biso   1.000  C
  C189     1.0000 0.64148  0.70767  0.31726  Biso   1.000  C
  C190     1.0000 0.65885  0.76704  0.38844  Biso   1.000  C
  C191     1.0000 0.64182  0.51257  0.24256  Biso   1.000  C
  C192     1.0000 0.63371  0.58257  0.24418  Biso   1.000  C
  C193     1.0000 0.64769  0.64036  0.30790  Biso   1.000  C
  C194     1.0000 0.61195  0.59129  0.18530  Biso   1.000  C
  C195     1.0000 0.59661  0.53287  0.11418  Biso   1.000  C
  C196     1.0000 0.29437  0.48758  0.46926  Biso   1.000  C
  C197     1.0000 0.23659  0.38550  0.46076  Biso   1.000  C
  C198     1.0000 0.17446  0.47643  0.45162  Biso   1.000  C
  C199     1.0000 0.14934  0.47351  0.25966  Biso   1.000  C
  C200     1.0000 0.13909  0.54163  0.25774  Biso   1.000  C
  C201     1.0000 0.08939  0.53558  0.19436  Biso   1.000  C
  C202     1.0000 0.17578  0.60959  0.31726  Biso   1.000  C
  C203     1.0000 0.22959  0.62140  0.38844  Biso   1.000  C
  C204     1.0000 0.10074  0.72999  0.24256  Biso   1.000  C
  C205     1.0000 0.11047  0.66161  0.24418  Biso   1.000  C
  C206     1.0000 0.16021  0.66754  0.30790  Biso   1.000  C
  C207     1.0000 0.07335  0.59401  0.18530  Biso   1.000  C
  C208     1.0000 0.01757  0.58131  0.11418  Biso   1.000  C
  N1       1.0000 0.93586  0.72489  0.93316  Biso   1.000  N
  N2       1.0000 0.49730  0.20827  0.93316  Biso   1.000  N
  N3       1.0000 0.72489  0.49730  0.43316  Biso   1.000  N
  N4       1.0000 0.20827  0.93586  0.43316  Biso   1.000  N
  N5       1.0000 0.00270  0.77511  0.06684  Biso   1.000  N
  N6       1.0000 0.56414  0.29173  0.06684  Biso   1.000  N
  N7       1.0000 0.29173  0.00270  0.56684  Biso   1.000  N
  N8       1.0000 0.77511  0.56414  0.56684  Biso   1.000  N
  N9       1.0000 0.06414  0.27511  0.06684  Biso   1.000  N
  N10      1.0000 0.50270  0.79173  0.06684  Biso   1.000  N
  N11      1.0000 0.27511  0.50270  0.56684  Biso   1.000  N
  N12      1.0000 0.79173  0.06414  0.56684  Biso   1.000  N
  N13      1.0000 0.99730  0.22489  0.93316  Biso   1.000  N
  N14      1.0000 0.43586  0.70827  0.93316  Biso   1.000  N
  N15      1.0000 0.70827  0.99730  0.43316  Biso   1.000  N
  N16      1.0000 0.22489  0.43586  0.43316  Biso   1.000  N
  O1       1.0000 0.97330  0.66280  0.81528  Biso   1.000  O
  O2       1.0000 0.22970  0.58261  0.68592  Biso   1.000  O
  O3       1.0000 0.92142  0.64248  0.70484  Biso   1.000  O
  O4       1.0000 0.28344  0.61339  0.79968  Biso   1.000  O
  O5       1.0000 0.34198  0.15248  0.81528  Biso   1.000  O
  O6       1.0000 0.95622  0.10331  0.68592  Biso   1.000  O
  O7       1.0000 0.28342  0.06236  0.70484  Biso   1.000  O
  O8       1.0000 0.01624  0.18629  0.79968  Biso   1.000  O
  O9       1.0000 0.66280  0.34198  0.31528  Biso   1.000  O
  O10      1.0000 0.58261  0.95622  0.18592  Biso   1.000  O
  O11      1.0000 0.64248  0.28342  0.20484  Biso   1.000  O
  O12      1.0000 0.61339  0.01624  0.29968  Biso   1.000  O
  O13      1.0000 0.15248  0.97330  0.31528  Biso   1.000  O
  O14      1.0000 0.10331  0.22970  0.18592  Biso   1.000  O
  O15      1.0000 0.06236  0.92142  0.20484  Biso   1.000  O
  O16      1.0000 0.18629  0.28344  0.29968  Biso   1.000  O
  O17      1.0000 0.15802  0.83720  0.18472  Biso   1.000  O
  O18      1.0000 0.54378  0.91739  0.31408  Biso   1.000  O
  O19      1.0000 0.21658  0.85752  0.29516  Biso   1.000  O
  O20      1.0000 0.48376  0.88661  0.20032  Biso   1.000  O
  O21      1.0000 0.52670  0.34752  0.18472  Biso   1.000  O
  O22      1.0000 0.27030  0.39669  0.31408  Biso   1.000  O
  O23      1.0000 0.57858  0.43764  0.29516  Biso   1.000  O
  O24      1.0000 0.21656  0.31371  0.20032  Biso   1.000  O
  O25      1.0000 0.34752  0.15802  0.68472  Biso   1.000  O
  O26      1.0000 0.39669  0.54378  0.81408  Biso   1.000  O
  O27      1.0000 0.43764  0.21658  0.79516  Biso   1.000  O
  O28      1.0000 0.31371  0.48376  0.70032  Biso   1.000  O
  O29      1.0000 0.83720  0.52670  0.68472  Biso   1.000  O
  O30      1.0000 0.91739  0.27030  0.81408  Biso   1.000  O
  O31      1.0000 0.85752  0.57858  0.79516  Biso   1.000  O
  O32      1.0000 0.88661  0.21656  0.70032  Biso   1.000  O
  O33      1.0000 0.02670  0.33720  0.18472  Biso   1.000  O
  O34      1.0000 0.77030  0.41739  0.31408  Biso   1.000  O
  O35      1.0000 0.07858  0.35752  0.29516  Biso   1.000  O
  O36      1.0000 0.71656  0.38661  0.20032  Biso   1.000  O
  O37      1.0000 0.65802  0.84752  0.18472  Biso   1.000  O
  O38      1.0000 0.04378  0.89669  0.31408  Biso   1.000  O
  O39      1.0000 0.71658  0.93764  0.29516  Biso   1.000  O
  O40      1.0000 0.98376  0.81371  0.20032  Biso   1.000  O
  O41      1.0000 0.33720  0.65802  0.68472  Biso   1.000  O
  O42      1.0000 0.41739  0.04378  0.81408  Biso   1.000  O
  O43      1.0000 0.35752  0.71658  0.79516  Biso   1.000  O
  O44      1.0000 0.38661  0.98376  0.70032  Biso   1.000  O
  O45      1.0000 0.84752  0.02670  0.68472  Biso   1.000  O
  O46      1.0000 0.89669  0.77030  0.81408  Biso   1.000  O
  O47      1.0000 0.93764  0.07858  0.79516  Biso   1.000  O
  O48      1.0000 0.81371  0.71656  0.70032  Biso   1.000  O
  O49      1.0000 0.84198  0.16280  0.81528  Biso   1.000  O
  O50      1.0000 0.45622  0.08261  0.68592  Biso   1.000  O
  O51      1.0000 0.78342  0.14248  0.70484  Biso   1.000  O
  O52      1.0000 0.51624  0.11339  0.79968  Biso   1.000  O
  O53      1.0000 0.47330  0.65248  0.81528  Biso   1.000  O
  O54      1.0000 0.72970  0.60331  0.68592  Biso   1.000  O
  O55      1.0000 0.42142  0.56236  0.70484  Biso   1.000  O
  O56      1.0000 0.78344  0.68629  0.79968  Biso   1.000  O
  O57      1.0000 0.65248  0.84198  0.31528  Biso   1.000  O
  O58      1.0000 0.60331  0.45622  0.18592  Biso   1.000  O
  O59      1.0000 0.56236  0.78342  0.20484  Biso   1.000  O
  O60      1.0000 0.68629  0.51624  0.29968  Biso   1.000  O
  O61      1.0000 0.16280  0.47330  0.31528  Biso   1.000  O
  O62      1.0000 0.08261  0.72970  0.18592  Biso   1.000  O
  O63      1.0000 0.14248  0.42142  0.20484  Biso   1.000  O
  O64      1.0000 0.11339  0.78344  0.29968  Biso   1.000  O
