data_image0
_cell_length_a       15.4839
_cell_length_b       16.3541
_cell_length_c       16.3541
_cell_angle_alpha    69.4761
_cell_angle_beta     71.6032
_cell_angle_gamma    108.397

_symmetry_space_group_name_H-M    P 1
_symmetry_int_tables_number       1

loop_
  _symmetry_equiv_pos_as_xyz
  'x, y, z'

loop_
  _atom_site_label
  _atom_site_occupancy
  _atom_site_fract_x
  _atom_site_fract_y
  _atom_site_fract_z
  _atom_site_thermal_displace_type
  _atom_site_B_iso_or_equiv
  _atom_site_type_symbol
  Mn1      1.0000 0.59221  0.68442  0.65779  Biso   1.000  Mn
  Mn2      1.0000 0.25000  0.65779  0.65779  Biso   1.000  Mn
  Mn3      1.0000 0.90779  0.65779  0.68442  Biso   1.000  Mn
  Mn4      1.0000 0.40779  0.31558  0.34221  Biso   1.000  Mn
  Mn5      1.0000 0.75000  0.34221  0.34221  Biso   1.000  Mn
  Mn6      1.0000 0.09221  0.34221  0.31558  Biso   1.000  Mn
  Mn7      1.0000 0.75000  0.59284  0.59284  Biso   1.000  Mn
  Mn8      1.0000 0.34284  0.59284  0.81432  Biso   1.000  Mn
  Mn9      1.0000 0.15716  0.81432  0.59284  Biso   1.000  Mn
  Mn10     1.0000 0.25000  0.40716  0.40716  Biso   1.000  Mn
  Mn11     1.0000 0.65716  0.40716  0.18568  Biso   1.000  Mn
  Mn12     1.0000 0.84284  0.18568  0.40716  Biso   1.000  Mn
  H1       1.0000 0.61720  0.43930  0.97380  Biso   1.000  H
  H2       1.0000 0.51690  0.43570  0.70680  Biso   1.000  H
  H3       1.0000 0.61050  0.31490  0.60130  Biso   1.000  H
  H4       1.0000 0.50440  0.25820  0.60280  Biso   1.000  H
  H5       1.0000 0.52280  0.20770  0.69450  Biso   1.000  H
  H6       1.0000 0.35870  0.31130  0.77260  Biso   1.000  H
  H7       1.0000 0.35210  0.20440  0.80250  Biso   1.000  H
  H8       1.0000 0.34920  0.26420  0.70300  Biso   1.000  H
  H9       1.0000 0.59100  0.97380  0.58690  Biso   1.000  H
  H10      1.0000 0.22370  0.70680  0.85750  Biso   1.000  H
  H11      1.0000 0.21180  0.60130  0.08380  Biso   1.000  H
  H12      1.0000 0.10720  0.60280  0.13900  Biso   1.000  H
  H13      1.0000 0.21730  0.69450  0.09780  Biso   1.000  H
  H14      1.0000 0.13130  0.77260  0.91610  Biso   1.000  H
  H15      1.0000 0.15460  0.80250  0.99310  Biso   1.000  H
  H16      1.0000 0.05220  0.70300  0.03280  Biso   1.000  H
  H17      1.0000 0.17790  0.58690  0.43930  Biso   1.000  H
  H18      1.0000 0.08120  0.85750  0.43570  Biso   1.000  H
  H19      1.0000 0.29560  0.08380  0.31490  Biso   1.000  H
  H20      1.0000 0.24620  0.13900  0.25820  Biso   1.000  H
  H21      1.0000 0.31510  0.09780  0.20770  Biso   1.000  H
  H22      1.0000 0.04740  0.91610  0.31130  Biso   1.000  H
  H23      1.0000 0.14770  0.99310  0.20440  Biso   1.000  H
  H24      1.0000 0.08500  0.03280  0.26420  Biso   1.000  H
  H25      1.0000 0.90900  0.58690  0.97380  Biso   1.000  H
  H26      1.0000 0.27630  0.85750  0.70680  Biso   1.000  H
  H27      1.0000 0.28820  0.08380  0.60130  Biso   1.000  H
  H28      1.0000 0.39280  0.13900  0.60280  Biso   1.000  H
  H29      1.0000 0.28270  0.09780  0.69450  Biso   1.000  H
  H30      1.0000 0.36870  0.91610  0.77260  Biso   1.000  H
  H31      1.0000 0.34540  0.99310  0.80250  Biso   1.000  H
  H32      1.0000 0.44780  0.03280  0.70300  Biso   1.000  H
  H33      1.0000 0.32210  0.43930  0.58690  Biso   1.000  H
  H34      1.0000 0.41880  0.43570  0.85750  Biso   1.000  H
  H35      1.0000 0.20440  0.31490  0.08380  Biso   1.000  H
  H36      1.0000 0.25380  0.25820  0.13900  Biso   1.000  H
  H37      1.0000 0.18490  0.20770  0.09780  Biso   1.000  H
  H38      1.0000 0.45260  0.31130  0.91610  Biso   1.000  H
  H39      1.0000 0.35230  0.20440  0.99310  Biso   1.000  H
  H40      1.0000 0.41500  0.26420  0.03280  Biso   1.000  H
  H41      1.0000 0.88280  0.97380  0.43930  Biso   1.000  H
  H42      1.0000 0.98310  0.70680  0.43570  Biso   1.000  H
  H43      1.0000 0.88950  0.60130  0.31490  Biso   1.000  H
  H44      1.0000 0.99560  0.60280  0.25820  Biso   1.000  H
  H45      1.0000 0.97720  0.69450  0.20770  Biso   1.000  H
  H46      1.0000 0.14130  0.77260  0.31130  Biso   1.000  H
  H47      1.0000 0.14790  0.80250  0.20440  Biso   1.000  H
  H48      1.0000 0.15080  0.70300  0.26420  Biso   1.000  H
  H49      1.0000 0.38280  0.56070  0.02620  Biso   1.000  H
  H50      1.0000 0.48310  0.56430  0.29320  Biso   1.000  H
  H51      1.0000 0.38950  0.68510  0.39870  Biso   1.000  H
  H52      1.0000 0.49560  0.74180  0.39720  Biso   1.000  H
  H53      1.0000 0.47720  0.79230  0.30550  Biso   1.000  H
  H54      1.0000 0.64130  0.68870  0.22740  Biso   1.000  H
  H55      1.0000 0.64790  0.79560  0.19750  Biso   1.000  H
  H56      1.0000 0.65080  0.73580  0.29700  Biso   1.000  H
  H57      1.0000 0.40900  0.02620  0.41310  Biso   1.000  H
  H58      1.0000 0.77630  0.29320  0.14250  Biso   1.000  H
  H59      1.0000 0.78820  0.39870  0.91620  Biso   1.000  H
  H60      1.0000 0.89280  0.39720  0.86100  Biso   1.000  H
  H61      1.0000 0.78270  0.30550  0.90220  Biso   1.000  H
  H62      1.0000 0.86870  0.22740  0.08390  Biso   1.000  H
  H63      1.0000 0.84540  0.19750  0.00690  Biso   1.000  H
  H64      1.0000 0.94780  0.29700  0.96720  Biso   1.000  H
  H65      1.0000 0.82210  0.41310  0.56070  Biso   1.000  H
  H66      1.0000 0.91880  0.14250  0.56430  Biso   1.000  H
  H67      1.0000 0.70440  0.91620  0.68510  Biso   1.000  H
  H68      1.0000 0.75380  0.86100  0.74180  Biso   1.000  H
  H69      1.0000 0.68490  0.90220  0.79230  Biso   1.000  H
  H70      1.0000 0.95260  0.08390  0.68870  Biso   1.000  H
  H71      1.0000 0.85230  0.00690  0.79560  Biso   1.000  H
  H72      1.0000 0.91500  0.96720  0.73580  Biso   1.000  H
  H73      1.0000 0.09100  0.41310  0.02620  Biso   1.000  H
  H74      1.0000 0.72370  0.14250  0.29320  Biso   1.000  H
  H75      1.0000 0.71180  0.91620  0.39870  Biso   1.000  H
  H76      1.0000 0.60720  0.86100  0.39720  Biso   1.000  H
  H77      1.0000 0.71730  0.90220  0.30550  Biso   1.000  H
  H78      1.0000 0.63130  0.08390  0.22740  Biso   1.000  H
  H79      1.0000 0.65460  0.00690  0.19750  Biso   1.000  H
  H80      1.0000 0.55220  0.96720  0.29700  Biso   1.000  H
  H81      1.0000 0.67790  0.56070  0.41310  Biso   1.000  H
  H82      1.0000 0.58120  0.56430  0.14250  Biso   1.000  H
  H83      1.0000 0.79560  0.68510  0.91620  Biso   1.000  H
  H84      1.0000 0.74620  0.74180  0.86100  Biso   1.000  H
  H85      1.0000 0.81510  0.79230  0.90220  Biso   1.000  H
  H86      1.0000 0.54740  0.68870  0.08390  Biso   1.000  H
  H87      1.0000 0.64770  0.79560  0.00690  Biso   1.000  H
  H88      1.0000 0.58500  0.73580  0.96720  Biso   1.000  H
  H89      1.0000 0.11720  0.02620  0.56070  Biso   1.000  H
  H90      1.0000 0.01690  0.29320  0.56430  Biso   1.000  H
  H91      1.0000 0.11050  0.39870  0.68510  Biso   1.000  H
  H92      1.0000 0.00440  0.39720  0.74180  Biso   1.000  H
  H93      1.0000 0.02280  0.30550  0.79230  Biso   1.000  H
  H94      1.0000 0.85870  0.22740  0.68870  Biso   1.000  H
  H95      1.0000 0.85210  0.19750  0.79560  Biso   1.000  H
  H96      1.0000 0.84920  0.29700  0.73580  Biso   1.000  H
  C1       1.0000 0.57667  0.53798  0.90346  Biso   1.000  C
  C2       1.0000 0.66204  0.57259  0.80325  Biso   1.000  C
  C3       1.0000 0.56895  0.46362  0.98492  Biso   1.000  C
  C4       1.0000 0.50726  0.57658  0.91752  Biso   1.000  C
  C5       1.0000 0.54969  0.40506  0.67814  Biso   1.000  C
  C6       1.0000 0.53570  0.27083  0.64363  Biso   1.000  C
  C7       1.0000 0.37863  0.27061  0.74682  Biso   1.000  C
  C8       1.0000 0.48013  0.90346  0.55856  Biso   1.000  C
  C9       1.0000 0.46529  0.80325  0.62416  Biso   1.000  C
  C10      1.0000 0.55387  0.98492  0.55146  Biso   1.000  C
  C11      1.0000 0.42478  0.91752  0.50590  Biso   1.000  C
  C12      1.0000 0.22783  0.67814  0.91680  Biso   1.000  C
  C13      1.0000 0.17933  0.64363  0.08554  Biso   1.000  C
  C14      1.0000 0.12545  0.74682  0.98257  Biso   1.000  C
  C15      1.0000 0.03869  0.55856  0.53798  Biso   1.000  C
  C16      1.0000 0.08945  0.62416  0.57259  Biso   1.000  C
  C17      1.0000 0.10533  0.55146  0.46362  Biso   1.000  C
  C18      1.0000 0.93068  0.50590  0.57658  Biso   1.000  C
  C19      1.0000 0.14463  0.91680  0.40506  Biso   1.000  C
  C20      1.0000 0.26487  0.08554  0.27083  Biso   1.000  C
  C21      1.0000 0.10802  0.98257  0.27061  Biso   1.000  C
  C22      1.0000 0.01987  0.55856  0.90346  Biso   1.000  C
  C23      1.0000 0.03471  0.62416  0.80325  Biso   1.000  C
  C24      1.0000 0.94613  0.55146  0.98492  Biso   1.000  C
  C25      1.0000 0.07522  0.50590  0.91752  Biso   1.000  C
  C26      1.0000 0.27217  0.91680  0.67814  Biso   1.000  C
  C27      1.0000 0.32067  0.08554  0.64363  Biso   1.000  C
  C28      1.0000 0.37455  0.98257  0.74682  Biso   1.000  C
  C29      1.0000 0.46131  0.53798  0.55856  Biso   1.000  C
  C30      1.0000 0.41055  0.57259  0.62416  Biso   1.000  C
  C31      1.0000 0.39467  0.46362  0.55146  Biso   1.000  C
  C32      1.0000 0.56932  0.57658  0.50590  Biso   1.000  C
  C33      1.0000 0.35537  0.40506  0.91680  Biso   1.000  C
  C34      1.0000 0.23513  0.27083  0.08554  Biso   1.000  C
  C35      1.0000 0.39198  0.27061  0.98257  Biso   1.000  C
  C36      1.0000 0.92333  0.90346  0.53798  Biso   1.000  C
  C37      1.0000 0.83796  0.80325  0.57259  Biso   1.000  C
  C38      1.0000 0.93105  0.98492  0.46362  Biso   1.000  C
  C39      1.0000 0.99274  0.91752  0.57658  Biso   1.000  C
  C40      1.0000 0.95031  0.67814  0.40506  Biso   1.000  C
  C41      1.0000 0.96430  0.64363  0.27083  Biso   1.000  C
  C42      1.0000 0.12137  0.74682  0.27061  Biso   1.000  C
  C43      1.0000 0.42333  0.46202  0.09654  Biso   1.000  C
  C44      1.0000 0.33796  0.42741  0.19675  Biso   1.000  C
  C45      1.0000 0.43105  0.53638  0.01508  Biso   1.000  C
  C46      1.0000 0.49274  0.42342  0.08248  Biso   1.000  C
  C47      1.0000 0.45031  0.59494  0.32186  Biso   1.000  C
  C48      1.0000 0.46430  0.72917  0.35637  Biso   1.000  C
  C49      1.0000 0.62137  0.72939  0.25318  Biso   1.000  C
  C50      1.0000 0.51987  0.09654  0.44144  Biso   1.000  C
  C51      1.0000 0.53471  0.19675  0.37584  Biso   1.000  C
  C52      1.0000 0.44613  0.01508  0.44854  Biso   1.000  C
  C53      1.0000 0.57522  0.08248  0.49410  Biso   1.000  C
  C54      1.0000 0.77217  0.32186  0.08320  Biso   1.000  C
  C55      1.0000 0.82067  0.35637  0.91446  Biso   1.000  C
  C56      1.0000 0.87455  0.25318  0.01743  Biso   1.000  C
  C57      1.0000 0.96131  0.44144  0.46202  Biso   1.000  C
  C58      1.0000 0.91055  0.37584  0.42741  Biso   1.000  C
  C59      1.0000 0.89467  0.44854  0.53638  Biso   1.000  C
  C60      1.0000 0.06932  0.49410  0.42342  Biso   1.000  C
  C61      1.0000 0.85537  0.08320  0.59494  Biso   1.000  C
  C62      1.0000 0.73513  0.91446  0.72917  Biso   1.000  C
  C63      1.0000 0.89198  0.01743  0.72939  Biso   1.000  C
  C64      1.0000 0.98013  0.44144  0.09654  Biso   1.000  C
  C65      1.0000 0.96529  0.37584  0.19675  Biso   1.000  C
  C66      1.0000 0.05387  0.44854  0.01508  Biso   1.000  C
  C67      1.0000 0.92478  0.49410  0.08248  Biso   1.000  C
  C68      1.0000 0.72783  0.08320  0.32186  Biso   1.000  C
  C69      1.0000 0.67933  0.91446  0.35637  Biso   1.000  C
  C70      1.0000 0.62545  0.01743  0.25318  Biso   1.000  C
  C71      1.0000 0.53869  0.46202  0.44144  Biso   1.000  C
  C72      1.0000 0.58945  0.42741  0.37584  Biso   1.000  C
  C73      1.0000 0.60533  0.53638  0.44854  Biso   1.000  C
  C74      1.0000 0.43068  0.42342  0.49410  Biso   1.000  C
  C75      1.0000 0.64463  0.59494  0.08320  Biso   1.000  C
  C76      1.0000 0.76487  0.72917  0.91446  Biso   1.000  C
  C77      1.0000 0.60802  0.72939  0.01743  Biso   1.000  C
  C78      1.0000 0.07667  0.09654  0.46202  Biso   1.000  C
  C79      1.0000 0.16204  0.19675  0.42741  Biso   1.000  C
  C80      1.0000 0.06895  0.01508  0.53638  Biso   1.000  C
  C81      1.0000 0.00726  0.08248  0.42342  Biso   1.000  C
  C82      1.0000 0.04969  0.32186  0.59494  Biso   1.000  C
  C83      1.0000 0.03570  0.35637  0.72917  Biso   1.000  C
  C84      1.0000 0.87863  0.25318  0.72939  Biso   1.000  C
  S1       1.0000 0.51429  0.67601  0.82115  Biso   1.000  S
  S2       1.0000 0.33544  0.82116  0.50284  Biso   1.000  S
  S3       1.0000 0.83828  0.50284  0.67601  Biso   1.000  S
  S4       1.0000 0.16456  0.50284  0.82115  Biso   1.000  S
  S5       1.0000 0.66172  0.67601  0.50284  Biso   1.000  S
  S6       1.0000 0.98571  0.82115  0.67601  Biso   1.000  S
  S7       1.0000 0.48571  0.32399  0.17885  Biso   1.000  S
  S8       1.0000 0.66456  0.17885  0.49716  Biso   1.000  S
  S9       1.0000 0.16172  0.49716  0.32399  Biso   1.000  S
  S10      1.0000 0.83544  0.49716  0.17885  Biso   1.000  S
  S11      1.0000 0.33828  0.32400  0.49716  Biso   1.000  S
  S12      1.0000 0.01428  0.17884  0.32400  Biso   1.000  S
  N1       1.0000 0.49021  0.31755  0.69140  Biso   1.000  N
  N2       1.0000 0.18161  0.69140  0.99105  Biso   1.000  N
  N3       1.0000 0.17266  0.99105  0.31755  Biso   1.000  N
  N4       1.0000 0.31839  0.99105  0.69140  Biso   1.000  N
  N5       1.0000 0.32734  0.31755  0.99105  Biso   1.000  N
  N6       1.0000 0.00979  0.69140  0.31755  Biso   1.000  N
  N7       1.0000 0.50979  0.68245  0.30860  Biso   1.000  N
  N8       1.0000 0.81839  0.30860  0.00895  Biso   1.000  N
  N9       1.0000 0.82734  0.00895  0.68245  Biso   1.000  N
  N10      1.0000 0.68161  0.00895  0.30860  Biso   1.000  N
  N11      1.0000 0.67266  0.68245  0.00895  Biso   1.000  N
  N12      1.0000 0.99021  0.30860  0.68245  Biso   1.000  N
  O1       1.0000 0.63916  0.57340  0.73407  Biso   1.000  O
  O2       1.0000 0.75008  0.59465  0.79522  Biso   1.000  O
  O3       1.0000 0.64431  0.44810  0.63106  Biso   1.000  O
  O4       1.0000 0.37323  0.73407  0.69253  Biso   1.000  O
  O5       1.0000 0.54530  0.79522  0.61013  Biso   1.000  O
  O6       1.0000 0.27537  0.63106  0.92084  Biso   1.000  O
  O7       1.0000 0.06576  0.69253  0.57340  Biso   1.000  O
  O8       1.0000 0.15543  0.61013  0.59465  Biso   1.000  O
  O9       1.0000 0.19621  0.92084  0.44810  Biso   1.000  O
  O10      1.0000 0.12677  0.69253  0.73407  Biso   1.000  O
  O11      1.0000 0.95470  0.61013  0.79522  Biso   1.000  O
  O12      1.0000 0.22463  0.92084  0.63106  Biso   1.000  O
  O13      1.0000 0.43424  0.57340  0.69253  Biso   1.000  O
  O14      1.0000 0.34457  0.59465  0.61013  Biso   1.000  O
  O15      1.0000 0.30379  0.44810  0.92084  Biso   1.000  O
  O16      1.0000 0.86084  0.73407  0.57340  Biso   1.000  O
  O17      1.0000 0.74992  0.79522  0.59465  Biso   1.000  O
  O18      1.0000 0.85569  0.63106  0.44810  Biso   1.000  O
  O19      1.0000 0.36084  0.42660  0.26593  Biso   1.000  O
  O20      1.0000 0.24992  0.40535  0.20478  Biso   1.000  O
  O21      1.0000 0.35569  0.55190  0.36894  Biso   1.000  O
  O22      1.0000 0.62677  0.26593  0.30747  Biso   1.000  O
  O23      1.0000 0.45470  0.20478  0.38987  Biso   1.000  O
  O24      1.0000 0.72463  0.36894  0.07916  Biso   1.000  O
  O25      1.0000 0.93424  0.30747  0.42660  Biso   1.000  O
  O26      1.0000 0.84457  0.38987  0.40535  Biso   1.000  O
  O27      1.0000 0.80379  0.07916  0.55190  Biso   1.000  O
  O28      1.0000 0.87323  0.30747  0.26593  Biso   1.000  O
  O29      1.0000 0.04530  0.38987  0.20478  Biso   1.000  O
  O30      1.0000 0.77537  0.07916  0.36894  Biso   1.000  O
  O31      1.0000 0.56576  0.42660  0.30747  Biso   1.000  O
  O32      1.0000 0.65543  0.40535  0.38987  Biso   1.000  O
  O33      1.0000 0.69621  0.55190  0.07916  Biso   1.000  O
  O34      1.0000 0.13916  0.26593  0.42660  Biso   1.000  O
  O35      1.0000 0.25008  0.20478  0.40535  Biso   1.000  O
  O36      1.0000 0.14431  0.36894  0.55190  Biso   1.000  O
