data_image0
_cell_length_a       5.1462
_cell_length_b       18.9798
_cell_length_c       18.9798
_cell_angle_alpha    88.9469
_cell_angle_beta     82.2084
_cell_angle_gamma    82.2083

_symmetry_space_group_name_H-M    P 1
_symmetry_int_tables_number       1

loop_
  _symmetry_equiv_pos_as_xyz
  'x, y, z'

loop_
  _atom_site_label
  _atom_site_occupancy
  _atom_site_fract_x
  _atom_site_fract_y
  _atom_site_fract_z
  _atom_site_thermal_displace_type
  _atom_site_B_iso_or_equiv
  _atom_site_type_symbol
  Zn1      1.0000 0.19842  0.94087  0.51214  Biso   1.000  Zn
  Zn2      1.0000 0.65142  0.05913  0.48786  Biso   1.000  Zn
  Zn3      1.0000 0.28945  0.51214  0.05912  Biso   1.000  Zn
  Zn4      1.0000 0.86071  0.48786  0.94088  Biso   1.000  Zn
  H1       1.0000 0.44630  0.81150  0.59590  Biso   1.000  H
  H2       1.0000 0.18080  0.05960  0.52740  Biso   1.000  H
  H3       1.0000 0.70630  0.99250  0.63250  Biso   1.000  H
  H4       1.0000 0.29950  0.04910  0.70670  Biso   1.000  H
  H5       1.0000 0.02730  0.05970  0.81490  Biso   1.000  H
  H6       1.0000 0.13440  0.98780  0.91180  Biso   1.000  H
  H7       1.0000 0.50400  0.90400  0.90080  Biso   1.000  H
  H8       1.0000 0.89370  0.83880  0.82580  Biso   1.000  H
  H9       1.0000 0.46050  0.70120  0.63740  Biso   1.000  H
  H10      1.0000 0.60750  0.59260  0.69060  Biso   1.000  H
  H11      1.0000 0.47750  0.68950  0.88250  Biso   1.000  H
  H12      1.0000 0.33850  0.79760  0.82700  Biso   1.000  H
  H13      1.0000 0.85370  0.18850  0.40410  Biso   1.000  H
  H14      1.0000 0.76780  0.94040  0.47260  Biso   1.000  H
  H15      1.0000 0.33130  0.00750  0.36750  Biso   1.000  H
  H16      1.0000 0.05530  0.95090  0.29330  Biso   1.000  H
  H17      1.0000 0.90190  0.94030  0.18510  Biso   1.000  H
  H18      1.0000 0.03400  0.01220  0.08820  Biso   1.000  H
  H19      1.0000 0.30880  0.09600  0.09920  Biso   1.000  H
  H20      1.0000 0.55830  0.16120  0.17420  Biso   1.000  H
  H21      1.0000 0.79910  0.29880  0.36260  Biso   1.000  H
  H22      1.0000 0.89070  0.40740  0.30940  Biso   1.000  H
  H23      1.0000 0.04950  0.31050  0.11750  Biso   1.000  H
  H24      1.0000 0.96310  0.20240  0.17300  Biso   1.000  H
  H25      1.0000 0.95780  0.59590  0.18850  Biso   1.000  H
  H26      1.0000 0.29180  0.52740  0.94040  Biso   1.000  H
  H27      1.0000 0.66120  0.63250  0.00750  Biso   1.000  H
  H28      1.0000 0.99380  0.70670  0.95090  Biso   1.000  H
  H29      1.0000 0.15780  0.81490  0.94030  Biso   1.000  H
  H30      1.0000 0.95380  0.91180  0.01220  Biso   1.000  H
  H31      1.0000 0.59520  0.90080  0.09600  Biso   1.000  H
  H32      1.0000 0.28050  0.82580  0.16120  Biso   1.000  H
  H33      1.0000 0.90210  0.63740  0.29880  Biso   1.000  H
  H34      1.0000 0.70190  0.69060  0.40740  Biso   1.000  H
  H35      1.0000 0.64000  0.88250  0.31050  Biso   1.000  H
  H36      1.0000 0.83450  0.82700  0.20240  Biso   1.000  H
  H37      1.0000 0.74220  0.40410  0.81150  Biso   1.000  H
  H38      1.0000 0.75960  0.47260  0.05960  Biso   1.000  H
  H39      1.0000 0.30120  0.36750  0.99250  Biso   1.000  H
  H40      1.0000 0.65140  0.29330  0.04910  Biso   1.000  H
  H41      1.0000 0.91300  0.18510  0.05970  Biso   1.000  H
  H42      1.0000 0.87780  0.08820  0.98780  Biso   1.000  H
  H43      1.0000 0.59200  0.09920  0.90400  Biso   1.000  H
  H44      1.0000 0.26750  0.17420  0.83880  Biso   1.000  H
  H45      1.0000 0.83830  0.36260  0.70120  Biso   1.000  H
  H46      1.0000 0.79990  0.30940  0.59260  Biso   1.000  H
  H47      1.0000 0.83300  0.11750  0.68950  Biso   1.000  H
  H48      1.0000 0.86390  0.17300  0.79760  Biso   1.000  H
  C1       1.0000 0.30106  0.83551  0.62637  Biso   1.000  C
  C2       1.0000 0.95642  0.90980  0.66516  Biso   1.000  C
  C3       1.0000 0.74217  0.96208  0.67138  Biso   1.000  C
  C4       1.0000 0.57783  0.96910  0.73704  Biso   1.000  C
  C5       1.0000 0.34379  0.01970  0.74552  Biso   1.000  C
  C6       1.0000 0.18255  0.02589  0.80961  Biso   1.000  C
  C7       1.0000 0.24628  0.98234  0.86750  Biso   1.000  C
  C8       1.0000 0.46487  0.93275  0.86111  Biso   1.000  C
  C9       1.0000 0.63644  0.92335  0.79517  Biso   1.000  C
  C10      1.0000 0.85486  0.86959  0.78749  Biso   1.000  C
  C11      1.0000 0.00903  0.86342  0.72272  Biso   1.000  C
  C12      1.0000 0.35259  0.75455  0.72867  Biso   1.000  C
  C13      1.0000 0.45560  0.69790  0.68750  Biso   1.000  C
  C14      1.0000 0.55510  0.63450  0.71830  Biso   1.000  C
  C15      1.0000 0.57667  0.63390  0.79316  Biso   1.000  C
  C16      1.0000 0.48032  0.69143  0.83233  Biso   1.000  C
  C17      1.0000 0.38304  0.75490  0.80022  Biso   1.000  C
  C18      1.0000 0.65920  0.56240  0.82580  Biso   1.000  C
  C19      1.0000 0.76294  0.16449  0.37363  Biso   1.000  C
  C20      1.0000 0.53138  0.09020  0.33484  Biso   1.000  C
  C21      1.0000 0.37563  0.03792  0.32862  Biso   1.000  C
  C22      1.0000 0.28397  0.03090  0.26296  Biso   1.000  C
  C23      1.0000 0.10901  0.98030  0.25448  Biso   1.000  C
  C24      1.0000 0.01805  0.97411  0.19039  Biso   1.000  C
  C25      1.0000 0.09612  0.01766  0.13250  Biso   1.000  C
  C26      1.0000 0.25873  0.06725  0.13889  Biso   1.000  C
  C27      1.0000 0.35496  0.07665  0.20483  Biso   1.000  C
  C28      1.0000 0.51194  0.13041  0.21251  Biso   1.000  C
  C29      1.0000 0.59517  0.13658  0.27728  Biso   1.000  C
  C30      1.0000 0.83581  0.24545  0.27133  Biso   1.000  C
  C31      1.0000 0.84100  0.30210  0.31250  Biso   1.000  C
  C32      1.0000 0.90790  0.36550  0.28170  Biso   1.000  C
  C33      1.0000 0.00373  0.36610  0.20684  Biso   1.000  C
  C34      1.0000 0.00408  0.30857  0.16767  Biso   1.000  C
  C35      1.0000 0.93816  0.24510  0.19978  Biso   1.000  C
  C36      1.0000 0.04740  0.43760  0.17420  Biso   1.000  C
  C37      1.0000 0.07257  0.62637  0.16449  Biso   1.000  C
  C38      1.0000 0.37842  0.66516  0.09020  Biso   1.000  C
  C39      1.0000 0.58645  0.67138  0.03792  Biso   1.000  C
  C40      1.0000 0.68513  0.73704  0.03090  Biso   1.000  C
  C41      1.0000 0.91069  0.74552  0.98030  Biso   1.000  C
  C42      1.0000 0.00784  0.80961  0.97411  Biso   1.000  C
  C43      1.0000 0.88622  0.86750  0.01766  Biso   1.000  C
  C44      1.0000 0.67402  0.86111  0.06725  Biso   1.000  C
  C45      1.0000 0.56839  0.79517  0.07665  Biso   1.000  C
  C46      1.0000 0.35765  0.78749  0.13041  Biso   1.000  C
  C47      1.0000 0.26825  0.72272  0.13658  Biso   1.000  C
  C48      1.0000 0.91874  0.72867  0.24545  Biso   1.000  C
  C49      1.0000 0.85690  0.68750  0.30210  Biso   1.000  C
  C50      1.0000 0.72660  0.71830  0.36550  Biso   1.000  C
  C51      1.0000 0.63017  0.79316  0.36610  Biso   1.000  C
  C52      1.0000 0.68735  0.83233  0.30857  Biso   1.000  C
  C53      1.0000 0.81674  0.80022  0.24510  Biso   1.000  C
  C54      1.0000 0.51500  0.82580  0.43760  Biso   1.000  C
  C55      1.0000 0.86343  0.37363  0.83551  Biso   1.000  C
  C56      1.0000 0.13378  0.33484  0.90980  Biso   1.000  C
  C57      1.0000 0.29575  0.32862  0.96208  Biso   1.000  C
  C58      1.0000 0.45307  0.26296  0.96910  Biso   1.000  C
  C59      1.0000 0.63651  0.25448  0.01970  Biso   1.000  C
  C60      1.0000 0.79156  0.19039  0.02589  Biso   1.000  C
  C61      1.0000 0.77138  0.13250  0.98234  Biso   1.000  C
  C62      1.0000 0.60238  0.13889  0.93275  Biso   1.000  C
  C63      1.0000 0.44021  0.20483  0.92335  Biso   1.000  C
  C64      1.0000 0.27555  0.21251  0.86959  Biso   1.000  C
  C65      1.0000 0.12755  0.27728  0.86342  Biso   1.000  C
  C66      1.0000 0.89286  0.27133  0.75455  Biso   1.000  C
  C67      1.0000 0.84650  0.31250  0.69790  Biso   1.000  C
  C68      1.0000 0.81040  0.28170  0.63450  Biso   1.000  C
  C69      1.0000 0.78943  0.20684  0.63390  Biso   1.000  C
  C70      1.0000 0.82825  0.16767  0.69143  Biso   1.000  C
  C71      1.0000 0.86206  0.19978  0.75490  Biso   1.000  C
  C72      1.0000 0.77840  0.17420  0.56240  Biso   1.000  C
  N1       1.0000 0.14779  0.89002  0.60660  Biso   1.000  N
  N2       1.0000 0.23297  0.81608  0.69558  Biso   1.000  N
  N3       1.0000 0.64441  0.10998  0.39340  Biso   1.000  N
  N4       1.0000 0.74463  0.18392  0.30442  Biso   1.000  N
  N5       1.0000 0.24561  0.60660  0.10998  Biso   1.000  N
  N6       1.0000 0.07145  0.69558  0.18392  Biso   1.000  N
  N7       1.0000 0.96219  0.39340  0.89002  Biso   1.000  N
  N8       1.0000 0.95095  0.30442  0.81608  Biso   1.000  N
  O1       1.0000 0.32362  0.02954  0.52882  Biso   1.000  O
  O2       1.0000 0.63515  0.55541  0.88769  Biso   1.000  O
  O3       1.0000 0.77496  0.51193  0.78275  Biso   1.000  O
  O4       1.0000 0.88198  0.97046  0.47118  Biso   1.000  O
  O5       1.0000 0.07825  0.44459  0.11231  Biso   1.000  O
  O6       1.0000 0.06964  0.48807  0.21725  Biso   1.000  O
  O7       1.0000 0.14756  0.52882  0.97046  Biso   1.000  O
  O8       1.0000 0.47716  0.88769  0.44459  Biso   1.000  O
  O9       1.0000 0.44229  0.78275  0.48807  Biso   1.000  O
  O10      1.0000 0.64684  0.47118  0.02954  Biso   1.000  O
  O11      1.0000 0.80944  0.11231  0.55541  Biso   1.000  O
  O12      1.0000 0.71311  0.21725  0.51193  Biso   1.000  O
