data_IFEPUG_clean
_audit_creation_date              2015-05-19
_audit_creation_method            'Materials Studio'
_symmetry_space_group_name_H-M    'P1'
_symmetry_Int_Tables_number       1
_symmetry_cell_setting            triclinic
loop_
_symmetry_equiv_pos_as_xyz
  x,y,z
_cell_length_a                    26.7720
_cell_length_b                    26.7720
_cell_length_c                    5.0662
_cell_angle_alpha                 90.0000
_cell_angle_beta                  90.0000
_cell_angle_gamma                 90.0000
loop_
_atom_site_label
_atom_site_type_symbol
_atom_site_fract_x
_atom_site_fract_y
_atom_site_fract_z
_atom_site_U_iso_or_equiv
_atom_site_adp_type
_atom_site_occupancy
Zn1    Zn    0.21308   0.22922   0.70829   0.01267  Uiso   1.00
H2     H     0.10660   0.20770   0.94190   0.01267  Uiso   1.00
H3     H     0.18010   0.31260   0.29050   0.01267  Uiso   1.00
H4     H     0.17240   0.37820   0.94370   0.01267  Uiso   1.00
H5     H     0.12420   0.43590   0.71220   0.01267  Uiso   1.00
H6     H     0.03930   0.44740   0.82430   0.01267  Uiso   1.00
H7     H     0.00240   0.40040   0.14750   0.01267  Uiso   1.00
H8     H     0.00670   0.33120   0.47910   0.01267  Uiso   1.00
H9     H     0.03770   0.22250   0.21420   0.01267  Uiso   1.00
H10    H     0.95950   0.20090   0.39430   0.01267  Uiso   1.00
H11    H     0.89240   0.23750   0.70760   0.01267  Uiso   1.00
H12    H     0.97040   0.25670   0.52380   0.01267  Uiso   1.00
C13    C     0.10368   0.23377   0.81570   0.01267  Uiso   1.00
C14    C     0.12192   0.28824   0.51460   0.01267  Uiso   1.00
C15    C     0.14553   0.31670   0.32620   0.01267  Uiso   1.00
C16    C     0.11667   0.35218   0.18760   0.01267  Uiso   1.00
C17    C     0.13800   0.38204   0.98590   0.01267  Uiso   1.00
C18    C     0.10957   0.41664   0.84940   0.01267  Uiso   1.00
C19    C     0.05856   0.42310   0.91560   0.01267  Uiso   1.00
C20    C     0.03663   0.39527   0.10700   0.01267  Uiso   1.00
C21    C     0.06437   0.35820   0.24870   0.01267  Uiso   1.00
C22    C     0.04126   0.32786   0.43940   0.01267  Uiso   1.00
C23    C     0.07051   0.29310   0.56640   0.01267  Uiso   1.00
C24    C     0.01195   0.24239   0.86060   0.01267  Uiso   1.00
C25    C     0.91952   0.21381   0.05060   0.01267  Uiso   1.00
C26    C     0.86981   0.19891   0.16440   0.01267  Uiso   1.00
C27    C     0.00850   0.22530   0.10930   0.01267  Uiso   1.00
C28    C     0.96220   0.21150   0.21590   0.01267  Uiso   1.00
C29    C     0.92200   0.23280   0.80770   0.01267  Uiso   1.00
C30    C     0.96810   0.24570   0.70170   0.01267  Uiso   1.00
N31    N     0.14148   0.25085   0.67860   0.01267  Uiso   1.00
N32    N     0.05991   0.25707   0.75920   0.01267  Uiso   1.00
O33    O     0.25080   0.28115   0.88610   0.01267  Uiso   1.00
O34    O     0.83166   0.21955   0.07390   0.01267  Uiso   1.00
O35    O     0.86850   0.18330   0.41060   0.01267  Uiso   1.00
H36    H     0.31850   0.75667   0.11390   0.01267  Uiso   1.00
Zn37   Zn    0.71308   0.72922   0.20829   0.01267  Uiso   1.00
H38    H     0.60660   0.70770   0.44190   0.01267  Uiso   1.00
H39    H     0.68010   0.81260   0.79050   0.01267  Uiso   1.00
H40    H     0.67240   0.87820   0.44370   0.01267  Uiso   1.00
H41    H     0.62420   0.93590   0.21220   0.01267  Uiso   1.00
H42    H     0.53930   0.94740   0.32430   0.01267  Uiso   1.00
H43    H     0.50240   0.90040   0.64750   0.01267  Uiso   1.00
H44    H     0.50670   0.83120   0.97910   0.01267  Uiso   1.00
H45    H     0.53770   0.72250   0.71420   0.01267  Uiso   1.00
H46    H     0.45950   0.70090   0.89430   0.01267  Uiso   1.00
H47    H     0.39240   0.73750   0.20760   0.01267  Uiso   1.00
H48    H     0.47040   0.75670   0.02380   0.01267  Uiso   1.00
C49    C     0.60368   0.73377   0.31570   0.01267  Uiso   1.00
C50    C     0.62192   0.78824   0.01460   0.01267  Uiso   1.00
C51    C     0.64553   0.81670   0.82620   0.01267  Uiso   1.00
C52    C     0.61667   0.85218   0.68760   0.01267  Uiso   1.00
C53    C     0.63800   0.88204   0.48590   0.01267  Uiso   1.00
C54    C     0.60957   0.91664   0.34940   0.01267  Uiso   1.00
C55    C     0.55856   0.92310   0.41560   0.01267  Uiso   1.00
C56    C     0.53663   0.89527   0.60700   0.01267  Uiso   1.00
C57    C     0.56437   0.85820   0.74870   0.01267  Uiso   1.00
C58    C     0.54126   0.82786   0.93940   0.01267  Uiso   1.00
C59    C     0.57051   0.79310   0.06640   0.01267  Uiso   1.00
C60    C     0.51195   0.74239   0.36060   0.01267  Uiso   1.00
C61    C     0.41952   0.71381   0.55060   0.01267  Uiso   1.00
C62    C     0.36981   0.69891   0.66440   0.01267  Uiso   1.00
C63    C     0.50850   0.72530   0.60930   0.01267  Uiso   1.00
C64    C     0.46220   0.71150   0.71590   0.01267  Uiso   1.00
C65    C     0.42200   0.73280   0.30770   0.01267  Uiso   1.00
C66    C     0.46810   0.74570   0.20170   0.01267  Uiso   1.00
N67    N     0.64148   0.75085   0.17860   0.01267  Uiso   1.00
N68    N     0.55991   0.75707   0.25920   0.01267  Uiso   1.00
O69    O     0.75080   0.78115   0.38610   0.01267  Uiso   1.00
O70    O     0.33166   0.71955   0.57390   0.01267  Uiso   1.00
O71    O     0.36850   0.68330   0.91060   0.01267  Uiso   1.00
H72    H     0.81850   0.25667   0.61390   0.01267  Uiso   1.00
Zn73   Zn    0.78692   0.77078   0.70829   0.01267  Uiso   1.00
H74    H     0.89340   0.79230   0.94190   0.01267  Uiso   1.00
H75    H     0.81990   0.68740   0.29050   0.01267  Uiso   1.00
H76    H     0.82760   0.62180   0.94370   0.01267  Uiso   1.00
H77    H     0.87580   0.56410   0.71220   0.01267  Uiso   1.00
H78    H     0.96070   0.55260   0.82430   0.01267  Uiso   1.00
H79    H     0.99760   0.59960   0.14750   0.01267  Uiso   1.00
H80    H     0.99330   0.66880   0.47910   0.01267  Uiso   1.00
H81    H     0.96230   0.77750   0.21420   0.01267  Uiso   1.00
H82    H     0.04050   0.79910   0.39430   0.01267  Uiso   1.00
H83    H     0.10760   0.76250   0.70760   0.01267  Uiso   1.00
H84    H     0.02960   0.74330   0.52380   0.01267  Uiso   1.00
C85    C     0.89632   0.76623   0.81570   0.01267  Uiso   1.00
C86    C     0.87808   0.71176   0.51460   0.01267  Uiso   1.00
C87    C     0.85447   0.68330   0.32620   0.01267  Uiso   1.00
C88    C     0.88333   0.64782   0.18760   0.01267  Uiso   1.00
C89    C     0.86200   0.61796   0.98590   0.01267  Uiso   1.00
C90    C     0.89043   0.58336   0.84940   0.01267  Uiso   1.00
C91    C     0.94144   0.57690   0.91560   0.01267  Uiso   1.00
C92    C     0.96337   0.60473   0.10700   0.01267  Uiso   1.00
C93    C     0.93563   0.64180   0.24870   0.01267  Uiso   1.00
C94    C     0.95874   0.67214   0.43940   0.01267  Uiso   1.00
C95    C     0.92949   0.70690   0.56640   0.01267  Uiso   1.00
C96    C     0.98805   0.75761   0.86060   0.01267  Uiso   1.00
C97    C     0.08048   0.78619   0.05060   0.01267  Uiso   1.00
C98    C     0.13019   0.80109   0.16440   0.01267  Uiso   1.00
C99    C     0.99150   0.77470   0.10930   0.01267  Uiso   1.00
C100   C     0.03780   0.78850   0.21590   0.01267  Uiso   1.00
C101   C     0.07800   0.76720   0.80770   0.01267  Uiso   1.00
C102   C     0.03190   0.75430   0.70170   0.01267  Uiso   1.00
N103   N     0.85852   0.74915   0.67860   0.01267  Uiso   1.00
N104   N     0.94009   0.74293   0.75920   0.01267  Uiso   1.00
O105   O     0.74920   0.71885   0.88610   0.01267  Uiso   1.00
O106   O     0.16834   0.78045   0.07390   0.01267  Uiso   1.00
O107   O     0.13150   0.81670   0.41060   0.01267  Uiso   1.00
H108   H     0.68150   0.24333   0.11390   0.01267  Uiso   1.00
Zn109  Zn    0.28692   0.27078   0.20829   0.01267  Uiso   1.00
H110   H     0.39340   0.29230   0.44190   0.01267  Uiso   1.00
H111   H     0.31990   0.18740   0.79050   0.01267  Uiso   1.00
H112   H     0.32760   0.12180   0.44370   0.01267  Uiso   1.00
H113   H     0.37580   0.06410   0.21220   0.01267  Uiso   1.00
H114   H     0.46070   0.05260   0.32430   0.01267  Uiso   1.00
H115   H     0.49760   0.09960   0.64750   0.01267  Uiso   1.00
H116   H     0.49330   0.16880   0.97910   0.01267  Uiso   1.00
H117   H     0.46230   0.27750   0.71420   0.01267  Uiso   1.00
H118   H     0.54050   0.29910   0.89430   0.01267  Uiso   1.00
H119   H     0.60760   0.26250   0.20760   0.01267  Uiso   1.00
H120   H     0.52960   0.24330   0.02380   0.01267  Uiso   1.00
C121   C     0.39632   0.26623   0.31570   0.01267  Uiso   1.00
C122   C     0.37808   0.21176   0.01460   0.01267  Uiso   1.00
C123   C     0.35447   0.18330   0.82620   0.01267  Uiso   1.00
C124   C     0.38333   0.14782   0.68760   0.01267  Uiso   1.00
C125   C     0.36200   0.11796   0.48590   0.01267  Uiso   1.00
C126   C     0.39043   0.08336   0.34940   0.01267  Uiso   1.00
C127   C     0.44144   0.07690   0.41560   0.01267  Uiso   1.00
C128   C     0.46337   0.10473   0.60700   0.01267  Uiso   1.00
C129   C     0.43563   0.14180   0.74870   0.01267  Uiso   1.00
C130   C     0.45874   0.17214   0.93940   0.01267  Uiso   1.00
C131   C     0.42949   0.20690   0.06640   0.01267  Uiso   1.00
C132   C     0.48805   0.25761   0.36060   0.01267  Uiso   1.00
C133   C     0.58048   0.28619   0.55060   0.01267  Uiso   1.00
C134   C     0.63019   0.30109   0.66440   0.01267  Uiso   1.00
C135   C     0.49150   0.27470   0.60930   0.01267  Uiso   1.00
C136   C     0.53780   0.28850   0.71590   0.01267  Uiso   1.00
C137   C     0.57800   0.26720   0.30770   0.01267  Uiso   1.00
C138   C     0.53190   0.25430   0.20170   0.01267  Uiso   1.00
N139   N     0.35852   0.24915   0.17860   0.01267  Uiso   1.00
N140   N     0.44009   0.24293   0.25920   0.01267  Uiso   1.00
O141   O     0.24920   0.21885   0.38610   0.01267  Uiso   1.00
O142   O     0.66834   0.28045   0.57390   0.01267  Uiso   1.00
O143   O     0.63150   0.31670   0.91060   0.01267  Uiso   1.00
H144   H     0.18150   0.74333   0.61390   0.01267  Uiso   1.00
Zn145  Zn    0.22922   0.78692   0.29171   0.01267  Uiso   1.00
H146   H     0.20770   0.89340   0.05810   0.01267  Uiso   1.00
H147   H     0.31260   0.81990   0.70950   0.01267  Uiso   1.00
H148   H     0.37820   0.82760   0.05630   0.01267  Uiso   1.00
H149   H     0.43590   0.87580   0.28780   0.01267  Uiso   1.00
H150   H     0.44740   0.96070   0.17570   0.01267  Uiso   1.00
H151   H     0.40040   0.99760   0.85250   0.01267  Uiso   1.00
H152   H     0.33120   0.99330   0.52090   0.01267  Uiso   1.00
H153   H     0.22250   0.96230   0.78580   0.01267  Uiso   1.00
H154   H     0.20090   0.04050   0.60570   0.01267  Uiso   1.00
H155   H     0.23750   0.10760   0.29240   0.01267  Uiso   1.00
H156   H     0.25670   0.02960   0.47620   0.01267  Uiso   1.00
C157   C     0.23377   0.89632   0.18430   0.01267  Uiso   1.00
C158   C     0.28824   0.87808   0.48540   0.01267  Uiso   1.00
C159   C     0.31670   0.85447   0.67380   0.01267  Uiso   1.00
C160   C     0.35218   0.88333   0.81240   0.01267  Uiso   1.00
C161   C     0.38204   0.86200   0.01410   0.01267  Uiso   1.00
C162   C     0.41664   0.89043   0.15060   0.01267  Uiso   1.00
C163   C     0.42310   0.94144   0.08440   0.01267  Uiso   1.00
C164   C     0.39527   0.96337   0.89300   0.01267  Uiso   1.00
C165   C     0.35820   0.93563   0.75130   0.01267  Uiso   1.00
C166   C     0.32786   0.95874   0.56060   0.01267  Uiso   1.00
C167   C     0.29310   0.92949   0.43360   0.01267  Uiso   1.00
C168   C     0.24239   0.98805   0.13940   0.01267  Uiso   1.00
C169   C     0.21381   0.08048   0.94940   0.01267  Uiso   1.00
C170   C     0.19891   0.13019   0.83560   0.01267  Uiso   1.00
C171   C     0.22530   0.99150   0.89070   0.01267  Uiso   1.00
C172   C     0.21150   0.03780   0.78410   0.01267  Uiso   1.00
C173   C     0.23280   0.07800   0.19230   0.01267  Uiso   1.00
C174   C     0.24570   0.03190   0.29830   0.01267  Uiso   1.00
N175   N     0.25085   0.85852   0.32140   0.01267  Uiso   1.00
N176   N     0.25707   0.94009   0.24080   0.01267  Uiso   1.00
O177   O     0.28115   0.74920   0.11390   0.01267  Uiso   1.00
O178   O     0.21955   0.16834   0.92610   0.01267  Uiso   1.00
O179   O     0.18330   0.13150   0.58940   0.01267  Uiso   1.00
H180   H     0.75667   0.68150   0.88610   0.01267  Uiso   1.00
Zn181  Zn    0.72922   0.28692   0.79171   0.01267  Uiso   1.00
H182   H     0.70770   0.39340   0.55810   0.01267  Uiso   1.00
H183   H     0.81260   0.31990   0.20950   0.01267  Uiso   1.00
H184   H     0.87820   0.32760   0.55630   0.01267  Uiso   1.00
H185   H     0.93590   0.37580   0.78780   0.01267  Uiso   1.00
H186   H     0.94740   0.46070   0.67570   0.01267  Uiso   1.00
H187   H     0.90040   0.49760   0.35250   0.01267  Uiso   1.00
H188   H     0.83120   0.49330   0.02090   0.01267  Uiso   1.00
H189   H     0.72250   0.46230   0.28580   0.01267  Uiso   1.00
H190   H     0.70090   0.54050   0.10570   0.01267  Uiso   1.00
H191   H     0.73750   0.60760   0.79240   0.01267  Uiso   1.00
H192   H     0.75670   0.52960   0.97620   0.01267  Uiso   1.00
C193   C     0.73377   0.39632   0.68430   0.01267  Uiso   1.00
C194   C     0.78824   0.37808   0.98540   0.01267  Uiso   1.00
C195   C     0.81670   0.35447   0.17380   0.01267  Uiso   1.00
C196   C     0.85218   0.38333   0.31240   0.01267  Uiso   1.00
C197   C     0.88204   0.36200   0.51410   0.01267  Uiso   1.00
C198   C     0.91664   0.39043   0.65060   0.01267  Uiso   1.00
C199   C     0.92310   0.44144   0.58440   0.01267  Uiso   1.00
C200   C     0.89527   0.46337   0.39300   0.01267  Uiso   1.00
C201   C     0.85820   0.43563   0.25130   0.01267  Uiso   1.00
C202   C     0.82786   0.45874   0.06060   0.01267  Uiso   1.00
C203   C     0.79310   0.42949   0.93360   0.01267  Uiso   1.00
C204   C     0.74239   0.48805   0.63940   0.01267  Uiso   1.00
C205   C     0.71381   0.58048   0.44940   0.01267  Uiso   1.00
C206   C     0.69891   0.63019   0.33560   0.01267  Uiso   1.00
C207   C     0.72530   0.49150   0.39070   0.01267  Uiso   1.00
C208   C     0.71150   0.53780   0.28410   0.01267  Uiso   1.00
C209   C     0.73280   0.57800   0.69230   0.01267  Uiso   1.00
C210   C     0.74570   0.53190   0.79830   0.01267  Uiso   1.00
N211   N     0.75085   0.35852   0.82140   0.01267  Uiso   1.00
N212   N     0.75707   0.44009   0.74080   0.01267  Uiso   1.00
O213   O     0.78115   0.24920   0.61390   0.01267  Uiso   1.00
O214   O     0.71955   0.66834   0.42610   0.01267  Uiso   1.00
O215   O     0.68330   0.63150   0.08940   0.01267  Uiso   1.00
H216   H     0.25667   0.18150   0.38610   0.01267  Uiso   1.00
Zn217  Zn    0.77078   0.21308   0.29171   0.01267  Uiso   1.00
H218   H     0.79230   0.10660   0.05810   0.01267  Uiso   1.00
H219   H     0.68740   0.18010   0.70950   0.01267  Uiso   1.00
H220   H     0.62180   0.17240   0.05630   0.01267  Uiso   1.00
H221   H     0.56410   0.12420   0.28780   0.01267  Uiso   1.00
H222   H     0.55260   0.03930   0.17570   0.01267  Uiso   1.00
H223   H     0.59960   0.00240   0.85250   0.01267  Uiso   1.00
H224   H     0.66880   0.00670   0.52090   0.01267  Uiso   1.00
H225   H     0.77750   0.03770   0.78580   0.01267  Uiso   1.00
H226   H     0.79910   0.95950   0.60570   0.01267  Uiso   1.00
H227   H     0.76250   0.89240   0.29240   0.01267  Uiso   1.00
H228   H     0.74330   0.97040   0.47620   0.01267  Uiso   1.00
C229   C     0.76623   0.10368   0.18430   0.01267  Uiso   1.00
C230   C     0.71176   0.12192   0.48540   0.01267  Uiso   1.00
C231   C     0.68330   0.14553   0.67380   0.01267  Uiso   1.00
C232   C     0.64782   0.11667   0.81240   0.01267  Uiso   1.00
C233   C     0.61796   0.13800   0.01410   0.01267  Uiso   1.00
C234   C     0.58336   0.10957   0.15060   0.01267  Uiso   1.00
C235   C     0.57690   0.05856   0.08440   0.01267  Uiso   1.00
C236   C     0.60473   0.03663   0.89300   0.01267  Uiso   1.00
C237   C     0.64180   0.06437   0.75130   0.01267  Uiso   1.00
C238   C     0.67214   0.04126   0.56060   0.01267  Uiso   1.00
C239   C     0.70690   0.07051   0.43360   0.01267  Uiso   1.00
C240   C     0.75761   0.01195   0.13940   0.01267  Uiso   1.00
C241   C     0.78619   0.91952   0.94940   0.01267  Uiso   1.00
C242   C     0.80109   0.86981   0.83560   0.01267  Uiso   1.00
C243   C     0.77470   0.00850   0.89070   0.01267  Uiso   1.00
C244   C     0.78850   0.96220   0.78410   0.01267  Uiso   1.00
C245   C     0.76720   0.92200   0.19230   0.01267  Uiso   1.00
C246   C     0.75430   0.96810   0.29830   0.01267  Uiso   1.00
N247   N     0.74915   0.14148   0.32140   0.01267  Uiso   1.00
N248   N     0.74293   0.05991   0.24080   0.01267  Uiso   1.00
O249   O     0.71885   0.25080   0.11390   0.01267  Uiso   1.00
O250   O     0.78045   0.83166   0.92610   0.01267  Uiso   1.00
O251   O     0.81670   0.86850   0.58940   0.01267  Uiso   1.00
H252   H     0.24333   0.31850   0.88610   0.01267  Uiso   1.00
Zn253  Zn    0.27078   0.71308   0.79171   0.01267  Uiso   1.00
H254   H     0.29230   0.60660   0.55810   0.01267  Uiso   1.00
H255   H     0.18740   0.68010   0.20950   0.01267  Uiso   1.00
H256   H     0.12180   0.67240   0.55630   0.01267  Uiso   1.00
H257   H     0.06410   0.62420   0.78780   0.01267  Uiso   1.00
H258   H     0.05260   0.53930   0.67570   0.01267  Uiso   1.00
H259   H     0.09960   0.50240   0.35250   0.01267  Uiso   1.00
H260   H     0.16880   0.50670   0.02090   0.01267  Uiso   1.00
H261   H     0.27750   0.53770   0.28580   0.01267  Uiso   1.00
H262   H     0.29910   0.45950   0.10570   0.01267  Uiso   1.00
H263   H     0.26250   0.39240   0.79240   0.01267  Uiso   1.00
H264   H     0.24330   0.47040   0.97620   0.01267  Uiso   1.00
C265   C     0.26623   0.60368   0.68430   0.01267  Uiso   1.00
C266   C     0.21176   0.62192   0.98540   0.01267  Uiso   1.00
C267   C     0.18330   0.64553   0.17380   0.01267  Uiso   1.00
C268   C     0.14782   0.61667   0.31240   0.01267  Uiso   1.00
C269   C     0.11796   0.63800   0.51410   0.01267  Uiso   1.00
C270   C     0.08336   0.60957   0.65060   0.01267  Uiso   1.00
C271   C     0.07690   0.55856   0.58440   0.01267  Uiso   1.00
C272   C     0.10473   0.53663   0.39300   0.01267  Uiso   1.00
C273   C     0.14180   0.56437   0.25130   0.01267  Uiso   1.00
C274   C     0.17214   0.54126   0.06060   0.01267  Uiso   1.00
C275   C     0.20690   0.57051   0.93360   0.01267  Uiso   1.00
C276   C     0.25761   0.51195   0.63940   0.01267  Uiso   1.00
C277   C     0.28619   0.41952   0.44940   0.01267  Uiso   1.00
C278   C     0.30109   0.36981   0.33560   0.01267  Uiso   1.00
C279   C     0.27470   0.50850   0.39070   0.01267  Uiso   1.00
C280   C     0.28850   0.46220   0.28410   0.01267  Uiso   1.00
C281   C     0.26720   0.42200   0.69230   0.01267  Uiso   1.00
C282   C     0.25430   0.46810   0.79830   0.01267  Uiso   1.00
N283   N     0.24915   0.64148   0.82140   0.01267  Uiso   1.00
N284   N     0.24293   0.55991   0.74080   0.01267  Uiso   1.00
O285   O     0.21885   0.75080   0.61390   0.01267  Uiso   1.00
O286   O     0.28045   0.33166   0.42610   0.01267  Uiso   1.00
O287   O     0.31670   0.36850   0.08940   0.01267  Uiso   1.00
H288   H     0.74333   0.81850   0.38610   0.01267  Uiso   1.00
