data_image0
_cell_length_a       12.9653
_cell_length_b       13.906
_cell_length_c       14.62
_cell_angle_alpha    95.9483
_cell_angle_beta     90
_cell_angle_gamma    117.786

_symmetry_space_group_name_H-M    P 1
_symmetry_int_tables_number       1

loop_
  _symmetry_equiv_pos_as_xyz
  'x, y, z'

loop_
  _atom_site_label
  _atom_site_occupancy
  _atom_site_fract_x
  _atom_site_fract_y
  _atom_site_fract_z
  _atom_site_thermal_displace_type
  _atom_site_B_iso_or_equiv
  _atom_site_type_symbol
  Tb1      1.0000 0.46749  0.34548  0.46790  Biso   1.000  Tb
  Tb2      1.0000 0.12201  0.65452  0.03210  Biso   1.000  Tb
  Tb3      1.0000 0.53251  0.65452  0.53210  Biso   1.000  Tb
  Tb4      1.0000 0.87799  0.34548  0.96790  Biso   1.000  Tb
  H1       1.0000 0.33060  0.26280  0.72830  Biso   1.000  H
  H2       1.0000 0.31830  0.54360  0.79010  Biso   1.000  H
  H3       1.0000 0.13380  0.28660  0.93150  Biso   1.000  H
  H4       1.0000 0.33750  0.00120  0.89120  Biso   1.000  H
  H5       1.0000 0.04000  0.09200  0.88470  Biso   1.000  H
  H6       1.0000 0.00830  0.92620  0.93510  Biso   1.000  H
  H7       1.0000 0.15860  0.06600  0.18980  Biso   1.000  H
  H8       1.0000 0.24310  0.08420  0.10910  Biso   1.000  H
  H9       1.0000 0.28850  0.09260  0.21050  Biso   1.000  H
  H10      1.0000 0.27510  0.35120  0.12610  Biso   1.000  H
  H11      1.0000 0.23460  0.24720  0.05380  Biso   1.000  H
  H12      1.0000 0.14810  0.25460  0.12560  Biso   1.000  H
  H13      1.0000 0.32600  0.34000  0.24900  Biso   1.000  H
  H14      1.0000 0.52300  0.19280  0.40920  Biso   1.000  H
  H15      1.0000 0.06780  0.73720  0.77170  Biso   1.000  H
  H16      1.0000 0.77470  0.45640  0.70990  Biso   1.000  H
  H17      1.0000 0.84720  0.71340  0.56850  Biso   1.000  H
  H18      1.0000 0.33630  0.99880  0.60880  Biso   1.000  H
  H19      1.0000 0.94800  0.90800  0.61530  Biso   1.000  H
  H20      1.0000 0.08210  0.07380  0.56490  Biso   1.000  H
  H21      1.0000 0.09260  0.93400  0.31020  Biso   1.000  H
  H22      1.0000 0.15890  0.91580  0.39090  Biso   1.000  H
  H23      1.0000 0.19590  0.90740  0.28950  Biso   1.000  H
  H24      1.0000 0.92390  0.64880  0.37390  Biso   1.000  H
  H25      1.0000 0.98740  0.75280  0.44620  Biso   1.000  H
  H26      1.0000 0.89350  0.74540  0.37440  Biso   1.000  H
  H27      1.0000 0.98600  0.66000  0.25100  Biso   1.000  H
  H28      1.0000 0.33020  0.80720  0.09080  Biso   1.000  H
  H29      1.0000 0.66940  0.73720  0.27170  Biso   1.000  H
  H30      1.0000 0.68170  0.45640  0.20990  Biso   1.000  H
  H31      1.0000 0.86620  0.71340  0.06850  Biso   1.000  H
  H32      1.0000 0.66250  0.99880  0.10880  Biso   1.000  H
  H33      1.0000 0.96000  0.90800  0.11530  Biso   1.000  H
  H34      1.0000 0.99170  0.07380  0.06490  Biso   1.000  H
  H35      1.0000 0.84140  0.93400  0.81020  Biso   1.000  H
  H36      1.0000 0.75690  0.91580  0.89090  Biso   1.000  H
  H37      1.0000 0.71150  0.90740  0.78950  Biso   1.000  H
  H38      1.0000 0.72490  0.64880  0.87390  Biso   1.000  H
  H39      1.0000 0.76540  0.75280  0.94620  Biso   1.000  H
  H40      1.0000 0.85190  0.74540  0.87440  Biso   1.000  H
  H41      1.0000 0.67400  0.66000  0.75100  Biso   1.000  H
  H42      1.0000 0.47700  0.80720  0.59080  Biso   1.000  H
  H43      1.0000 0.93220  0.26280  0.22830  Biso   1.000  H
  H44      1.0000 0.22530  0.54360  0.29010  Biso   1.000  H
  H45      1.0000 0.15280  0.28660  0.43150  Biso   1.000  H
  H46      1.0000 0.66370  0.00120  0.39120  Biso   1.000  H
  H47      1.0000 0.05200  0.09200  0.38470  Biso   1.000  H
  H48      1.0000 0.91790  0.92620  0.43510  Biso   1.000  H
  H49      1.0000 0.90740  0.06600  0.68980  Biso   1.000  H
  H50      1.0000 0.84110  0.08420  0.60910  Biso   1.000  H
  H51      1.0000 0.80410  0.09260  0.71050  Biso   1.000  H
  H52      1.0000 0.07610  0.35120  0.62610  Biso   1.000  H
  H53      1.0000 0.01260  0.24720  0.55380  Biso   1.000  H
  H54      1.0000 0.10650  0.25460  0.62560  Biso   1.000  H
  H55      1.0000 0.01400  0.34000  0.74900  Biso   1.000  H
  H56      1.0000 0.66980  0.19280  0.90920  Biso   1.000  H
  C1       1.0000 0.23290  0.25680  0.83680  Biso   1.000  C
  C2       1.0000 0.30240  0.30340  0.76470  Biso   1.000  C
  C3       1.0000 0.33080  0.40760  0.74530  Biso   1.000  C
  C4       1.0000 0.29390  0.47140  0.80000  Biso   1.000  C
  C5       1.0000 0.21910  0.42600  0.87090  Biso   1.000  C
  C6       1.0000 0.18670  0.31800  0.88700  Biso   1.000  C
  C7       1.0000 0.21030  0.14780  0.86090  Biso   1.000  C
  C8       1.0000 0.29330  0.11480  0.86080  Biso   1.000  C
  C9       1.0000 0.27650  0.01880  0.89110  Biso   1.000  C
  C10      1.0000 0.10120  0.07480  0.88710  Biso   1.000  C
  C11      1.0000 0.40460  0.45160  0.66450  Biso   1.000  C
  C12      1.0000 0.15190  0.84680  0.96070  Biso   1.000  C
  C13      1.0000 0.17130  0.94920  0.92110  Biso   1.000  C
  C14      1.0000 0.08180  0.97460  0.91760  Biso   1.000  C
  C15      1.0000 0.17760  0.49340  0.92890  Biso   1.000  C
  C16      1.0000 0.23760  0.10640  0.17250  Biso   1.000  C
  C17      1.0000 0.22810  0.27320  0.11590  Biso   1.000  C
  C18      1.0000 0.33590  0.28420  0.26080  Biso   1.000  C
  C19      1.0000 0.97610  0.74320  0.66320  Biso   1.000  C
  C20      1.0000 0.99900  0.69660  0.73530  Biso   1.000  C
  C21      1.0000 0.92320  0.59240  0.75470  Biso   1.000  C
  C22      1.0000 0.82250  0.52860  0.70000  Biso   1.000  C
  C23      1.0000 0.79310  0.57400  0.62910  Biso   1.000  C
  C24      1.0000 0.86870  0.68200  0.61300  Biso   1.000  C
  C25      1.0000 0.06250  0.85220  0.63910  Biso   1.000  C
  C26      1.0000 0.17850  0.88520  0.63920  Biso   1.000  C
  C27      1.0000 0.25770  0.98120  0.60890  Biso   1.000  C
  C28      1.0000 0.02640  0.92520  0.61290  Biso   1.000  C
  C29      1.0000 0.95300  0.54840  0.83550  Biso   1.000  C
  C30      1.0000 0.30510  0.15320  0.53930  Biso   1.000  C
  C31      1.0000 0.22210  0.05080  0.57890  Biso   1.000  C
  C32      1.0000 0.10720  0.02540  0.58240  Biso   1.000  C
  C33      1.0000 0.68420  0.50660  0.57110  Biso   1.000  C
  C34      1.0000 0.13120  0.89360  0.32750  Biso   1.000  C
  C35      1.0000 0.95490  0.72680  0.38410  Biso   1.000  C
  C36      1.0000 0.05170  0.71580  0.23920  Biso   1.000  C
  C37      1.0000 0.76710  0.74320  0.16320  Biso   1.000  C
  C38      1.0000 0.69760  0.69660  0.23530  Biso   1.000  C
  C39      1.0000 0.66920  0.59240  0.25470  Biso   1.000  C
  C40      1.0000 0.70610  0.52860  0.20000  Biso   1.000  C
  C41      1.0000 0.78090  0.57400  0.12910  Biso   1.000  C
  C42      1.0000 0.81330  0.68200  0.11300  Biso   1.000  C
  C43      1.0000 0.78970  0.85220  0.13910  Biso   1.000  C
  C44      1.0000 0.70670  0.88520  0.13920  Biso   1.000  C
  C45      1.0000 0.72350  0.98120  0.10890  Biso   1.000  C
  C46      1.0000 0.89880  0.92520  0.11290  Biso   1.000  C
  C47      1.0000 0.59540  0.54840  0.33550  Biso   1.000  C
  C48      1.0000 0.84810  0.15320  0.03930  Biso   1.000  C
  C49      1.0000 0.82870  0.05080  0.07890  Biso   1.000  C
  C50      1.0000 0.91820  0.02540  0.08240  Biso   1.000  C
  C51      1.0000 0.82240  0.50660  0.07110  Biso   1.000  C
  C52      1.0000 0.76240  0.89360  0.82750  Biso   1.000  C
  C53      1.0000 0.77190  0.72680  0.88410  Biso   1.000  C
  C54      1.0000 0.66410  0.71580  0.73920  Biso   1.000  C
  C55      1.0000 0.02390  0.25680  0.33680  Biso   1.000  C
  C56      1.0000 0.00100  0.30340  0.26470  Biso   1.000  C
  C57      1.0000 0.07680  0.40760  0.24530  Biso   1.000  C
  C58      1.0000 0.17750  0.47140  0.30000  Biso   1.000  C
  C59      1.0000 0.20690  0.42600  0.37090  Biso   1.000  C
  C60      1.0000 0.13130  0.31800  0.38700  Biso   1.000  C
  C61      1.0000 0.93750  0.14780  0.36090  Biso   1.000  C
  C62      1.0000 0.82150  0.11480  0.36080  Biso   1.000  C
  C63      1.0000 0.74230  0.01880  0.39110  Biso   1.000  C
  C64      1.0000 0.97360  0.07480  0.38710  Biso   1.000  C
  C65      1.0000 0.04700  0.45160  0.16450  Biso   1.000  C
  C66      1.0000 0.69490  0.84680  0.46070  Biso   1.000  C
  C67      1.0000 0.77790  0.94920  0.42110  Biso   1.000  C
  C68      1.0000 0.89280  0.97460  0.41760  Biso   1.000  C
  C69      1.0000 0.31580  0.49340  0.42890  Biso   1.000  C
  C70      1.0000 0.86880  0.10640  0.67250  Biso   1.000  C
  C71      1.0000 0.04510  0.27320  0.61590  Biso   1.000  C
  C72      1.0000 0.94830  0.28420  0.76080  Biso   1.000  C
  N1       1.0000 0.27100  0.21900  0.18440  Biso   1.000  N
  N2       1.0000 0.05200  0.78100  0.31560  Biso   1.000  N
  N3       1.0000 0.72900  0.78100  0.81560  Biso   1.000  N
  N4       1.0000 0.94800  0.21900  0.68440  Biso   1.000  N
  O1       1.0000 0.42750  0.54540  0.64810  Biso   1.000  O
  O2       1.0000 0.43700  0.38860  0.62100  Biso   1.000  O
  O3       1.0000 0.24430  0.59520  0.94500  Biso   1.000  O
  O4       1.0000 0.07820  0.44900  0.96060  Biso   1.000  O
  O5       1.0000 0.23420  0.82280  0.96280  Biso   1.000  O
  O6       1.0000 0.05910  0.79140  0.99420  Biso   1.000  O
  O7       1.0000 0.35590  0.25580  0.32850  Biso   1.000  O
  O8       1.0000 0.56740  0.25360  0.38980  Biso   1.000  O
  O9       1.0000 0.88210  0.45460  0.85190  Biso   1.000  O
  O10      1.0000 0.04840  0.61140  0.87900  Biso   1.000  O
  O11      1.0000 0.64910  0.40480  0.55500  Biso   1.000  O
  O12      1.0000 0.62920  0.55100  0.53940  Biso   1.000  O
  O13      1.0000 0.41140  0.17720  0.53720  Biso   1.000  O
  O14      1.0000 0.26770  0.20860  0.50580  Biso   1.000  O
  O15      1.0000 0.10010  0.74420  0.17150  Biso   1.000  O
  O16      1.0000 0.31380  0.74640  0.11020  Biso   1.000  O
  O17      1.0000 0.57250  0.45460  0.35190  Biso   1.000  O
  O18      1.0000 0.56300  0.61140  0.37900  Biso   1.000  O
  O19      1.0000 0.75570  0.40480  0.05500  Biso   1.000  O
  O20      1.0000 0.92180  0.55100  0.03940  Biso   1.000  O
  O21      1.0000 0.76580  0.17720  0.03720  Biso   1.000  O
  O22      1.0000 0.94090  0.20860  0.00580  Biso   1.000  O
  O23      1.0000 0.64410  0.74420  0.67150  Biso   1.000  O
  O24      1.0000 0.43260  0.74640  0.61020  Biso   1.000  O
  O25      1.0000 0.11790  0.54540  0.14810  Biso   1.000  O
  O26      1.0000 0.95160  0.38860  0.12100  Biso   1.000  O
  O27      1.0000 0.35090  0.59520  0.44500  Biso   1.000  O
  O28      1.0000 0.37080  0.44900  0.46060  Biso   1.000  O
  O29      1.0000 0.58860  0.82280  0.46280  Biso   1.000  O
  O30      1.0000 0.73230  0.79140  0.49420  Biso   1.000  O
  O31      1.0000 0.89990  0.25580  0.82850  Biso   1.000  O
  O32      1.0000 0.68620  0.25360  0.88980  Biso   1.000  O
  F1       1.0000 0.39670  0.17580  0.82760  Biso   1.000  F
  F2       1.0000 0.22090  0.82420  0.67240  Biso   1.000  F
  F3       1.0000 0.60330  0.82420  0.17240  Biso   1.000  F
  F4       1.0000 0.77910  0.17580  0.32760  Biso   1.000  F
