data_image0
_cell_length_a       9.7055
_cell_length_b       17.8498
_cell_length_c       14.7845
_cell_angle_alpha    90
_cell_angle_beta     94.7485
_cell_angle_gamma    90

_symmetry_space_group_name_H-M    "P 1"
_symmetry_int_tables_number       1

loop_
  _symmetry_equiv_pos_as_xyz
  'x, y, z'

loop_
  _atom_site_label
  _atom_site_occupancy
  _atom_site_fract_x
  _atom_site_fract_y
  _atom_site_fract_z
  _atom_site_thermal_displace_type
  _atom_site_B_iso_or_equiv
  _atom_site_type_symbol
  Cd1      1.0000 0.86833  0.58159  0.51926  Biso   1.000  Cd
  O1       1.0000 0.76190  0.54214  0.38438  Biso   1.000  O
  O2       1.0000 0.68380  0.66640  0.53060  Biso   1.000  O
  O3       1.0000 0.83970  0.66233  0.64654  Biso   1.000  O
  O4       1.0000 0.93440  0.46388  0.40310  Biso   1.000  O
  N1       1.0000 0.99290  0.16497  0.05090  Biso   1.000  N
  N2       1.0000 0.24640  0.99002  0.90510  Biso   1.000  N
  C1       1.0000 0.82450  0.48468  0.36320  Biso   1.000  C
  C2       1.0000 0.75810  0.43730  0.28790  Biso   1.000  C
  C3       1.0000 0.82960  0.38000  0.24910  Biso   1.000  C
  H1       1.0000 0.92030  0.36990  0.27090  Biso   1.000  H
  C4       1.0000 0.76750  0.33720  0.17760  Biso   1.000  C
  C5       1.0000 0.63040  0.35140  0.14810  Biso   1.000  C
  H2       1.0000 0.58740  0.32330  0.10090  Biso   1.000  H
  C6       1.0000 0.55770  0.40680  0.18820  Biso   1.000  C
  H3       1.0000 0.46510  0.41460  0.16910  Biso   1.000  H
  C7       1.0000 0.62110  0.45110  0.25660  Biso   1.000  C
  H4       1.0000 0.57250  0.48990  0.28150  Biso   1.000  H
  C8       1.0000 0.00880  0.17760  0.13980  Biso   1.000  C
  H5       1.0000 0.07050  0.14750  0.17490  Biso   1.000  H
  C9       1.0000 0.93930  0.23260  0.18300  Biso   1.000  C
  H6       1.0000 0.95570  0.23930  0.24540  Biso   1.000  H
  C10      1.0000 0.84570  0.27740  0.13400  Biso   1.000  C
  C11      1.0000 0.82720  0.26360  0.04240  Biso   1.000  C
  H7       1.0000 0.76420  0.29220  0.00620  Biso   1.000  H
  C12      1.0000 0.90090  0.20800  0.00350  Biso   1.000  C
  H8       1.0000 0.88580  0.20020  0.94130  Biso   1.000  H
  C13      1.0000 0.72640  0.68430  0.60970  Biso   1.000  C
  C14      1.0000 0.63770  0.73460  0.66210  Biso   1.000  C
  C15      1.0000 0.51190  0.76090  0.62470  Biso   1.000  C
  H9       1.0000 0.47850  0.74520  0.56700  Biso   1.000  H
  C16      1.0000 0.43530  0.81010  0.67180  Biso   1.000  C
  H10      1.0000 0.35280  0.82870  0.64400  Biso   1.000  H
  C17      1.0000 0.47710  0.83250  0.75880  Biso   1.000  C
  C18      1.0000 0.60070  0.80290  0.79730  Biso   1.000  C
  H11      1.0000 0.63190  0.81640  0.85630  Biso   1.000  H
  C19      1.0000 0.67810  0.75410  0.75010  Biso   1.000  C
  H12      1.0000 0.75910  0.73410  0.77830  Biso   1.000  H
  C20      1.0000 0.22140  0.98050  0.81550  Biso   1.000  C
  H13      1.0000 0.15280  0.00950  0.78500  Biso   1.000  H
  C21      1.0000 0.29130  0.93030  0.76620  Biso   1.000  C
  H14      1.0000 0.26950  0.92590  0.70400  Biso   1.000  H
  C22      1.0000 0.39540  0.88590  0.80930  Biso   1.000  C
  C23      1.0000 0.42060  0.89640  0.90170  Biso   1.000  C
  H15      1.0000 0.48840  0.86830  0.93420  Biso   1.000  H
  C24      1.0000 0.34660  0.94790  0.94560  Biso   1.000  C
  H16      1.0000 0.36740  0.95400  0.00770  Biso   1.000  H
  Cd2      1.0000 0.13167  0.08159  0.98074  Biso   1.000  Cd
  O5       1.0000 0.23810  0.04214  0.11562  Biso   1.000  O
  O6       1.0000 0.31620  0.16640  0.96940  Biso   1.000  O
  O7       1.0000 0.16030  0.16233  0.85346  Biso   1.000  O
  O8       1.0000 0.06560  0.96388  0.09690  Biso   1.000  O
  N3       1.0000 0.00710  0.66497  0.44910  Biso   1.000  N
  N4       1.0000 0.75360  0.49002  0.59490  Biso   1.000  N
  C25      1.0000 0.17550  0.98468  0.13680  Biso   1.000  C
  C26      1.0000 0.24190  0.93730  0.21210  Biso   1.000  C
  C27      1.0000 0.17040  0.88000  0.25090  Biso   1.000  C
  H17      1.0000 0.07970  0.86990  0.22910  Biso   1.000  H
  C28      1.0000 0.23250  0.83720  0.32240  Biso   1.000  C
  C29      1.0000 0.36960  0.85140  0.35190  Biso   1.000  C
  H18      1.0000 0.41260  0.82330  0.39910  Biso   1.000  H
  C30      1.0000 0.44230  0.90680  0.31180  Biso   1.000  C
  H19      1.0000 0.53490  0.91460  0.33090  Biso   1.000  H
  C31      1.0000 0.37890  0.95110  0.24340  Biso   1.000  C
  H20      1.0000 0.42750  0.98990  0.21850  Biso   1.000  H
  C32      1.0000 0.99120  0.67760  0.36020  Biso   1.000  C
  H21      1.0000 0.92950  0.64750  0.32510  Biso   1.000  H
  C33      1.0000 0.06070  0.73260  0.31700  Biso   1.000  C
  H22      1.0000 0.04430  0.73930  0.25460  Biso   1.000  H
  C34      1.0000 0.15430  0.77740  0.36600  Biso   1.000  C
  C35      1.0000 0.17280  0.76360  0.45760  Biso   1.000  C
  H23      1.0000 0.23580  0.79220  0.49380  Biso   1.000  H
  C36      1.0000 0.09910  0.70800  0.49650  Biso   1.000  C
  H24      1.0000 0.11420  0.70020  0.55870  Biso   1.000  H
  C37      1.0000 0.27360  0.18430  0.89030  Biso   1.000  C
  C38      1.0000 0.36230  0.23460  0.83790  Biso   1.000  C
  C39      1.0000 0.48810  0.26090  0.87530  Biso   1.000  C
  H25      1.0000 0.52150  0.24520  0.93300  Biso   1.000  H
  C40      1.0000 0.56470  0.31010  0.82820  Biso   1.000  C
  H26      1.0000 0.64720  0.32870  0.85600  Biso   1.000  H
  C41      1.0000 0.52290  0.33250  0.74120  Biso   1.000  C
  C42      1.0000 0.39930  0.30290  0.70270  Biso   1.000  C
  H27      1.0000 0.36810  0.31640  0.64370  Biso   1.000  H
  C43      1.0000 0.32190  0.25410  0.74990  Biso   1.000  C
  H28      1.0000 0.24090  0.23410  0.72170  Biso   1.000  H
  C44      1.0000 0.77860  0.48050  0.68450  Biso   1.000  C
  H29      1.0000 0.84720  0.50950  0.71500  Biso   1.000  H
  C45      1.0000 0.70870  0.43030  0.73380  Biso   1.000  C
  H30      1.0000 0.73050  0.42590  0.79600  Biso   1.000  H
  C46      1.0000 0.60460  0.38590  0.69070  Biso   1.000  C
  C47      1.0000 0.57940  0.39640  0.59830  Biso   1.000  C
  H31      1.0000 0.51160  0.36830  0.56580  Biso   1.000  H
  C48      1.0000 0.65340  0.44790  0.55440  Biso   1.000  C
  H32      1.0000 0.63260  0.45400  0.49230  Biso   1.000  H
  Cd3      1.0000 0.13167  0.41841  0.48074  Biso   1.000  Cd
  O9       1.0000 0.23810  0.45786  0.61562  Biso   1.000  O
  O10      1.0000 0.31620  0.33360  0.46940  Biso   1.000  O
  O11      1.0000 0.16030  0.33767  0.35346  Biso   1.000  O
  O12      1.0000 0.06560  0.53612  0.59690  Biso   1.000  O
  N5       1.0000 0.00710  0.83503  0.94910  Biso   1.000  N
  N6       1.0000 0.75360  0.00998  0.09490  Biso   1.000  N
  C49      1.0000 0.17550  0.51532  0.63680  Biso   1.000  C
  C50      1.0000 0.24190  0.56270  0.71210  Biso   1.000  C
  C51      1.0000 0.17040  0.62000  0.75090  Biso   1.000  C
  H33      1.0000 0.07970  0.63010  0.72910  Biso   1.000  H
  C52      1.0000 0.23250  0.66280  0.82240  Biso   1.000  C
  C53      1.0000 0.36960  0.64860  0.85190  Biso   1.000  C
  H34      1.0000 0.41260  0.67670  0.89910  Biso   1.000  H
  C54      1.0000 0.44230  0.59320  0.81180  Biso   1.000  C
  H35      1.0000 0.53490  0.58540  0.83090  Biso   1.000  H
  C55      1.0000 0.37890  0.54890  0.74340  Biso   1.000  C
  H36      1.0000 0.42750  0.51010  0.71850  Biso   1.000  H
  C56      1.0000 0.99120  0.82240  0.86020  Biso   1.000  C
  H37      1.0000 0.92950  0.85250  0.82510  Biso   1.000  H
  C57      1.0000 0.06070  0.76740  0.81700  Biso   1.000  C
  H38      1.0000 0.04430  0.76070  0.75460  Biso   1.000  H
  C58      1.0000 0.15430  0.72260  0.86600  Biso   1.000  C
  C59      1.0000 0.17280  0.73640  0.95760  Biso   1.000  C
  H39      1.0000 0.23580  0.70780  0.99380  Biso   1.000  H
  C60      1.0000 0.09910  0.79200  0.99650  Biso   1.000  C
  H40      1.0000 0.11420  0.79980  0.05870  Biso   1.000  H
  C61      1.0000 0.27360  0.31570  0.39030  Biso   1.000  C
  C62      1.0000 0.36230  0.26540  0.33790  Biso   1.000  C
  C63      1.0000 0.48810  0.23910  0.37530  Biso   1.000  C
  H41      1.0000 0.52150  0.25480  0.43300  Biso   1.000  H
  C64      1.0000 0.56470  0.18990  0.32820  Biso   1.000  C
  H42      1.0000 0.64720  0.17130  0.35600  Biso   1.000  H
  C65      1.0000 0.52290  0.16750  0.24120  Biso   1.000  C
  C66      1.0000 0.39930  0.19710  0.20270  Biso   1.000  C
  H43      1.0000 0.36810  0.18360  0.14370  Biso   1.000  H
  C67      1.0000 0.32190  0.24590  0.24990  Biso   1.000  C
  H44      1.0000 0.24090  0.26590  0.22170  Biso   1.000  H
  C68      1.0000 0.77860  0.01950  0.18450  Biso   1.000  C
  H45      1.0000 0.84720  0.99050  0.21500  Biso   1.000  H
  C69      1.0000 0.70870  0.06970  0.23380  Biso   1.000  C
  H46      1.0000 0.73050  0.07410  0.29600  Biso   1.000  H
  C70      1.0000 0.60460  0.11410  0.19070  Biso   1.000  C
  C71      1.0000 0.57940  0.10360  0.09830  Biso   1.000  C
  H47      1.0000 0.51160  0.13170  0.06580  Biso   1.000  H
  C72      1.0000 0.65340  0.05210  0.05440  Biso   1.000  C
  H48      1.0000 0.63260  0.04600  0.99230  Biso   1.000  H
  Cd4      1.0000 0.86833  0.91841  0.01926  Biso   1.000  Cd
  O13      1.0000 0.76190  0.95786  0.88438  Biso   1.000  O
  O14      1.0000 0.68380  0.83360  0.03060  Biso   1.000  O
  O15      1.0000 0.83970  0.83767  0.14654  Biso   1.000  O
  O16      1.0000 0.93440  0.03612  0.90310  Biso   1.000  O
  N7       1.0000 0.99290  0.33503  0.55090  Biso   1.000  N
  N8       1.0000 0.24640  0.50998  0.40510  Biso   1.000  N
  C73      1.0000 0.82450  0.01532  0.86320  Biso   1.000  C
  C74      1.0000 0.75810  0.06270  0.78790  Biso   1.000  C
  C75      1.0000 0.82960  0.12000  0.74910  Biso   1.000  C
  H49      1.0000 0.92030  0.13010  0.77090  Biso   1.000  H
  C76      1.0000 0.76750  0.16280  0.67760  Biso   1.000  C
  C77      1.0000 0.63040  0.14860  0.64810  Biso   1.000  C
  H50      1.0000 0.58740  0.17670  0.60090  Biso   1.000  H
  C78      1.0000 0.55770  0.09320  0.68820  Biso   1.000  C
  H51      1.0000 0.46510  0.08540  0.66910  Biso   1.000  H
  C79      1.0000 0.62110  0.04890  0.75660  Biso   1.000  C
  H52      1.0000 0.57250  0.01010  0.78150  Biso   1.000  H
  C80      1.0000 0.00880  0.32240  0.63980  Biso   1.000  C
  H53      1.0000 0.07050  0.35250  0.67490  Biso   1.000  H
  C81      1.0000 0.93930  0.26740  0.68300  Biso   1.000  C
  H54      1.0000 0.95570  0.26070  0.74540  Biso   1.000  H
  C82      1.0000 0.84570  0.22260  0.63400  Biso   1.000  C
  C83      1.0000 0.82720  0.23640  0.54240  Biso   1.000  C
  H55      1.0000 0.76420  0.20780  0.50620  Biso   1.000  H
  C84      1.0000 0.90090  0.29200  0.50350  Biso   1.000  C
  H56      1.0000 0.88580  0.29980  0.44130  Biso   1.000  H
  C85      1.0000 0.72640  0.81570  0.10970  Biso   1.000  C
  C86      1.0000 0.63770  0.76540  0.16210  Biso   1.000  C
  C87      1.0000 0.51190  0.73910  0.12470  Biso   1.000  C
  H57      1.0000 0.47850  0.75480  0.06700  Biso   1.000  H
  C88      1.0000 0.43530  0.68990  0.17180  Biso   1.000  C
  H58      1.0000 0.35280  0.67130  0.14400  Biso   1.000  H
  C89      1.0000 0.47710  0.66750  0.25880  Biso   1.000  C
  C90      1.0000 0.60070  0.69710  0.29730  Biso   1.000  C
  H59      1.0000 0.63190  0.68360  0.35630  Biso   1.000  H
  C91      1.0000 0.67810  0.74590  0.25010  Biso   1.000  C
  H60      1.0000 0.75910  0.76590  0.27830  Biso   1.000  H
  C92      1.0000 0.22140  0.51950  0.31550  Biso   1.000  C
  H61      1.0000 0.15280  0.49050  0.28500  Biso   1.000  H
  C93      1.0000 0.29130  0.56970  0.26620  Biso   1.000  C
  H62      1.0000 0.26950  0.57410  0.20400  Biso   1.000  H
  C94      1.0000 0.39540  0.61410  0.30930  Biso   1.000  C
  C95      1.0000 0.42060  0.60360  0.40170  Biso   1.000  C
  H63      1.0000 0.48840  0.63170  0.43420  Biso   1.000  H
  C96      1.0000 0.34660  0.55210  0.44560  Biso   1.000  C
  H64      1.0000 0.36740  0.54600  0.50770  Biso   1.000  H
