data_image0
_cell_length_a       14.072
_cell_length_b       14.5227
_cell_length_c       10.4461
_cell_angle_alpha    90
_cell_angle_beta     90
_cell_angle_gamma    90

_symmetry_space_group_name_H-M    "P 1"
_symmetry_int_tables_number       1

loop_
  _symmetry_equiv_pos_as_xyz
  'x, y, z'

loop_
  _atom_site_label
  _atom_site_occupancy
  _atom_site_fract_x
  _atom_site_fract_y
  _atom_site_fract_z
  _atom_site_thermal_displace_type
  _atom_site_B_iso_or_equiv
  _atom_site_type_symbol
  Fe1      1.0000 0.89685  0.17004  0.71486  Biso   1.000  Fe
  Fe2      1.0000 0.74631  0.53934  0.68215  Biso   1.000  Fe
  Fe3      1.0000 0.61368  0.15153  0.65162  Biso   1.000  Fe
  P1       1.0000 0.61543  0.36810  0.70201  Biso   1.000  P
  P2       1.0000 0.89895  0.38537  0.65405  Biso   1.000  P
  P3       1.0000 0.77657  0.58951  0.39730  Biso   1.000  P
  P4       1.0000 0.78228  0.13863  0.45875  Biso   1.000  P
  O1       1.0000 0.85540  0.46470  0.72810  Biso   1.000  O
  O2       1.0000 0.64690  0.45250  0.62570  Biso   1.000  O
  O3       1.0000 0.51870  0.38550  0.76170  Biso   1.000  O
  O4       1.0000 0.90270  0.30110  0.73660  Biso   1.000  O
  O5       1.0000 0.69830  0.09600  0.52670  Biso   1.000  O
  O6       1.0000 0.61840  0.28260  0.62280  Biso   1.000  O
  O7       1.0000 0.87300  0.13570  0.53770  Biso   1.000  O
  O8       1.0000 0.68610  0.61400  0.33620  Biso   1.000  O
  O9       1.0000 0.99580  0.41090  0.60210  Biso   1.000  O
  O10      1.0000 0.78050  0.61380  0.53810  Biso   1.000  O
  O11      1.0000 0.80380  0.09390  0.33130  Biso   1.000  O
  O12      1.0000 0.86500  0.62400  0.32950  Biso   1.000  O
  H1       1.0000 0.68000  0.35800  0.81400  Biso   1.000  H
  H2       1.0000 0.76200  0.23200  0.43600  Biso   1.000  H
  H3       1.0000 0.83700  0.36700  0.55600  Biso   1.000  H
  H4       1.0000 0.76900  0.48500  0.38300  Biso   1.000  H
  Zn1      1.0000 0.39685  0.32996  0.71486  Biso   1.000  Zn
  Zn2      1.0000 0.75369  0.03934  0.18215  Biso   1.000  Zn
  Zn3      1.0000 0.11368  0.34847  0.65162  Biso   1.000  Zn
  Fe4      1.0000 0.10315  0.82996  0.21486  Biso   1.000  Fe
  Fe5      1.0000 0.25369  0.46066  0.18215  Biso   1.000  Fe
  Fe6      1.0000 0.38632  0.84847  0.15162  Biso   1.000  Fe
  P5       1.0000 0.38457  0.63190  0.20201  Biso   1.000  P
  P6       1.0000 0.10105  0.61463  0.15405  Biso   1.000  P
  P7       1.0000 0.22343  0.41049  0.89730  Biso   1.000  P
  P8       1.0000 0.21772  0.86137  0.95875  Biso   1.000  P
  O13      1.0000 0.14460  0.53530  0.22810  Biso   1.000  O
  O14      1.0000 0.35310  0.54750  0.12570  Biso   1.000  O
  O15      1.0000 0.48130  0.61450  0.26170  Biso   1.000  O
  O16      1.0000 0.09730  0.69890  0.23660  Biso   1.000  O
  O17      1.0000 0.30170  0.90400  0.02670  Biso   1.000  O
  O18      1.0000 0.38160  0.71740  0.12280  Biso   1.000  O
  O19      1.0000 0.12700  0.86430  0.03770  Biso   1.000  O
  O20      1.0000 0.31390  0.38600  0.83620  Biso   1.000  O
  O21      1.0000 0.00420  0.58910  0.10210  Biso   1.000  O
  O22      1.0000 0.21950  0.38620  0.03810  Biso   1.000  O
  O23      1.0000 0.19620  0.90610  0.83130  Biso   1.000  O
  O24      1.0000 0.13500  0.37600  0.82950  Biso   1.000  O
  H5       1.0000 0.32000  0.64200  0.31400  Biso   1.000  H
  H6       1.0000 0.23800  0.76800  0.93600  Biso   1.000  H
  H7       1.0000 0.16300  0.63300  0.05600  Biso   1.000  H
  H8       1.0000 0.23100  0.51500  0.88300  Biso   1.000  H
  Zn4      1.0000 0.60315  0.67004  0.21486  Biso   1.000  Zn
  Zn5      1.0000 0.24631  0.96066  0.68215  Biso   1.000  Zn
  Zn6      1.0000 0.88632  0.65153  0.15162  Biso   1.000  Zn
  P9       1.0000 0.11543  0.13190  0.70201  Biso   1.000  P
  P10      1.0000 0.39895  0.11463  0.65405  Biso   1.000  P
  P11      1.0000 0.27657  0.91049  0.39730  Biso   1.000  P
  P12      1.0000 0.28228  0.36137  0.45875  Biso   1.000  P
  O25      1.0000 0.35540  0.03530  0.72810  Biso   1.000  O
  O26      1.0000 0.14690  0.04750  0.62570  Biso   1.000  O
  O27      1.0000 0.01870  0.11450  0.76170  Biso   1.000  O
  O28      1.0000 0.40270  0.19890  0.73660  Biso   1.000  O
  O29      1.0000 0.19830  0.40400  0.52670  Biso   1.000  O
  O30      1.0000 0.11840  0.21740  0.62280  Biso   1.000  O
  O31      1.0000 0.37300  0.36430  0.53770  Biso   1.000  O
  O32      1.0000 0.18610  0.88600  0.33620  Biso   1.000  O
  O33      1.0000 0.49580  0.08910  0.60210  Biso   1.000  O
  O34      1.0000 0.28050  0.88620  0.53810  Biso   1.000  O
  O35      1.0000 0.30380  0.40610  0.33130  Biso   1.000  O
  O36      1.0000 0.36500  0.87600  0.32950  Biso   1.000  O
  H9       1.0000 0.18000  0.14200  0.81400  Biso   1.000  H
  H10      1.0000 0.26200  0.26800  0.43600  Biso   1.000  H
  H11      1.0000 0.33700  0.13300  0.55600  Biso   1.000  H
  H12      1.0000 0.26900  0.01500  0.38300  Biso   1.000  H
  P13      1.0000 0.88457  0.86810  0.20201  Biso   1.000  P
  P14      1.0000 0.60105  0.88537  0.15405  Biso   1.000  P
  P15      1.0000 0.72343  0.08951  0.89730  Biso   1.000  P
  P16      1.0000 0.71772  0.63863  0.95875  Biso   1.000  P
  O37      1.0000 0.64460  0.96470  0.22810  Biso   1.000  O
  O38      1.0000 0.85310  0.95250  0.12570  Biso   1.000  O
  O39      1.0000 0.98130  0.88550  0.26170  Biso   1.000  O
  O40      1.0000 0.59730  0.80110  0.23660  Biso   1.000  O
  O41      1.0000 0.80170  0.59600  0.02670  Biso   1.000  O
  O42      1.0000 0.88160  0.78260  0.12280  Biso   1.000  O
  O43      1.0000 0.62700  0.63570  0.03770  Biso   1.000  O
  O44      1.0000 0.81390  0.11400  0.83620  Biso   1.000  O
  O45      1.0000 0.50420  0.91090  0.10210  Biso   1.000  O
  O46      1.0000 0.71950  0.11380  0.03810  Biso   1.000  O
  O47      1.0000 0.69620  0.59390  0.83130  Biso   1.000  O
  O48      1.0000 0.63500  0.12400  0.82950  Biso   1.000  O
  H13      1.0000 0.82000  0.85800  0.31400  Biso   1.000  H
  H14      1.0000 0.73800  0.73200  0.93600  Biso   1.000  H
  H15      1.0000 0.66300  0.86700  0.05600  Biso   1.000  H
  H16      1.0000 0.73100  0.98500  0.88300  Biso   1.000  H
