data_image0
_cell_length_a       8.911
_cell_length_b       8.098
_cell_length_c       10.289
_cell_angle_alpha    90
_cell_angle_beta     101.433
_cell_angle_gamma    90

_symmetry_space_group_name_H-M    "P 1"
_symmetry_int_tables_number       1

loop_
  _symmetry_equiv_pos_as_xyz
  'x, y, z'

loop_
  _atom_site_label
  _atom_site_occupancy
  _atom_site_fract_x
  _atom_site_fract_y
  _atom_site_fract_z
  _atom_site_thermal_displace_type
  _atom_site_B_iso_or_equiv
  _atom_site_type_symbol
  Zn1      1.0000 0.31382  0.05878  0.56136  Biso   1.000  Zn
  O1       1.0000 0.84180  0.12940  0.45900  Biso   1.000  O
  N1       1.0000 0.37840  0.22050  0.71230  Biso   1.000  N
  C1       1.0000 0.98160  0.09160  0.49230  Biso   1.000  C
  N2       1.0000 0.37690  0.36170  0.89660  Biso   1.000  N
  N3       1.0000 0.51980  0.38150  0.86530  Biso   1.000  N
  C2       1.0000 0.29920  0.26590  0.80350  Biso   1.000  C
  H1       1.0000 0.19870  0.23310  0.80150  Biso   1.000  H
  C3       1.0000 0.51380  0.29440  0.75450  Biso   1.000  C
  O2       1.0000 0.09090  0.19020  0.51100  Biso   1.000  O
  N4       1.0000 0.63440  0.28290  0.69020  Biso   1.000  N
  H2       1.0000 0.71880  0.33340  0.72120  Biso   1.000  H
  H3       1.0000 0.62550  0.22530  0.61890  Biso   1.000  H
  Zn2      1.0000 0.68618  0.55878  0.93864  Biso   1.000  Zn
  O3       1.0000 0.15820  0.62940  0.04100  Biso   1.000  O
  N5       1.0000 0.62160  0.72050  0.78770  Biso   1.000  N
  C4       1.0000 0.01840  0.59160  0.00770  Biso   1.000  C
  N6       1.0000 0.62310  0.86170  0.60340  Biso   1.000  N
  N7       1.0000 0.48020  0.88150  0.63470  Biso   1.000  N
  C5       1.0000 0.70080  0.76590  0.69650  Biso   1.000  C
  H4       1.0000 0.80130  0.73310  0.69850  Biso   1.000  H
  C6       1.0000 0.48620  0.79440  0.74550  Biso   1.000  C
  O4       1.0000 0.90910  0.69020  0.98900  Biso   1.000  O
  N8       1.0000 0.36560  0.78290  0.80980  Biso   1.000  N
  H5       1.0000 0.28120  0.83340  0.77880  Biso   1.000  H
  H6       1.0000 0.37450  0.72530  0.88110  Biso   1.000  H
  Zn3      1.0000 0.68618  0.94122  0.43864  Biso   1.000  Zn
  O5       1.0000 0.15820  0.87060  0.54100  Biso   1.000  O
  N9       1.0000 0.62160  0.77950  0.28770  Biso   1.000  N
  C7       1.0000 0.01840  0.90840  0.50770  Biso   1.000  C
  N10      1.0000 0.62310  0.63830  0.10340  Biso   1.000  N
  N11      1.0000 0.48020  0.61850  0.13470  Biso   1.000  N
  C8       1.0000 0.70080  0.73410  0.19650  Biso   1.000  C
  H7       1.0000 0.80130  0.76690  0.19850  Biso   1.000  H
  C9       1.0000 0.48620  0.70560  0.24550  Biso   1.000  C
  O6       1.0000 0.90910  0.80980  0.48900  Biso   1.000  O
  N12      1.0000 0.36560  0.71710  0.30980  Biso   1.000  N
  H8       1.0000 0.28120  0.66660  0.27880  Biso   1.000  H
  H9       1.0000 0.37450  0.77470  0.38110  Biso   1.000  H
  Zn4      1.0000 0.31382  0.44122  0.06136  Biso   1.000  Zn
  O7       1.0000 0.84180  0.37060  0.95900  Biso   1.000  O
  N13      1.0000 0.37840  0.27950  0.21230  Biso   1.000  N
  C10      1.0000 0.98160  0.40840  0.99230  Biso   1.000  C
  N14      1.0000 0.37690  0.13830  0.39660  Biso   1.000  N
  N15      1.0000 0.51980  0.11850  0.36530  Biso   1.000  N
  C11      1.0000 0.29920  0.23410  0.30350  Biso   1.000  C
  H10      1.0000 0.19870  0.26690  0.30150  Biso   1.000  H
  C12      1.0000 0.51380  0.20560  0.25450  Biso   1.000  C
  O8       1.0000 0.09090  0.30980  0.01100  Biso   1.000  O
  N16      1.0000 0.63440  0.21710  0.19020  Biso   1.000  N
  H11      1.0000 0.71880  0.16660  0.22120  Biso   1.000  H
  H12      1.0000 0.62550  0.27470  0.11890  Biso   1.000  H
