data_image0
_cell_length_a       23.193
_cell_length_b       23.193
_cell_length_c       12.069
_cell_angle_alpha    90
_cell_angle_beta     90
_cell_angle_gamma    90

_symmetry_space_group_name_H-M    "P 1"
_symmetry_int_tables_number       1

loop_
  _symmetry_equiv_pos_as_xyz
  'x, y, z'

loop_
  _atom_site_label
  _atom_site_occupancy
  _atom_site_fract_x
  _atom_site_fract_y
  _atom_site_fract_z
  _atom_site_thermal_displace_type
  _atom_site_B_iso_or_equiv
  _atom_site_type_symbol
  Mg1      1.0000 0.62983  0.54234  0.50010  Biso   1.000  Mg
  Mg2      1.0000 0.72607  0.45134  0.46040  Biso   1.000  Mg
  O1       1.0000 0.67414  0.59824  0.60770  Biso   1.000  O
  O2       1.0000 0.72560  0.67100  0.67200  Biso   1.000  O
  O3       1.0000 0.70407  0.53576  0.40060  Biso   1.000  O
  O4       1.0000 0.77790  0.55000  0.29070  Biso   1.000  O
  O5       1.0000 0.59070  0.60300  0.40880  Biso   1.000  O
  O6       1.0000 0.49920  0.57510  0.41310  Biso   1.000  O
  O7       1.0000 0.56059  0.53300  0.61530  Biso   1.000  O
  O8       1.0000 0.61610  0.52660  0.76500  Biso   1.000  O
  O9       1.0000 0.67320  0.47930  0.57780  Biso   1.000  O
  H1       1.0000 0.65400  0.46000  0.58200  Biso   1.000  H
  C1       1.0000 0.67970  0.65010  0.62880  Biso   1.000  C
  C2       1.0000 0.62840  0.69000  0.60870  Biso   1.000  C
  H2       1.0000 0.61690  0.68780  0.53060  Biso   1.000  H
  H3       1.0000 0.63930  0.72970  0.62690  Biso   1.000  H
  H4       1.0000 0.59610  0.67800  0.65560  Biso   1.000  H
  C3       1.0000 0.73580  0.56780  0.34220  Biso   1.000  C
  C4       1.0000 0.72660  0.63030  0.34110  Biso   1.000  C
  H5       1.0000 0.71880  0.64370  0.41670  Biso   1.000  H
  H6       1.0000 0.69360  0.63940  0.29350  Biso   1.000  H
  H7       1.0000 0.76120  0.64950  0.31260  Biso   1.000  H
  C5       1.0000 0.53870  0.60850  0.38460  Biso   1.000  C
  C6       1.0000 0.52230  0.66070  0.31950  Biso   1.000  C
  H8       1.0000 0.53090  0.65420  0.24100  Biso   1.000  H
  H9       1.0000 0.54430  0.69400  0.34630  Biso   1.000  H
  H10      1.0000 0.48100  0.66810  0.32850  Biso   1.000  H
  C7       1.0000 0.56860  0.52490  0.72010  Biso   1.000  C
  C8       1.0000 0.51740  0.51430  0.78980  Biso   1.000  C
  H11      1.0000 0.52490  0.48160  0.83910  Biso   1.000  H
  H12      1.0000 0.48430  0.50550  0.74240  Biso   1.000  H
  H13      1.0000 0.50910  0.54870  0.83410  Biso   1.000  H
  Mg3      1.0000 0.12983  0.04234  0.00010  Biso   1.000  Mg
  Mg4      1.0000 0.22607  0.95134  0.96040  Biso   1.000  Mg
  O10      1.0000 0.17414  0.09824  0.10770  Biso   1.000  O
  O11      1.0000 0.22560  0.17100  0.17200  Biso   1.000  O
  O12      1.0000 0.20407  0.03576  0.90060  Biso   1.000  O
  O13      1.0000 0.27790  0.05000  0.79070  Biso   1.000  O
  O14      1.0000 0.09070  0.10300  0.90880  Biso   1.000  O
  O15      1.0000 0.99920  0.07510  0.91310  Biso   1.000  O
  O16      1.0000 0.06059  0.03300  0.11530  Biso   1.000  O
  O17      1.0000 0.11610  0.02660  0.26500  Biso   1.000  O
  O18      1.0000 0.17320  0.97930  0.07780  Biso   1.000  O
  H14      1.0000 0.15400  0.96000  0.08200  Biso   1.000  H
  C9       1.0000 0.17970  0.15010  0.12880  Biso   1.000  C
  C10      1.0000 0.12840  0.19000  0.10870  Biso   1.000  C
  H15      1.0000 0.11690  0.18780  0.03060  Biso   1.000  H
  H16      1.0000 0.13930  0.22970  0.12690  Biso   1.000  H
  H17      1.0000 0.09610  0.17800  0.15560  Biso   1.000  H
  C11      1.0000 0.23580  0.06780  0.84220  Biso   1.000  C
  C12      1.0000 0.22660  0.13030  0.84110  Biso   1.000  C
  H18      1.0000 0.21880  0.14370  0.91670  Biso   1.000  H
  H19      1.0000 0.19360  0.13940  0.79350  Biso   1.000  H
  H20      1.0000 0.26120  0.14950  0.81260  Biso   1.000  H
  C13      1.0000 0.03870  0.10850  0.88460  Biso   1.000  C
  C14      1.0000 0.02230  0.16070  0.81950  Biso   1.000  C
  H21      1.0000 0.03090  0.15420  0.74100  Biso   1.000  H
  H22      1.0000 0.04430  0.19400  0.84630  Biso   1.000  H
  H23      1.0000 0.98100  0.16810  0.82850  Biso   1.000  H
  C15      1.0000 0.06860  0.02490  0.22010  Biso   1.000  C
  C16      1.0000 0.01740  0.01430  0.28980  Biso   1.000  C
  H24      1.0000 0.02490  0.98160  0.33910  Biso   1.000  H
  H25      1.0000 0.98430  0.00550  0.24240  Biso   1.000  H
  H26      1.0000 0.00910  0.04870  0.33410  Biso   1.000  H
  Mg5      1.0000 0.87017  0.45766  0.00010  Biso   1.000  Mg
  Mg6      1.0000 0.77393  0.54866  0.96040  Biso   1.000  Mg
  O19      1.0000 0.82586  0.40176  0.10770  Biso   1.000  O
  O20      1.0000 0.77440  0.32900  0.17200  Biso   1.000  O
  O21      1.0000 0.79593  0.46424  0.90060  Biso   1.000  O
  O22      1.0000 0.72210  0.45000  0.79070  Biso   1.000  O
  O23      1.0000 0.90930  0.39700  0.90880  Biso   1.000  O
  O24      1.0000 0.00080  0.42490  0.91310  Biso   1.000  O
  O25      1.0000 0.93941  0.46700  0.11530  Biso   1.000  O
  O26      1.0000 0.88390  0.47340  0.26500  Biso   1.000  O
  O27      1.0000 0.82680  0.52070  0.07780  Biso   1.000  O
  H27      1.0000 0.84600  0.54000  0.08200  Biso   1.000  H
  C17      1.0000 0.82030  0.34990  0.12880  Biso   1.000  C
  C18      1.0000 0.87160  0.31000  0.10870  Biso   1.000  C
  H28      1.0000 0.88310  0.31220  0.03060  Biso   1.000  H
  H29      1.0000 0.86070  0.27030  0.12690  Biso   1.000  H
  H30      1.0000 0.90390  0.32200  0.15560  Biso   1.000  H
  C19      1.0000 0.76420  0.43220  0.84220  Biso   1.000  C
  C20      1.0000 0.77340  0.36970  0.84110  Biso   1.000  C
  H31      1.0000 0.78120  0.35630  0.91670  Biso   1.000  H
  H32      1.0000 0.80640  0.36060  0.79350  Biso   1.000  H
  H33      1.0000 0.73880  0.35050  0.81260  Biso   1.000  H
  C21      1.0000 0.96130  0.39150  0.88460  Biso   1.000  C
  C22      1.0000 0.97770  0.33930  0.81950  Biso   1.000  C
  H34      1.0000 0.96910  0.34580  0.74100  Biso   1.000  H
  H35      1.0000 0.95570  0.30600  0.84630  Biso   1.000  H
  H36      1.0000 0.01900  0.33190  0.82850  Biso   1.000  H
  C23      1.0000 0.93140  0.47510  0.22010  Biso   1.000  C
  C24      1.0000 0.98260  0.48570  0.28980  Biso   1.000  C
  H37      1.0000 0.97510  0.51840  0.33910  Biso   1.000  H
  H38      1.0000 0.01570  0.49450  0.24240  Biso   1.000  H
  H39      1.0000 0.99090  0.45130  0.33410  Biso   1.000  H
  Mg7      1.0000 0.37017  0.95766  0.50010  Biso   1.000  Mg
  Mg8      1.0000 0.27393  0.04866  0.46040  Biso   1.000  Mg
  O28      1.0000 0.32586  0.90176  0.60770  Biso   1.000  O
  O29      1.0000 0.27440  0.82900  0.67200  Biso   1.000  O
  O30      1.0000 0.29593  0.96424  0.40060  Biso   1.000  O
  O31      1.0000 0.22210  0.95000  0.29070  Biso   1.000  O
  O32      1.0000 0.40930  0.89700  0.40880  Biso   1.000  O
  O33      1.0000 0.50080  0.92490  0.41310  Biso   1.000  O
  O34      1.0000 0.43941  0.96700  0.61530  Biso   1.000  O
  O35      1.0000 0.38390  0.97340  0.76500  Biso   1.000  O
  O36      1.0000 0.32680  0.02070  0.57780  Biso   1.000  O
  H40      1.0000 0.34600  0.04000  0.58200  Biso   1.000  H
  C25      1.0000 0.32030  0.84990  0.62880  Biso   1.000  C
  C26      1.0000 0.37160  0.81000  0.60870  Biso   1.000  C
  H41      1.0000 0.38310  0.81220  0.53060  Biso   1.000  H
  H42      1.0000 0.36070  0.77030  0.62690  Biso   1.000  H
  H43      1.0000 0.40390  0.82200  0.65560  Biso   1.000  H
  C27      1.0000 0.26420  0.93220  0.34220  Biso   1.000  C
  C28      1.0000 0.27340  0.86970  0.34110  Biso   1.000  C
  H44      1.0000 0.28120  0.85630  0.41670  Biso   1.000  H
  H45      1.0000 0.30640  0.86060  0.29350  Biso   1.000  H
  H46      1.0000 0.23880  0.85050  0.31260  Biso   1.000  H
  C29      1.0000 0.46130  0.89150  0.38460  Biso   1.000  C
  C30      1.0000 0.47770  0.83930  0.31950  Biso   1.000  C
  H47      1.0000 0.46910  0.84580  0.24100  Biso   1.000  H
  H48      1.0000 0.45570  0.80600  0.34630  Biso   1.000  H
  H49      1.0000 0.51900  0.83190  0.32850  Biso   1.000  H
  C31      1.0000 0.43140  0.97510  0.72010  Biso   1.000  C
  C32      1.0000 0.48260  0.98570  0.78980  Biso   1.000  C
  H50      1.0000 0.47510  0.01840  0.83910  Biso   1.000  H
  H51      1.0000 0.51570  0.99450  0.74240  Biso   1.000  H
  H52      1.0000 0.49090  0.95130  0.83410  Biso   1.000  H
  Mg9      1.0000 0.20766  0.87983  0.75010  Biso   1.000  Mg
  Mg10     1.0000 0.29866  0.97607  0.71040  Biso   1.000  Mg
  O37      1.0000 0.15176  0.92414  0.85770  Biso   1.000  O
  O38      1.0000 0.07900  0.97560  0.92200  Biso   1.000  O
  O39      1.0000 0.21424  0.95407  0.65060  Biso   1.000  O
  O40      1.0000 0.20000  0.02790  0.54070  Biso   1.000  O
  O41      1.0000 0.14700  0.84070  0.65880  Biso   1.000  O
  O42      1.0000 0.17490  0.74920  0.66310  Biso   1.000  O
  O43      1.0000 0.21700  0.81059  0.86530  Biso   1.000  O
  O44      1.0000 0.22340  0.86610  0.01500  Biso   1.000  O
  O45      1.0000 0.27070  0.92320  0.82780  Biso   1.000  O
  H53      1.0000 0.29000  0.90400  0.83200  Biso   1.000  H
  C33      1.0000 0.09990  0.92970  0.87880  Biso   1.000  C
  C34      1.0000 0.06000  0.87840  0.85870  Biso   1.000  C
  H54      1.0000 0.06220  0.86690  0.78060  Biso   1.000  H
  H55      1.0000 0.02030  0.88930  0.87690  Biso   1.000  H
  H56      1.0000 0.07200  0.84610  0.90560  Biso   1.000  H
  C35      1.0000 0.18220  0.98580  0.59220  Biso   1.000  C
  C36      1.0000 0.11970  0.97660  0.59110  Biso   1.000  C
  H57      1.0000 0.10630  0.96880  0.66670  Biso   1.000  H
  H58      1.0000 0.11060  0.94360  0.54350  Biso   1.000  H
  H59      1.0000 0.10050  0.01120  0.56260  Biso   1.000  H
  C37      1.0000 0.14150  0.78870  0.63460  Biso   1.000  C
  C38      1.0000 0.08930  0.77230  0.56950  Biso   1.000  C
  H60      1.0000 0.09580  0.78090  0.49100  Biso   1.000  H
  H61      1.0000 0.05600  0.79430  0.59630  Biso   1.000  H
  H62      1.0000 0.08190  0.73100  0.57850  Biso   1.000  H
  C39      1.0000 0.22510  0.81860  0.97010  Biso   1.000  C
  C40      1.0000 0.23570  0.76740  0.03980  Biso   1.000  C
  H63      1.0000 0.26840  0.77490  0.08910  Biso   1.000  H
  H64      1.0000 0.24450  0.73430  0.99240  Biso   1.000  H
  H65      1.0000 0.20130  0.75910  0.08410  Biso   1.000  H
  Mg11     1.0000 0.70766  0.37983  0.25010  Biso   1.000  Mg
  Mg12     1.0000 0.79866  0.47607  0.21040  Biso   1.000  Mg
  O46      1.0000 0.65176  0.42414  0.35770  Biso   1.000  O
  O47      1.0000 0.57900  0.47560  0.42200  Biso   1.000  O
  O48      1.0000 0.71424  0.45407  0.15060  Biso   1.000  O
  O49      1.0000 0.70000  0.52790  0.04070  Biso   1.000  O
  O50      1.0000 0.64700  0.34070  0.15880  Biso   1.000  O
  O51      1.0000 0.67490  0.24920  0.16310  Biso   1.000  O
  O52      1.0000 0.71700  0.31059  0.36530  Biso   1.000  O
  O53      1.0000 0.72340  0.36610  0.51500  Biso   1.000  O
  O54      1.0000 0.77070  0.42320  0.32780  Biso   1.000  O
  H66      1.0000 0.79000  0.40400  0.33200  Biso   1.000  H
  C41      1.0000 0.59990  0.42970  0.37880  Biso   1.000  C
  C42      1.0000 0.56000  0.37840  0.35870  Biso   1.000  C
  H67      1.0000 0.56220  0.36690  0.28060  Biso   1.000  H
  H68      1.0000 0.52030  0.38930  0.37690  Biso   1.000  H
  H69      1.0000 0.57200  0.34610  0.40560  Biso   1.000  H
  C43      1.0000 0.68220  0.48580  0.09220  Biso   1.000  C
  C44      1.0000 0.61970  0.47660  0.09110  Biso   1.000  C
  H70      1.0000 0.60630  0.46880  0.16670  Biso   1.000  H
  H71      1.0000 0.61060  0.44360  0.04350  Biso   1.000  H
  H72      1.0000 0.60050  0.51120  0.06260  Biso   1.000  H
  C45      1.0000 0.64150  0.28870  0.13460  Biso   1.000  C
  C46      1.0000 0.58930  0.27230  0.06950  Biso   1.000  C
  H73      1.0000 0.59580  0.28090  0.99100  Biso   1.000  H
  H74      1.0000 0.55600  0.29430  0.09630  Biso   1.000  H
  H75      1.0000 0.58190  0.23100  0.07850  Biso   1.000  H
  C47      1.0000 0.72510  0.31860  0.47010  Biso   1.000  C
  C48      1.0000 0.73570  0.26740  0.53980  Biso   1.000  C
  H76      1.0000 0.76840  0.27490  0.58910  Biso   1.000  H
  H77      1.0000 0.74450  0.23430  0.49240  Biso   1.000  H
  H78      1.0000 0.70130  0.25910  0.58410  Biso   1.000  H
  Mg13     1.0000 0.29234  0.12017  0.25010  Biso   1.000  Mg
  Mg14     1.0000 0.20134  0.02393  0.21040  Biso   1.000  Mg
  O55      1.0000 0.34824  0.07586  0.35770  Biso   1.000  O
  O56      1.0000 0.42100  0.02440  0.42200  Biso   1.000  O
  O57      1.0000 0.28576  0.04593  0.15060  Biso   1.000  O
  O58      1.0000 0.30000  0.97210  0.04070  Biso   1.000  O
  O59      1.0000 0.35300  0.15930  0.15880  Biso   1.000  O
  O60      1.0000 0.32510  0.25080  0.16310  Biso   1.000  O
  O61      1.0000 0.28300  0.18941  0.36530  Biso   1.000  O
  O62      1.0000 0.27660  0.13390  0.51500  Biso   1.000  O
  O63      1.0000 0.22930  0.07680  0.32780  Biso   1.000  O
  H79      1.0000 0.21000  0.09600  0.33200  Biso   1.000  H
  C49      1.0000 0.40010  0.07030  0.37880  Biso   1.000  C
  C50      1.0000 0.44000  0.12160  0.35870  Biso   1.000  C
  H80      1.0000 0.43780  0.13310  0.28060  Biso   1.000  H
  H81      1.0000 0.47970  0.11070  0.37690  Biso   1.000  H
  H82      1.0000 0.42800  0.15390  0.40560  Biso   1.000  H
  C51      1.0000 0.31780  0.01420  0.09220  Biso   1.000  C
  C52      1.0000 0.38030  0.02340  0.09110  Biso   1.000  C
  H83      1.0000 0.39370  0.03120  0.16670  Biso   1.000  H
  H84      1.0000 0.38940  0.05640  0.04350  Biso   1.000  H
  H85      1.0000 0.39950  0.98880  0.06260  Biso   1.000  H
  C53      1.0000 0.35850  0.21130  0.13460  Biso   1.000  C
  C54      1.0000 0.41070  0.22770  0.06950  Biso   1.000  C
  H86      1.0000 0.40420  0.21910  0.99100  Biso   1.000  H
  H87      1.0000 0.44400  0.20570  0.09630  Biso   1.000  H
  H88      1.0000 0.41810  0.26900  0.07850  Biso   1.000  H
  C55      1.0000 0.27490  0.18140  0.47010  Biso   1.000  C
  C56      1.0000 0.26430  0.23260  0.53980  Biso   1.000  C
  H89      1.0000 0.23160  0.22510  0.58910  Biso   1.000  H
  H90      1.0000 0.25550  0.26570  0.49240  Biso   1.000  H
  H91      1.0000 0.29870  0.24090  0.58410  Biso   1.000  H
  Mg15     1.0000 0.79234  0.62017  0.75010  Biso   1.000  Mg
  Mg16     1.0000 0.70134  0.52393  0.71040  Biso   1.000  Mg
  O64      1.0000 0.84824  0.57586  0.85770  Biso   1.000  O
  O65      1.0000 0.92100  0.52440  0.92200  Biso   1.000  O
  O66      1.0000 0.78576  0.54593  0.65060  Biso   1.000  O
  O67      1.0000 0.80000  0.47210  0.54070  Biso   1.000  O
  O68      1.0000 0.85300  0.65930  0.65880  Biso   1.000  O
  O69      1.0000 0.82510  0.75080  0.66310  Biso   1.000  O
  O70      1.0000 0.78300  0.68941  0.86530  Biso   1.000  O
  O71      1.0000 0.77660  0.63390  0.01500  Biso   1.000  O
  O72      1.0000 0.72930  0.57680  0.82780  Biso   1.000  O
  H92      1.0000 0.71000  0.59600  0.83200  Biso   1.000  H
  C57      1.0000 0.90010  0.57030  0.87880  Biso   1.000  C
  C58      1.0000 0.94000  0.62160  0.85870  Biso   1.000  C
  H93      1.0000 0.93780  0.63310  0.78060  Biso   1.000  H
  H94      1.0000 0.97970  0.61070  0.87690  Biso   1.000  H
  H95      1.0000 0.92800  0.65390  0.90560  Biso   1.000  H
  C59      1.0000 0.81780  0.51420  0.59220  Biso   1.000  C
  C60      1.0000 0.88030  0.52340  0.59110  Biso   1.000  C
  H96      1.0000 0.89370  0.53120  0.66670  Biso   1.000  H
  H97      1.0000 0.88940  0.55640  0.54350  Biso   1.000  H
  H98      1.0000 0.89950  0.48880  0.56260  Biso   1.000  H
  C61      1.0000 0.85850  0.71130  0.63460  Biso   1.000  C
  C62      1.0000 0.91070  0.72770  0.56950  Biso   1.000  C
  H99      1.0000 0.90420  0.71910  0.49100  Biso   1.000  H
  H100     1.0000 0.94400  0.70570  0.59630  Biso   1.000  H
  H101     1.0000 0.91810  0.76900  0.57850  Biso   1.000  H
  C63      1.0000 0.77490  0.68140  0.97010  Biso   1.000  C
  C64      1.0000 0.76430  0.73260  0.03980  Biso   1.000  C
  H102     1.0000 0.73160  0.72510  0.08910  Biso   1.000  H
  H103     1.0000 0.75550  0.76570  0.99240  Biso   1.000  H
  H104     1.0000 0.79870  0.74090  0.08410  Biso   1.000  H
  Mg17     1.0000 0.37017  0.45766  0.49990  Biso   1.000  Mg
  Mg18     1.0000 0.27393  0.54866  0.53960  Biso   1.000  Mg
  O73      1.0000 0.32586  0.40176  0.39230  Biso   1.000  O
  O74      1.0000 0.27440  0.32900  0.32800  Biso   1.000  O
  O75      1.0000 0.29593  0.46424  0.59940  Biso   1.000  O
  O76      1.0000 0.22210  0.45000  0.70930  Biso   1.000  O
  O77      1.0000 0.40930  0.39700  0.59120  Biso   1.000  O
  O78      1.0000 0.50080  0.42490  0.58690  Biso   1.000  O
  O79      1.0000 0.43941  0.46700  0.38470  Biso   1.000  O
  O80      1.0000 0.38390  0.47340  0.23500  Biso   1.000  O
  O81      1.0000 0.32680  0.52070  0.42220  Biso   1.000  O
  H105     1.0000 0.34600  0.54000  0.41800  Biso   1.000  H
  C65      1.0000 0.32030  0.34990  0.37120  Biso   1.000  C
  C66      1.0000 0.37160  0.31000  0.39130  Biso   1.000  C
  H106     1.0000 0.38310  0.31220  0.46940  Biso   1.000  H
  H107     1.0000 0.36070  0.27030  0.37310  Biso   1.000  H
  H108     1.0000 0.40390  0.32200  0.34440  Biso   1.000  H
  C67      1.0000 0.26420  0.43220  0.65780  Biso   1.000  C
  C68      1.0000 0.27340  0.36970  0.65890  Biso   1.000  C
  H109     1.0000 0.28120  0.35630  0.58330  Biso   1.000  H
  H110     1.0000 0.30640  0.36060  0.70650  Biso   1.000  H
  H111     1.0000 0.23880  0.35050  0.68740  Biso   1.000  H
  C69      1.0000 0.46130  0.39150  0.61540  Biso   1.000  C
  C70      1.0000 0.47770  0.33930  0.68050  Biso   1.000  C
  H112     1.0000 0.46910  0.34580  0.75900  Biso   1.000  H
  H113     1.0000 0.45570  0.30600  0.65370  Biso   1.000  H
  H114     1.0000 0.51900  0.33190  0.67150  Biso   1.000  H
  C71      1.0000 0.43140  0.47510  0.27990  Biso   1.000  C
  C72      1.0000 0.48260  0.48570  0.21020  Biso   1.000  C
  H115     1.0000 0.47510  0.51840  0.16090  Biso   1.000  H
  H116     1.0000 0.51570  0.49450  0.25760  Biso   1.000  H
  H117     1.0000 0.49090  0.45130  0.16590  Biso   1.000  H
  Mg19     1.0000 0.87017  0.95766  0.99990  Biso   1.000  Mg
  Mg20     1.0000 0.77393  0.04866  0.03960  Biso   1.000  Mg
  O82      1.0000 0.82586  0.90176  0.89230  Biso   1.000  O
  O83      1.0000 0.77440  0.82900  0.82800  Biso   1.000  O
  O84      1.0000 0.79593  0.96424  0.09940  Biso   1.000  O
  O85      1.0000 0.72210  0.95000  0.20930  Biso   1.000  O
  O86      1.0000 0.90930  0.89700  0.09120  Biso   1.000  O
  O87      1.0000 0.00080  0.92490  0.08690  Biso   1.000  O
  O88      1.0000 0.93941  0.96700  0.88470  Biso   1.000  O
  O89      1.0000 0.88390  0.97340  0.73500  Biso   1.000  O
  O90      1.0000 0.82680  0.02070  0.92220  Biso   1.000  O
  H118     1.0000 0.84600  0.04000  0.91800  Biso   1.000  H
  C73      1.0000 0.82030  0.84990  0.87120  Biso   1.000  C
  C74      1.0000 0.87160  0.81000  0.89130  Biso   1.000  C
  H119     1.0000 0.88310  0.81220  0.96940  Biso   1.000  H
  H120     1.0000 0.86070  0.77030  0.87310  Biso   1.000  H
  H121     1.0000 0.90390  0.82200  0.84440  Biso   1.000  H
  C75      1.0000 0.76420  0.93220  0.15780  Biso   1.000  C
  C76      1.0000 0.77340  0.86970  0.15890  Biso   1.000  C
  H122     1.0000 0.78120  0.85630  0.08330  Biso   1.000  H
  H123     1.0000 0.80640  0.86060  0.20650  Biso   1.000  H
  H124     1.0000 0.73880  0.85050  0.18740  Biso   1.000  H
  C77      1.0000 0.96130  0.89150  0.11540  Biso   1.000  C
  C78      1.0000 0.97770  0.83930  0.18050  Biso   1.000  C
  H125     1.0000 0.96910  0.84580  0.25900  Biso   1.000  H
  H126     1.0000 0.95570  0.80600  0.15370  Biso   1.000  H
  H127     1.0000 0.01900  0.83190  0.17150  Biso   1.000  H
  C79      1.0000 0.93140  0.97510  0.77990  Biso   1.000  C
  C80      1.0000 0.98260  0.98570  0.71020  Biso   1.000  C
  H128     1.0000 0.97510  0.01840  0.66090  Biso   1.000  H
  H129     1.0000 0.01570  0.99450  0.75760  Biso   1.000  H
  H130     1.0000 0.99090  0.95130  0.66590  Biso   1.000  H
  Mg21     1.0000 0.12983  0.54234  0.99990  Biso   1.000  Mg
  Mg22     1.0000 0.22607  0.45134  0.03960  Biso   1.000  Mg
  O91      1.0000 0.17414  0.59824  0.89230  Biso   1.000  O
  O92      1.0000 0.22560  0.67100  0.82800  Biso   1.000  O
  O93      1.0000 0.20407  0.53576  0.09940  Biso   1.000  O
  O94      1.0000 0.27790  0.55000  0.20930  Biso   1.000  O
  O95      1.0000 0.09070  0.60300  0.09120  Biso   1.000  O
  O96      1.0000 0.99920  0.57510  0.08690  Biso   1.000  O
  O97      1.0000 0.06059  0.53300  0.88470  Biso   1.000  O
  O98      1.0000 0.11610  0.52660  0.73500  Biso   1.000  O
  O99      1.0000 0.17320  0.47930  0.92220  Biso   1.000  O
  H131     1.0000 0.15400  0.46000  0.91800  Biso   1.000  H
  C81      1.0000 0.17970  0.65010  0.87120  Biso   1.000  C
  C82      1.0000 0.12840  0.69000  0.89130  Biso   1.000  C
  H132     1.0000 0.11690  0.68780  0.96940  Biso   1.000  H
  H133     1.0000 0.13930  0.72970  0.87310  Biso   1.000  H
  H134     1.0000 0.09610  0.67800  0.84440  Biso   1.000  H
  C83      1.0000 0.23580  0.56780  0.15780  Biso   1.000  C
  C84      1.0000 0.22660  0.63030  0.15890  Biso   1.000  C
  H135     1.0000 0.21880  0.64370  0.08330  Biso   1.000  H
  H136     1.0000 0.19360  0.63940  0.20650  Biso   1.000  H
  H137     1.0000 0.26120  0.64950  0.18740  Biso   1.000  H
  C85      1.0000 0.03870  0.60850  0.11540  Biso   1.000  C
  C86      1.0000 0.02230  0.66070  0.18050  Biso   1.000  C
  H138     1.0000 0.03090  0.65420  0.25900  Biso   1.000  H
  H139     1.0000 0.04430  0.69400  0.15370  Biso   1.000  H
  H140     1.0000 0.98100  0.66810  0.17150  Biso   1.000  H
  C87      1.0000 0.06860  0.52490  0.77990  Biso   1.000  C
  C88      1.0000 0.01740  0.51430  0.71020  Biso   1.000  C
  H141     1.0000 0.02490  0.48160  0.66090  Biso   1.000  H
  H142     1.0000 0.98430  0.50550  0.75760  Biso   1.000  H
  H143     1.0000 0.00910  0.54870  0.66590  Biso   1.000  H
  Mg23     1.0000 0.62983  0.04234  0.49990  Biso   1.000  Mg
  Mg24     1.0000 0.72607  0.95134  0.53960  Biso   1.000  Mg
  O100     1.0000 0.67414  0.09824  0.39230  Biso   1.000  O
  O101     1.0000 0.72560  0.17100  0.32800  Biso   1.000  O
  O102     1.0000 0.70407  0.03576  0.59940  Biso   1.000  O
  O103     1.0000 0.77790  0.05000  0.70930  Biso   1.000  O
  O104     1.0000 0.59070  0.10300  0.59120  Biso   1.000  O
  O105     1.0000 0.49920  0.07510  0.58690  Biso   1.000  O
  O106     1.0000 0.56059  0.03300  0.38470  Biso   1.000  O
  O107     1.0000 0.61610  0.02660  0.23500  Biso   1.000  O
  O108     1.0000 0.67320  0.97930  0.42220  Biso   1.000  O
  H144     1.0000 0.65400  0.96000  0.41800  Biso   1.000  H
  C89      1.0000 0.67970  0.15010  0.37120  Biso   1.000  C
  C90      1.0000 0.62840  0.19000  0.39130  Biso   1.000  C
  H145     1.0000 0.61690  0.18780  0.46940  Biso   1.000  H
  H146     1.0000 0.63930  0.22970  0.37310  Biso   1.000  H
  H147     1.0000 0.59610  0.17800  0.34440  Biso   1.000  H
  C91      1.0000 0.73580  0.06780  0.65780  Biso   1.000  C
  C92      1.0000 0.72660  0.13030  0.65890  Biso   1.000  C
  H148     1.0000 0.71880  0.14370  0.58330  Biso   1.000  H
  H149     1.0000 0.69360  0.13940  0.70650  Biso   1.000  H
  H150     1.0000 0.76120  0.14950  0.68740  Biso   1.000  H
  C93      1.0000 0.53870  0.10850  0.61540  Biso   1.000  C
  C94      1.0000 0.52230  0.16070  0.68050  Biso   1.000  C
  H151     1.0000 0.53090  0.15420  0.75900  Biso   1.000  H
  H152     1.0000 0.54430  0.19400  0.65370  Biso   1.000  H
  H153     1.0000 0.48100  0.16810  0.67150  Biso   1.000  H
  C95      1.0000 0.56860  0.02490  0.27990  Biso   1.000  C
  C96      1.0000 0.51740  0.01430  0.21020  Biso   1.000  C
  H154     1.0000 0.52490  0.98160  0.16090  Biso   1.000  H
  H155     1.0000 0.48430  0.00550  0.25760  Biso   1.000  H
  H156     1.0000 0.50910  0.04870  0.16590  Biso   1.000  H
  Mg25     1.0000 0.79234  0.12017  0.24990  Biso   1.000  Mg
  Mg26     1.0000 0.70134  0.02393  0.28960  Biso   1.000  Mg
  O109     1.0000 0.84824  0.07586  0.14230  Biso   1.000  O
  O110     1.0000 0.92100  0.02440  0.07800  Biso   1.000  O
  O111     1.0000 0.78576  0.04593  0.34940  Biso   1.000  O
  O112     1.0000 0.80000  0.97210  0.45930  Biso   1.000  O
  O113     1.0000 0.85300  0.15930  0.34120  Biso   1.000  O
  O114     1.0000 0.82510  0.25080  0.33690  Biso   1.000  O
  O115     1.0000 0.78300  0.18941  0.13470  Biso   1.000  O
  O116     1.0000 0.77660  0.13390  0.98500  Biso   1.000  O
  O117     1.0000 0.72930  0.07680  0.17220  Biso   1.000  O
  H157     1.0000 0.71000  0.09600  0.16800  Biso   1.000  H
  C97      1.0000 0.90010  0.07030  0.12120  Biso   1.000  C
  C98      1.0000 0.94000  0.12160  0.14130  Biso   1.000  C
  H158     1.0000 0.93780  0.13310  0.21940  Biso   1.000  H
  H159     1.0000 0.97970  0.11070  0.12310  Biso   1.000  H
  H160     1.0000 0.92800  0.15390  0.09440  Biso   1.000  H
  C99      1.0000 0.81780  0.01420  0.40780  Biso   1.000  C
  C100     1.0000 0.88030  0.02340  0.40890  Biso   1.000  C
  H161     1.0000 0.89370  0.03120  0.33330  Biso   1.000  H
  H162     1.0000 0.88940  0.05640  0.45650  Biso   1.000  H
  H163     1.0000 0.89950  0.98880  0.43740  Biso   1.000  H
  C101     1.0000 0.85850  0.21130  0.36540  Biso   1.000  C
  C102     1.0000 0.91070  0.22770  0.43050  Biso   1.000  C
  H164     1.0000 0.90420  0.21910  0.50900  Biso   1.000  H
  H165     1.0000 0.94400  0.20570  0.40370  Biso   1.000  H
  H166     1.0000 0.91810  0.26900  0.42150  Biso   1.000  H
  C103     1.0000 0.77490  0.18140  0.02990  Biso   1.000  C
  C104     1.0000 0.76430  0.23260  0.96020  Biso   1.000  C
  H167     1.0000 0.73160  0.22510  0.91090  Biso   1.000  H
  H168     1.0000 0.75550  0.26570  0.00760  Biso   1.000  H
  H169     1.0000 0.79870  0.24090  0.91590  Biso   1.000  H
  Mg27     1.0000 0.29234  0.62017  0.74990  Biso   1.000  Mg
  Mg28     1.0000 0.20134  0.52393  0.78960  Biso   1.000  Mg
  O118     1.0000 0.34824  0.57586  0.64230  Biso   1.000  O
  O119     1.0000 0.42100  0.52440  0.57800  Biso   1.000  O
  O120     1.0000 0.28576  0.54593  0.84940  Biso   1.000  O
  O121     1.0000 0.30000  0.47210  0.95930  Biso   1.000  O
  O122     1.0000 0.35300  0.65930  0.84120  Biso   1.000  O
  O123     1.0000 0.32510  0.75080  0.83690  Biso   1.000  O
  O124     1.0000 0.28300  0.68941  0.63470  Biso   1.000  O
  O125     1.0000 0.27660  0.63390  0.48500  Biso   1.000  O
  O126     1.0000 0.22930  0.57680  0.67220  Biso   1.000  O
  H170     1.0000 0.21000  0.59600  0.66800  Biso   1.000  H
  C105     1.0000 0.40010  0.57030  0.62120  Biso   1.000  C
  C106     1.0000 0.44000  0.62160  0.64130  Biso   1.000  C
  H171     1.0000 0.43780  0.63310  0.71940  Biso   1.000  H
  H172     1.0000 0.47970  0.61070  0.62310  Biso   1.000  H
  H173     1.0000 0.42800  0.65390  0.59440  Biso   1.000  H
  C107     1.0000 0.31780  0.51420  0.90780  Biso   1.000  C
  C108     1.0000 0.38030  0.52340  0.90890  Biso   1.000  C
  H174     1.0000 0.39370  0.53120  0.83330  Biso   1.000  H
  H175     1.0000 0.38940  0.55640  0.95650  Biso   1.000  H
  H176     1.0000 0.39950  0.48880  0.93740  Biso   1.000  H
  C109     1.0000 0.35850  0.71130  0.86540  Biso   1.000  C
  C110     1.0000 0.41070  0.72770  0.93050  Biso   1.000  C
  H177     1.0000 0.40420  0.71910  0.00900  Biso   1.000  H
  H178     1.0000 0.44400  0.70570  0.90370  Biso   1.000  H
  H179     1.0000 0.41810  0.76900  0.92150  Biso   1.000  H
  C111     1.0000 0.27490  0.68140  0.52990  Biso   1.000  C
  C112     1.0000 0.26430  0.73260  0.46020  Biso   1.000  C
  H180     1.0000 0.23160  0.72510  0.41090  Biso   1.000  H
  H181     1.0000 0.25550  0.76570  0.50760  Biso   1.000  H
  H182     1.0000 0.29870  0.74090  0.41590  Biso   1.000  H
  Mg29     1.0000 0.70766  0.87983  0.74990  Biso   1.000  Mg
  Mg30     1.0000 0.79866  0.97607  0.78960  Biso   1.000  Mg
  O127     1.0000 0.65176  0.92414  0.64230  Biso   1.000  O
  O128     1.0000 0.57900  0.97560  0.57800  Biso   1.000  O
  O129     1.0000 0.71424  0.95407  0.84940  Biso   1.000  O
  O130     1.0000 0.70000  0.02790  0.95930  Biso   1.000  O
  O131     1.0000 0.64700  0.84070  0.84120  Biso   1.000  O
  O132     1.0000 0.67490  0.74920  0.83690  Biso   1.000  O
  O133     1.0000 0.71700  0.81059  0.63470  Biso   1.000  O
  O134     1.0000 0.72340  0.86610  0.48500  Biso   1.000  O
  O135     1.0000 0.77070  0.92320  0.67220  Biso   1.000  O
  H183     1.0000 0.79000  0.90400  0.66800  Biso   1.000  H
  C113     1.0000 0.59990  0.92970  0.62120  Biso   1.000  C
  C114     1.0000 0.56000  0.87840  0.64130  Biso   1.000  C
  H184     1.0000 0.56220  0.86690  0.71940  Biso   1.000  H
  H185     1.0000 0.52030  0.88930  0.62310  Biso   1.000  H
  H186     1.0000 0.57200  0.84610  0.59440  Biso   1.000  H
  C115     1.0000 0.68220  0.98580  0.90780  Biso   1.000  C
  C116     1.0000 0.61970  0.97660  0.90890  Biso   1.000  C
  H187     1.0000 0.60630  0.96880  0.83330  Biso   1.000  H
  H188     1.0000 0.61060  0.94360  0.95650  Biso   1.000  H
  H189     1.0000 0.60050  0.01120  0.93740  Biso   1.000  H
  C117     1.0000 0.64150  0.78870  0.86540  Biso   1.000  C
  C118     1.0000 0.58930  0.77230  0.93050  Biso   1.000  C
  H190     1.0000 0.59580  0.78090  0.00900  Biso   1.000  H
  H191     1.0000 0.55600  0.79430  0.90370  Biso   1.000  H
  H192     1.0000 0.58190  0.73100  0.92150  Biso   1.000  H
  C119     1.0000 0.72510  0.81860  0.52990  Biso   1.000  C
  C120     1.0000 0.73570  0.76740  0.46020  Biso   1.000  C
  H193     1.0000 0.76840  0.77490  0.41090  Biso   1.000  H
  H194     1.0000 0.74450  0.73430  0.50760  Biso   1.000  H
  H195     1.0000 0.70130  0.75910  0.41590  Biso   1.000  H
  Mg31     1.0000 0.20766  0.37983  0.24990  Biso   1.000  Mg
  Mg32     1.0000 0.29866  0.47607  0.28960  Biso   1.000  Mg
  O136     1.0000 0.15176  0.42414  0.14230  Biso   1.000  O
  O137     1.0000 0.07900  0.47560  0.07800  Biso   1.000  O
  O138     1.0000 0.21424  0.45407  0.34940  Biso   1.000  O
  O139     1.0000 0.20000  0.52790  0.45930  Biso   1.000  O
  O140     1.0000 0.14700  0.34070  0.34120  Biso   1.000  O
  O141     1.0000 0.17490  0.24920  0.33690  Biso   1.000  O
  O142     1.0000 0.21700  0.31059  0.13470  Biso   1.000  O
  O143     1.0000 0.22340  0.36610  0.98500  Biso   1.000  O
  O144     1.0000 0.27070  0.42320  0.17220  Biso   1.000  O
  H196     1.0000 0.29000  0.40400  0.16800  Biso   1.000  H
  C121     1.0000 0.09990  0.42970  0.12120  Biso   1.000  C
  C122     1.0000 0.06000  0.37840  0.14130  Biso   1.000  C
  H197     1.0000 0.06220  0.36690  0.21940  Biso   1.000  H
  H198     1.0000 0.02030  0.38930  0.12310  Biso   1.000  H
  H199     1.0000 0.07200  0.34610  0.09440  Biso   1.000  H
  C123     1.0000 0.18220  0.48580  0.40780  Biso   1.000  C
  C124     1.0000 0.11970  0.47660  0.40890  Biso   1.000  C
  H200     1.0000 0.10630  0.46880  0.33330  Biso   1.000  H
  H201     1.0000 0.11060  0.44360  0.45650  Biso   1.000  H
  H202     1.0000 0.10050  0.51120  0.43740  Biso   1.000  H
  C125     1.0000 0.14150  0.28870  0.36540  Biso   1.000  C
  C126     1.0000 0.08930  0.27230  0.43050  Biso   1.000  C
  H203     1.0000 0.09580  0.28090  0.50900  Biso   1.000  H
  H204     1.0000 0.05600  0.29430  0.40370  Biso   1.000  H
  H205     1.0000 0.08190  0.23100  0.42150  Biso   1.000  H
  C127     1.0000 0.22510  0.31860  0.02990  Biso   1.000  C
  C128     1.0000 0.23570  0.26740  0.96020  Biso   1.000  C
  H206     1.0000 0.26840  0.27490  0.91090  Biso   1.000  H
  H207     1.0000 0.24450  0.23430  0.00760  Biso   1.000  H
  H208     1.0000 0.20130  0.25910  0.91590  Biso   1.000  H
  Mg33     1.0000 0.50000  0.50000  0.50000  Biso   1.000  Mg
  Mg34     1.0000 0.00000  0.00000  0.00000  Biso   1.000  Mg
  Mg35     1.0000 0.00000  0.50000  0.00000  Biso   1.000  Mg
  Mg36     1.0000 0.50000  0.00000  0.50000  Biso   1.000  Mg
  Mg37     1.0000 0.25000  0.75000  0.75000  Biso   1.000  Mg
  Mg38     1.0000 0.25000  0.25000  0.25000  Biso   1.000  Mg
  Mg39     1.0000 0.75000  0.25000  0.25000  Biso   1.000  Mg
  Mg40     1.0000 0.75000  0.75000  0.75000  Biso   1.000  Mg
