data_image0
_cell_length_a       14.349
_cell_length_b       12.088
_cell_length_c       26.62
_cell_angle_alpha    90
_cell_angle_beta     97.255
_cell_angle_gamma    90

_symmetry_space_group_name_H-M    "P 1"
_symmetry_int_tables_number       1

loop_
  _symmetry_equiv_pos_as_xyz
  'x, y, z'

loop_
  _atom_site_label
  _atom_site_occupancy
  _atom_site_fract_x
  _atom_site_fract_y
  _atom_site_fract_z
  _atom_site_thermal_displace_type
  _atom_site_B_iso_or_equiv
  _atom_site_type_symbol
  Co1      1.0000 0.15946  0.21171  0.30730  Biso   1.000  Co
  Co2      1.0000 0.64194  0.83762  0.78506  Biso   1.000  Co
  C1       1.0000 0.08580  0.02860  0.23080  Biso   1.000  C
  H1       1.0000 0.11930  0.98270  0.25460  Biso   1.000  H
  C2       1.0000 0.04560  0.98180  0.18610  Biso   1.000  C
  H2       1.0000 0.05200  0.90670  0.17980  Biso   1.000  H
  C3       1.0000 0.99530  0.05060  0.15060  Biso   1.000  C
  C4       1.0000 0.98380  0.16300  0.16300  Biso   1.000  C
  H3       1.0000 0.94830  0.21010  0.14060  Biso   1.000  H
  C5       1.0000 0.02620  0.20090  0.20860  Biso   1.000  C
  H4       1.0000 0.01780  0.27460  0.21710  Biso   1.000  H
  C6       1.0000 0.95700  0.00590  0.10000  Biso   1.000  C
  H5       1.0000 0.95550  0.92970  0.09510  Biso   1.000  H
  C7       1.0000 0.85800  0.06550  0.98300  Biso   1.000  C
  H6       1.0000 0.85960  0.14220  0.98570  Biso   1.000  H
  C8       1.0000 0.81640  0.01220  0.93650  Biso   1.000  C
  C9       1.0000 0.81030  0.89980  0.93000  Biso   1.000  C
  H7       1.0000 0.83740  0.85330  0.95560  Biso   1.000  H
  C10      1.0000 0.76480  0.85470  0.88630  Biso   1.000  C
  H8       1.0000 0.76210  0.77810  0.88310  Biso   1.000  H
  C11      1.0000 0.73150  0.02670  0.85250  Biso   1.000  C
  H9       1.0000 0.70600  0.07100  0.82570  Biso   1.000  H
  C12      1.0000 0.77640  0.07710  0.89590  Biso   1.000  C
  H10      1.0000 0.77990  0.15380  0.89790  Biso   1.000  H
  C13      1.0000 0.24620  0.40060  0.37680  Biso   1.000  C
  H11      1.0000 0.21990  0.44480  0.35010  Biso   1.000  H
  C14      1.0000 0.29140  0.45150  0.41890  Biso   1.000  C
  H12      1.0000 0.29370  0.52830  0.42080  Biso   1.000  H
  C15      1.0000 0.33360  0.38830  0.45840  Biso   1.000  C
  C16      1.0000 0.32620  0.27210  0.45380  Biso   1.000  C
  H13      1.0000 0.35320  0.22640  0.47980  Biso   1.000  H
  C17      1.0000 0.27850  0.22740  0.41050  Biso   1.000  C
  H14      1.0000 0.27430  0.15080  0.40760  Biso   1.000  H
  C18      1.0000 0.38310  0.43680  0.50530  Biso   1.000  C
  H15      1.0000 0.41240  0.38960  0.53000  Biso   1.000  H
  C19      1.0000 0.42810  0.65950  0.57440  Biso   1.000  C
  H16      1.0000 0.39420  0.70920  0.55250  Biso   1.000  H
  C20      1.0000 0.47090  0.69790  0.62520  Biso   1.000  C
  C21      1.0000 0.52320  0.62470  0.65750  Biso   1.000  C
  H17      1.0000 0.52900  0.55100  0.64840  Biso   1.000  H
  C22      1.0000 0.56660  0.66340  0.70350  Biso   1.000  C
  H18      1.0000 0.60380  0.61480  0.72440  Biso   1.000  H
  C23      1.0000 0.50280  0.83480  0.68930  Biso   1.000  C
  H19      1.0000 0.49350  0.90650  0.70030  Biso   1.000  H
  C24      1.0000 0.45890  0.80340  0.64220  Biso   1.000  C
  H20      1.0000 0.42150  0.85350  0.62220  Biso   1.000  H
  C25      1.0000 0.30230  0.01660  0.29580  Biso   1.000  C
  C26      1.0000 0.31390  0.90930  0.32650  Biso   1.000  C
  H21      1.0000 0.25850  0.90110  0.34420  Biso   1.000  H
  C27      1.0000 0.40120  0.91910  0.36700  Biso   1.000  C
  H22      1.0000 0.45640  0.93330  0.35040  Biso   1.000  H
  H23      1.0000 0.39290  0.98120  0.38910  Biso   1.000  H
  C28      1.0000 0.41640  0.81390  0.39860  Biso   1.000  C
  H24      1.0000 0.47480  0.82070  0.42120  Biso   1.000  H
  H25      1.0000 0.36580  0.80660  0.41930  Biso   1.000  H
  C29      1.0000 0.42040  0.70980  0.36680  Biso   1.000  C
  H26      1.0000 0.41960  0.64620  0.38960  Biso   1.000  H
  C30      1.0000 0.33180  0.70300  0.32790  Biso   1.000  C
  H27      1.0000 0.27700  0.69460  0.34550  Biso   1.000  H
  H28      1.0000 0.33580  0.63860  0.30660  Biso   1.000  H
  C31      1.0000 0.32130  0.80740  0.29500  Biso   1.000  C
  H29      1.0000 0.37510  0.81410  0.27650  Biso   1.000  H
  H30      1.0000 0.26540  0.80090  0.27050  Biso   1.000  H
  C32      1.0000 0.50970  0.69860  0.33860  Biso   1.000  C
  C33      1.0000 0.21010  0.35680  0.22710  Biso   1.000  C
  C34      1.0000 0.19520  0.45860  0.19260  Biso   1.000  C
  H31      1.0000 0.25400  0.47280  0.17850  Biso   1.000  H
  C35      1.0000 0.11720  0.43440  0.14740  Biso   1.000  C
  H32      1.0000 0.13330  0.36800  0.12990  Biso   1.000  H
  H33      1.0000 0.05790  0.42140  0.16040  Biso   1.000  H
  C36      1.0000 0.10660  0.53080  0.11050  Biso   1.000  C
  H34      1.0000 0.05510  0.51530  0.08420  Biso   1.000  H
  H35      1.0000 0.16350  0.53680  0.09440  Biso   1.000  H
  C37      1.0000 0.08830  0.64190  0.13520  Biso   1.000  C
  H36      1.0000 0.09790  0.70010  0.11080  Biso   1.000  H
  C38      1.0000 0.16080  0.66060  0.18230  Biso   1.000  C
  H37      1.0000 0.22190  0.67450  0.17150  Biso   1.000  H
  H38      1.0000 0.14320  0.72580  0.20010  Biso   1.000  H
  C39      1.0000 0.16840  0.56310  0.21810  Biso   1.000  C
  H39      1.0000 0.21510  0.57900  0.24680  Biso   1.000  H
  H40      1.0000 0.10850  0.55210  0.23080  Biso   1.000  H
  C40      1.0000 0.98960  0.65250  0.14750  Biso   1.000  C
  N1       1.0000 0.07980  0.13540  0.24202  Biso   1.000  N
  N2       1.0000 0.92670  0.06880  0.06362  Biso   1.000  N
  N3       1.0000 0.89290  0.00370  0.02061  Biso   1.000  N
  N4       1.0000 0.72380  0.91770  0.84792  Biso   1.000  N
  N5       1.0000 0.23760  0.29000  0.37183  Biso   1.000  N
  N6       1.0000 0.38690  0.53890  0.51308  Biso   1.000  N
  N7       1.0000 0.43660  0.56140  0.56050  Biso   1.000  N
  N8       1.0000 0.55740  0.76770  0.71934  Biso   1.000  N
  O1       1.0000 0.25850  0.09320  0.31421  Biso   1.000  O
  O2       1.0000 0.34090  0.02300  0.25662  Biso   1.000  O
  O3       1.0000 0.57460  0.76760  0.34540  Biso   1.000  O
  O4       1.0000 0.51450  0.61870  0.31018  Biso   1.000  O
  O5       1.0000 0.25860  0.27890  0.21225  Biso   1.000  O
  O6       1.0000 0.16990  0.35380  0.26677  Biso   1.000  O
  O7       1.0000 0.96820  0.74530  0.16760  Biso   1.000  O
  O8       1.0000 0.93000  0.57880  0.14190  Biso   1.000  O
  Co3      1.0000 0.84054  0.71171  0.19270  Biso   1.000  Co
  Co4      1.0000 0.35806  0.33762  0.71494  Biso   1.000  Co
  C41      1.0000 0.91420  0.52860  0.26920  Biso   1.000  C
  H41      1.0000 0.88070  0.48270  0.24540  Biso   1.000  H
  C42      1.0000 0.95440  0.48180  0.31390  Biso   1.000  C
  H42      1.0000 0.94800  0.40670  0.32020  Biso   1.000  H
  C43      1.0000 0.00470  0.55060  0.34940  Biso   1.000  C
  C44      1.0000 0.01620  0.66300  0.33700  Biso   1.000  C
  H43      1.0000 0.05170  0.71010  0.35940  Biso   1.000  H
  C45      1.0000 0.97380  0.70090  0.29140  Biso   1.000  C
  H44      1.0000 0.98220  0.77460  0.28290  Biso   1.000  H
  C46      1.0000 0.04300  0.50590  0.40000  Biso   1.000  C
  H45      1.0000 0.04450  0.42970  0.40490  Biso   1.000  H
  C47      1.0000 0.14200  0.56550  0.51700  Biso   1.000  C
  H46      1.0000 0.14040  0.64220  0.51430  Biso   1.000  H
  C48      1.0000 0.18360  0.51220  0.56350  Biso   1.000  C
  C49      1.0000 0.18970  0.39980  0.57000  Biso   1.000  C
  H47      1.0000 0.16260  0.35330  0.54440  Biso   1.000  H
  C50      1.0000 0.23520  0.35470  0.61370  Biso   1.000  C
  H48      1.0000 0.23790  0.27810  0.61690  Biso   1.000  H
  C51      1.0000 0.26850  0.52670  0.64750  Biso   1.000  C
  H49      1.0000 0.29400  0.57100  0.67430  Biso   1.000  H
  C52      1.0000 0.22360  0.57710  0.60410  Biso   1.000  C
  H50      1.0000 0.22010  0.65380  0.60210  Biso   1.000  H
  C53      1.0000 0.75380  0.90060  0.12320  Biso   1.000  C
  H51      1.0000 0.78010  0.94480  0.14990  Biso   1.000  H
  C54      1.0000 0.70860  0.95150  0.08110  Biso   1.000  C
  H52      1.0000 0.70630  0.02830  0.07920  Biso   1.000  H
  C55      1.0000 0.66640  0.88830  0.04160  Biso   1.000  C
  C56      1.0000 0.67380  0.77210  0.04620  Biso   1.000  C
  H53      1.0000 0.64680  0.72640  0.02020  Biso   1.000  H
  C57      1.0000 0.72150  0.72740  0.08950  Biso   1.000  C
  H54      1.0000 0.72570  0.65080  0.09240  Biso   1.000  H
  C58      1.0000 0.61690  0.93680  0.99470  Biso   1.000  C
  H55      1.0000 0.58760  0.88960  0.97000  Biso   1.000  H
  C59      1.0000 0.57190  0.15950  0.92560  Biso   1.000  C
  H56      1.0000 0.60580  0.20920  0.94750  Biso   1.000  H
  C60      1.0000 0.52910  0.19790  0.87480  Biso   1.000  C
  C61      1.0000 0.47680  0.12470  0.84250  Biso   1.000  C
  H57      1.0000 0.47100  0.05100  0.85160  Biso   1.000  H
  C62      1.0000 0.43340  0.16340  0.79650  Biso   1.000  C
  H58      1.0000 0.39620  0.11480  0.77560  Biso   1.000  H
  C63      1.0000 0.49720  0.33480  0.81070  Biso   1.000  C
  H59      1.0000 0.50650  0.40650  0.79970  Biso   1.000  H
  C64      1.0000 0.54110  0.30340  0.85780  Biso   1.000  C
  H60      1.0000 0.57850  0.35350  0.87780  Biso   1.000  H
  C65      1.0000 0.69770  0.51660  0.20420  Biso   1.000  C
  C66      1.0000 0.68610  0.40930  0.17350  Biso   1.000  C
  H61      1.0000 0.74150  0.40110  0.15580  Biso   1.000  H
  C67      1.0000 0.59880  0.41910  0.13300  Biso   1.000  C
  H62      1.0000 0.54360  0.43330  0.14960  Biso   1.000  H
  H63      1.0000 0.60710  0.48120  0.11090  Biso   1.000  H
  C68      1.0000 0.58360  0.31390  0.10140  Biso   1.000  C
  H64      1.0000 0.52520  0.32070  0.07880  Biso   1.000  H
  H65      1.0000 0.63420  0.30660  0.08070  Biso   1.000  H
  C69      1.0000 0.57960  0.20980  0.13320  Biso   1.000  C
  H66      1.0000 0.58040  0.14620  0.11040  Biso   1.000  H
  C70      1.0000 0.66820  0.20300  0.17210  Biso   1.000  C
  H67      1.0000 0.72300  0.19460  0.15450  Biso   1.000  H
  H68      1.0000 0.66420  0.13860  0.19340  Biso   1.000  H
  C71      1.0000 0.67870  0.30740  0.20500  Biso   1.000  C
  H69      1.0000 0.62490  0.31410  0.22350  Biso   1.000  H
  H70      1.0000 0.73460  0.30090  0.22950  Biso   1.000  H
  C72      1.0000 0.49030  0.19860  0.16140  Biso   1.000  C
  C73      1.0000 0.78990  0.85680  0.27290  Biso   1.000  C
  C74      1.0000 0.80480  0.95860  0.30740  Biso   1.000  C
  H71      1.0000 0.74600  0.97280  0.32150  Biso   1.000  H
  C75      1.0000 0.88280  0.93440  0.35260  Biso   1.000  C
  H72      1.0000 0.86670  0.86800  0.37010  Biso   1.000  H
  H73      1.0000 0.94210  0.92140  0.33960  Biso   1.000  H
  C76      1.0000 0.89340  0.03080  0.38950  Biso   1.000  C
  H74      1.0000 0.94490  0.01530  0.41580  Biso   1.000  H
  H75      1.0000 0.83650  0.03680  0.40560  Biso   1.000  H
  C77      1.0000 0.91170  0.14190  0.36480  Biso   1.000  C
  H76      1.0000 0.90210  0.20010  0.38920  Biso   1.000  H
  C78      1.0000 0.83920  0.16060  0.31770  Biso   1.000  C
  H77      1.0000 0.77810  0.17450  0.32850  Biso   1.000  H
  H78      1.0000 0.85680  0.22580  0.29990  Biso   1.000  H
  C79      1.0000 0.83160  0.06310  0.28190  Biso   1.000  C
  H79      1.0000 0.78490  0.07900  0.25320  Biso   1.000  H
  H80      1.0000 0.89150  0.05210  0.26920  Biso   1.000  H
  C80      1.0000 0.01040  0.15250  0.35250  Biso   1.000  C
  N9       1.0000 0.92020  0.63540  0.25798  Biso   1.000  N
  N10      1.0000 0.07330  0.56880  0.43638  Biso   1.000  N
  N11      1.0000 0.10710  0.50370  0.47939  Biso   1.000  N
  N12      1.0000 0.27620  0.41770  0.65208  Biso   1.000  N
  N13      1.0000 0.76240  0.79000  0.12817  Biso   1.000  N
  N14      1.0000 0.61310  0.03890  0.98692  Biso   1.000  N
  N15      1.0000 0.56340  0.06140  0.93950  Biso   1.000  N
  N16      1.0000 0.44260  0.26770  0.78066  Biso   1.000  N
  O9       1.0000 0.74150  0.59320  0.18579  Biso   1.000  O
  O10      1.0000 0.65910  0.52300  0.24338  Biso   1.000  O
  O11      1.0000 0.42540  0.26760  0.15460  Biso   1.000  O
  O12      1.0000 0.48550  0.11870  0.18982  Biso   1.000  O
  O13      1.0000 0.74140  0.77890  0.28775  Biso   1.000  O
  O14      1.0000 0.83010  0.85380  0.23323  Biso   1.000  O
  O15      1.0000 0.03180  0.24530  0.33240  Biso   1.000  O
  O16      1.0000 0.07000  0.07880  0.35810  Biso   1.000  O
  Co5      1.0000 0.84054  0.78829  0.69270  Biso   1.000  Co
  Co6      1.0000 0.35806  0.16238  0.21494  Biso   1.000  Co
  C81      1.0000 0.91420  0.97140  0.76920  Biso   1.000  C
  H81      1.0000 0.88070  0.01730  0.74540  Biso   1.000  H
  C82      1.0000 0.95440  0.01820  0.81390  Biso   1.000  C
  H82      1.0000 0.94800  0.09330  0.82020  Biso   1.000  H
  C83      1.0000 0.00470  0.94940  0.84940  Biso   1.000  C
  C84      1.0000 0.01620  0.83700  0.83700  Biso   1.000  C
  H83      1.0000 0.05170  0.78990  0.85940  Biso   1.000  H
  C85      1.0000 0.97380  0.79910  0.79140  Biso   1.000  C
  H84      1.0000 0.98220  0.72540  0.78290  Biso   1.000  H
  C86      1.0000 0.04300  0.99410  0.90000  Biso   1.000  C
  H85      1.0000 0.04450  0.07030  0.90490  Biso   1.000  H
  C87      1.0000 0.14200  0.93450  0.01700  Biso   1.000  C
  H86      1.0000 0.14040  0.85780  0.01430  Biso   1.000  H
  C88      1.0000 0.18360  0.98780  0.06350  Biso   1.000  C
  C89      1.0000 0.18970  0.10020  0.07000  Biso   1.000  C
  H87      1.0000 0.16260  0.14670  0.04440  Biso   1.000  H
  C90      1.0000 0.23520  0.14530  0.11370  Biso   1.000  C
  H88      1.0000 0.23790  0.22190  0.11690  Biso   1.000  H
  C91      1.0000 0.26850  0.97330  0.14750  Biso   1.000  C
  H89      1.0000 0.29400  0.92900  0.17430  Biso   1.000  H
  C92      1.0000 0.22360  0.92290  0.10410  Biso   1.000  C
  H90      1.0000 0.22010  0.84620  0.10210  Biso   1.000  H
  C93      1.0000 0.75380  0.59940  0.62320  Biso   1.000  C
  H91      1.0000 0.78010  0.55520  0.64990  Biso   1.000  H
  C94      1.0000 0.70860  0.54850  0.58110  Biso   1.000  C
  H92      1.0000 0.70630  0.47170  0.57920  Biso   1.000  H
  C95      1.0000 0.66640  0.61170  0.54160  Biso   1.000  C
  C96      1.0000 0.67380  0.72790  0.54620  Biso   1.000  C
  H93      1.0000 0.64680  0.77360  0.52020  Biso   1.000  H
  C97      1.0000 0.72150  0.77260  0.58950  Biso   1.000  C
  H94      1.0000 0.72570  0.84920  0.59240  Biso   1.000  H
  C98      1.0000 0.61690  0.56320  0.49470  Biso   1.000  C
  H95      1.0000 0.58760  0.61040  0.47000  Biso   1.000  H
  C99      1.0000 0.57190  0.34050  0.42560  Biso   1.000  C
  H96      1.0000 0.60580  0.29080  0.44750  Biso   1.000  H
  C100     1.0000 0.52910  0.30210  0.37480  Biso   1.000  C
  C101     1.0000 0.47680  0.37530  0.34250  Biso   1.000  C
  H97      1.0000 0.47100  0.44900  0.35160  Biso   1.000  H
  C102     1.0000 0.43340  0.33660  0.29650  Biso   1.000  C
  H98      1.0000 0.39620  0.38520  0.27560  Biso   1.000  H
  C103     1.0000 0.49720  0.16520  0.31070  Biso   1.000  C
  H99      1.0000 0.50650  0.09350  0.29970  Biso   1.000  H
  C104     1.0000 0.54110  0.19660  0.35780  Biso   1.000  C
  H100     1.0000 0.57850  0.14650  0.37780  Biso   1.000  H
  C105     1.0000 0.69770  0.98340  0.70420  Biso   1.000  C
  C106     1.0000 0.68610  0.09070  0.67350  Biso   1.000  C
  H101     1.0000 0.74150  0.09890  0.65580  Biso   1.000  H
  C107     1.0000 0.59880  0.08090  0.63300  Biso   1.000  C
  H102     1.0000 0.54360  0.06670  0.64960  Biso   1.000  H
  H103     1.0000 0.60710  0.01880  0.61090  Biso   1.000  H
  C108     1.0000 0.58360  0.18610  0.60140  Biso   1.000  C
  H104     1.0000 0.52520  0.17930  0.57880  Biso   1.000  H
  H105     1.0000 0.63420  0.19340  0.58070  Biso   1.000  H
  C109     1.0000 0.57960  0.29020  0.63320  Biso   1.000  C
  H106     1.0000 0.58040  0.35380  0.61040  Biso   1.000  H
  C110     1.0000 0.66820  0.29700  0.67210  Biso   1.000  C
  H107     1.0000 0.72300  0.30540  0.65450  Biso   1.000  H
  H108     1.0000 0.66420  0.36140  0.69340  Biso   1.000  H
  C111     1.0000 0.67870  0.19260  0.70500  Biso   1.000  C
  H109     1.0000 0.62490  0.18590  0.72350  Biso   1.000  H
  H110     1.0000 0.73460  0.19910  0.72950  Biso   1.000  H
  C112     1.0000 0.49030  0.30140  0.66140  Biso   1.000  C
  C113     1.0000 0.78990  0.64320  0.77290  Biso   1.000  C
  C114     1.0000 0.80480  0.54140  0.80740  Biso   1.000  C
  H111     1.0000 0.74600  0.52720  0.82150  Biso   1.000  H
  C115     1.0000 0.88280  0.56560  0.85260  Biso   1.000  C
  H112     1.0000 0.86670  0.63200  0.87010  Biso   1.000  H
  H113     1.0000 0.94210  0.57860  0.83960  Biso   1.000  H
  C116     1.0000 0.89340  0.46920  0.88950  Biso   1.000  C
  H114     1.0000 0.94490  0.48470  0.91580  Biso   1.000  H
  H115     1.0000 0.83650  0.46320  0.90560  Biso   1.000  H
  C117     1.0000 0.91170  0.35810  0.86480  Biso   1.000  C
  H116     1.0000 0.90210  0.29990  0.88920  Biso   1.000  H
  C118     1.0000 0.83920  0.33940  0.81770  Biso   1.000  C
  H117     1.0000 0.77810  0.32550  0.82850  Biso   1.000  H
  H118     1.0000 0.85680  0.27420  0.79990  Biso   1.000  H
  C119     1.0000 0.83160  0.43690  0.78190  Biso   1.000  C
  H119     1.0000 0.78490  0.42100  0.75320  Biso   1.000  H
  H120     1.0000 0.89150  0.44790  0.76920  Biso   1.000  H
  C120     1.0000 0.01040  0.34750  0.85250  Biso   1.000  C
  N17      1.0000 0.92020  0.86460  0.75798  Biso   1.000  N
  N18      1.0000 0.07330  0.93120  0.93638  Biso   1.000  N
  N19      1.0000 0.10710  0.99630  0.97939  Biso   1.000  N
  N20      1.0000 0.27620  0.08230  0.15208  Biso   1.000  N
  N21      1.0000 0.76240  0.71000  0.62817  Biso   1.000  N
  N22      1.0000 0.61310  0.46110  0.48692  Biso   1.000  N
  N23      1.0000 0.56340  0.43860  0.43950  Biso   1.000  N
  N24      1.0000 0.44260  0.23230  0.28066  Biso   1.000  N
  O17      1.0000 0.74150  0.90680  0.68579  Biso   1.000  O
  O18      1.0000 0.65910  0.97700  0.74338  Biso   1.000  O
  O19      1.0000 0.42540  0.23240  0.65460  Biso   1.000  O
  O20      1.0000 0.48550  0.38130  0.68982  Biso   1.000  O
  O21      1.0000 0.74140  0.72110  0.78775  Biso   1.000  O
  O22      1.0000 0.83010  0.64620  0.73323  Biso   1.000  O
  O23      1.0000 0.03180  0.25470  0.83240  Biso   1.000  O
  O24      1.0000 0.07000  0.42120  0.85810  Biso   1.000  O
  Co7      1.0000 0.15946  0.28829  0.80730  Biso   1.000  Co
  Co8      1.0000 0.64194  0.66238  0.28506  Biso   1.000  Co
  C121     1.0000 0.08580  0.47140  0.73080  Biso   1.000  C
  H121     1.0000 0.11930  0.51730  0.75460  Biso   1.000  H
  C122     1.0000 0.04560  0.51820  0.68610  Biso   1.000  C
  H122     1.0000 0.05200  0.59330  0.67980  Biso   1.000  H
  C123     1.0000 0.99530  0.44940  0.65060  Biso   1.000  C
  C124     1.0000 0.98380  0.33700  0.66300  Biso   1.000  C
  H123     1.0000 0.94830  0.28990  0.64060  Biso   1.000  H
  C125     1.0000 0.02620  0.29910  0.70860  Biso   1.000  C
  H124     1.0000 0.01780  0.22540  0.71710  Biso   1.000  H
  C126     1.0000 0.95700  0.49410  0.60000  Biso   1.000  C
  H125     1.0000 0.95550  0.57030  0.59510  Biso   1.000  H
  C127     1.0000 0.85800  0.43450  0.48300  Biso   1.000  C
  H126     1.0000 0.85960  0.35780  0.48570  Biso   1.000  H
  C128     1.0000 0.81640  0.48780  0.43650  Biso   1.000  C
  C129     1.0000 0.81030  0.60020  0.43000  Biso   1.000  C
  H127     1.0000 0.83740  0.64670  0.45560  Biso   1.000  H
  C130     1.0000 0.76480  0.64530  0.38630  Biso   1.000  C
  H128     1.0000 0.76210  0.72190  0.38310  Biso   1.000  H
  C131     1.0000 0.73150  0.47330  0.35250  Biso   1.000  C
  H129     1.0000 0.70600  0.42900  0.32570  Biso   1.000  H
  C132     1.0000 0.77640  0.42290  0.39590  Biso   1.000  C
  H130     1.0000 0.77990  0.34620  0.39790  Biso   1.000  H
  C133     1.0000 0.24620  0.09940  0.87680  Biso   1.000  C
  H131     1.0000 0.21990  0.05520  0.85010  Biso   1.000  H
  C134     1.0000 0.29140  0.04850  0.91890  Biso   1.000  C
  H132     1.0000 0.29370  0.97170  0.92080  Biso   1.000  H
  C135     1.0000 0.33360  0.11170  0.95840  Biso   1.000  C
  C136     1.0000 0.32620  0.22790  0.95380  Biso   1.000  C
  H133     1.0000 0.35320  0.27360  0.97980  Biso   1.000  H
  C137     1.0000 0.27850  0.27260  0.91050  Biso   1.000  C
  H134     1.0000 0.27430  0.34920  0.90760  Biso   1.000  H
  C138     1.0000 0.38310  0.06320  0.00530  Biso   1.000  C
  H135     1.0000 0.41240  0.11040  0.03000  Biso   1.000  H
  C139     1.0000 0.42810  0.84050  0.07440  Biso   1.000  C
  H136     1.0000 0.39420  0.79080  0.05250  Biso   1.000  H
  C140     1.0000 0.47090  0.80210  0.12520  Biso   1.000  C
  C141     1.0000 0.52320  0.87530  0.15750  Biso   1.000  C
  H137     1.0000 0.52900  0.94900  0.14840  Biso   1.000  H
  C142     1.0000 0.56660  0.83660  0.20350  Biso   1.000  C
  H138     1.0000 0.60380  0.88520  0.22440  Biso   1.000  H
  C143     1.0000 0.50280  0.66520  0.18930  Biso   1.000  C
  H139     1.0000 0.49350  0.59350  0.20030  Biso   1.000  H
  C144     1.0000 0.45890  0.69660  0.14220  Biso   1.000  C
  H140     1.0000 0.42150  0.64650  0.12220  Biso   1.000  H
  C145     1.0000 0.30230  0.48340  0.79580  Biso   1.000  C
  C146     1.0000 0.31390  0.59070  0.82650  Biso   1.000  C
  H141     1.0000 0.25850  0.59890  0.84420  Biso   1.000  H
  C147     1.0000 0.40120  0.58090  0.86700  Biso   1.000  C
  H142     1.0000 0.45640  0.56670  0.85040  Biso   1.000  H
  H143     1.0000 0.39290  0.51880  0.88910  Biso   1.000  H
  C148     1.0000 0.41640  0.68610  0.89860  Biso   1.000  C
  H144     1.0000 0.47480  0.67930  0.92120  Biso   1.000  H
  H145     1.0000 0.36580  0.69340  0.91930  Biso   1.000  H
  C149     1.0000 0.42040  0.79020  0.86680  Biso   1.000  C
  H146     1.0000 0.41960  0.85380  0.88960  Biso   1.000  H
  C150     1.0000 0.33180  0.79700  0.82790  Biso   1.000  C
  H147     1.0000 0.27700  0.80540  0.84550  Biso   1.000  H
  H148     1.0000 0.33580  0.86140  0.80660  Biso   1.000  H
  C151     1.0000 0.32130  0.69260  0.79500  Biso   1.000  C
  H149     1.0000 0.37510  0.68590  0.77650  Biso   1.000  H
  H150     1.0000 0.26540  0.69910  0.77050  Biso   1.000  H
  C152     1.0000 0.50970  0.80140  0.83860  Biso   1.000  C
  C153     1.0000 0.21010  0.14320  0.72710  Biso   1.000  C
  C154     1.0000 0.19520  0.04140  0.69260  Biso   1.000  C
  H151     1.0000 0.25400  0.02720  0.67850  Biso   1.000  H
  C155     1.0000 0.11720  0.06560  0.64740  Biso   1.000  C
  H152     1.0000 0.13330  0.13200  0.62990  Biso   1.000  H
  H153     1.0000 0.05790  0.07860  0.66040  Biso   1.000  H
  C156     1.0000 0.10660  0.96920  0.61050  Biso   1.000  C
  H154     1.0000 0.05510  0.98470  0.58420  Biso   1.000  H
  H155     1.0000 0.16350  0.96320  0.59440  Biso   1.000  H
  C157     1.0000 0.08830  0.85810  0.63520  Biso   1.000  C
  H156     1.0000 0.09790  0.79990  0.61080  Biso   1.000  H
  C158     1.0000 0.16080  0.83940  0.68230  Biso   1.000  C
  H157     1.0000 0.22190  0.82550  0.67150  Biso   1.000  H
  H158     1.0000 0.14320  0.77420  0.70010  Biso   1.000  H
  C159     1.0000 0.16840  0.93690  0.71810  Biso   1.000  C
  H159     1.0000 0.21510  0.92100  0.74680  Biso   1.000  H
  H160     1.0000 0.10850  0.94790  0.73080  Biso   1.000  H
  C160     1.0000 0.98960  0.84750  0.64750  Biso   1.000  C
  N25      1.0000 0.07980  0.36460  0.74202  Biso   1.000  N
  N26      1.0000 0.92670  0.43120  0.56362  Biso   1.000  N
  N27      1.0000 0.89290  0.49630  0.52061  Biso   1.000  N
  N28      1.0000 0.72380  0.58230  0.34792  Biso   1.000  N
  N29      1.0000 0.23760  0.21000  0.87183  Biso   1.000  N
  N30      1.0000 0.38690  0.96110  0.01308  Biso   1.000  N
  N31      1.0000 0.43660  0.93860  0.06050  Biso   1.000  N
  N32      1.0000 0.55740  0.73230  0.21934  Biso   1.000  N
  O25      1.0000 0.25850  0.40680  0.81421  Biso   1.000  O
  O26      1.0000 0.34090  0.47700  0.75662  Biso   1.000  O
  O27      1.0000 0.57460  0.73240  0.84540  Biso   1.000  O
  O28      1.0000 0.51450  0.88130  0.81018  Biso   1.000  O
  O29      1.0000 0.25860  0.22110  0.71225  Biso   1.000  O
  O30      1.0000 0.16990  0.14620  0.76677  Biso   1.000  O
  O31      1.0000 0.96820  0.75470  0.66760  Biso   1.000  O
  O32      1.0000 0.93000  0.92120  0.64190  Biso   1.000  O
