data_image0
_cell_length_a       9.47199
_cell_length_b       11.4977
_cell_length_c       22.5039
_cell_angle_alpha    78.4172
_cell_angle_beta     77.8511
_cell_angle_gamma    65.6753

_symmetry_space_group_name_H-M    P 1
_symmetry_int_tables_number       1

loop_
  _symmetry_equiv_pos_as_xyz
  'x, y, z'

loop_
  _atom_site_label
  _atom_site_occupancy
  _atom_site_fract_x
  _atom_site_fract_y
  _atom_site_fract_z
  _atom_site_thermal_displace_type
  _atom_site_B_iso_or_equiv
  _atom_site_type_symbol
  Zn1      1.0000 0.06707  0.83729  0.73863  Biso   1.000  Zn
  Zn2      1.0000 0.64299  0.66271  0.76137  Biso   1.000  Zn
  Zn3      1.0000 0.93293  0.16271  0.26137  Biso   1.000  Zn
  Zn4      1.0000 0.35701  0.33729  0.23863  Biso   1.000  Zn
  Zn5      1.0000 0.08435  0.25000  0.75000  Biso   1.000  Zn
  Zn6      1.0000 0.91565  0.75000  0.25000  Biso   1.000  Zn
  H1       1.0000 0.74670  0.05310  0.57090  Biso   1.000  H
  H2       1.0000 0.54080  0.06670  0.52570  Biso   1.000  H
  H3       1.0000 0.33740  0.01850  0.58510  Biso   1.000  H
  H4       1.0000 0.74860  0.16710  0.16790  Biso   1.000  H
  H5       1.0000 0.77110  0.17290  0.06350  Biso   1.000  H
  H6       1.0000 0.20290  0.16570  0.04910  Biso   1.000  H
  H7       1.0000 0.16710  0.16240  0.15300  Biso   1.000  H
  H8       1.0000 0.78280  0.27680  0.96480  Biso   1.000  H
  H9       1.0000 0.82170  0.29790  0.86030  Biso   1.000  H
  H10      1.0000 0.26800  0.10340  0.85700  Biso   1.000  H
  H11      1.0000 0.24340  0.07950  0.96070  Biso   1.000  H
  H12      1.0000 0.37070  0.44690  0.92910  Biso   1.000  H
  H13      1.0000 0.13320  0.43330  0.97430  Biso   1.000  H
  H14      1.0000 0.94100  0.48150  0.91490  Biso   1.000  H
  H15      1.0000 0.08360  0.33290  0.33210  Biso   1.000  H
  H16      1.0000 0.00750  0.32710  0.43650  Biso   1.000  H
  H17      1.0000 0.41770  0.33430  0.45090  Biso   1.000  H
  H18      1.0000 0.48250  0.33760  0.34700  Biso   1.000  H
  H19      1.0000 0.02440  0.22320  0.53520  Biso   1.000  H
  H20      1.0000 0.97990  0.20210  0.63970  Biso   1.000  H
  H21      1.0000 0.22840  0.39660  0.64300  Biso   1.000  H
  H22      1.0000 0.28360  0.42050  0.53930  Biso   1.000  H
  H23      1.0000 0.25330  0.94690  0.42910  Biso   1.000  H
  H24      1.0000 0.45920  0.93330  0.47430  Biso   1.000  H
  H25      1.0000 0.66260  0.98150  0.41490  Biso   1.000  H
  H26      1.0000 0.25140  0.83290  0.83210  Biso   1.000  H
  H27      1.0000 0.22890  0.82710  0.93650  Biso   1.000  H
  H28      1.0000 0.79710  0.83430  0.95090  Biso   1.000  H
  H29      1.0000 0.83290  0.83760  0.84700  Biso   1.000  H
  H30      1.0000 0.21720  0.72320  0.03520  Biso   1.000  H
  H31      1.0000 0.17830  0.70210  0.13970  Biso   1.000  H
  H32      1.0000 0.73200  0.89660  0.14300  Biso   1.000  H
  H33      1.0000 0.75660  0.92050  0.03930  Biso   1.000  H
  H34      1.0000 0.62930  0.55310  0.07090  Biso   1.000  H
  H35      1.0000 0.86680  0.56670  0.02570  Biso   1.000  H
  H36      1.0000 0.05900  0.51850  0.08510  Biso   1.000  H
  H37      1.0000 0.91640  0.66710  0.66790  Biso   1.000  H
  H38      1.0000 0.99250  0.67290  0.56350  Biso   1.000  H
  H39      1.0000 0.58230  0.66570  0.54910  Biso   1.000  H
  H40      1.0000 0.51750  0.66240  0.65300  Biso   1.000  H
  H41      1.0000 0.97560  0.77680  0.46480  Biso   1.000  H
  H42      1.0000 0.02010  0.79790  0.36030  Biso   1.000  H
  H43      1.0000 0.77160  0.60340  0.35700  Biso   1.000  H
  H44      1.0000 0.71640  0.57950  0.46070  Biso   1.000  H
  C1       1.0000 0.66352  0.03525  0.59489  Biso   1.000  C
  C2       1.0000 0.54022  0.04356  0.56772  Biso   1.000  C
  C3       1.0000 0.41737  0.01731  0.60343  Biso   1.000  C
  C4       1.0000 0.41174  0.98887  0.66687  Biso   1.000  C
  C5       1.0000 0.53592  0.97815  0.69447  Biso   1.000  C
  C6       1.0000 0.66323  0.00069  0.65741  Biso   1.000  C
  C7       1.0000 0.80573  0.98147  0.68239  Biso   1.000  C
  C8       1.0000 0.53238  0.94479  0.76251  Biso   1.000  C
  C9       1.0000 0.26795  0.97356  0.70452  Biso   1.000  C
  C10      1.0000 0.84105  0.16690  0.14344  Biso   1.000  C
  C11      1.0000 0.85386  0.17024  0.08056  Biso   1.000  C
  C12      1.0000 0.99035  0.16954  0.04366  Biso   1.000  C
  C13      1.0000 0.10892  0.16617  0.07229  Biso   1.000  C
  C14      1.0000 0.08705  0.16376  0.13464  Biso   1.000  C
  C15      1.0000 0.01015  0.17611  0.97625  Biso   1.000  C
  C16      1.0000 0.88351  0.24155  0.94389  Biso   1.000  C
  C17      1.0000 0.90793  0.25389  0.88097  Biso   1.000  C
  C18      1.0000 0.16893  0.14065  0.87889  Biso   1.000  C
  C19      1.0000 0.15484  0.12497  0.94149  Biso   1.000  C
  C20      1.0000 0.29366  0.46475  0.90511  Biso   1.000  C
  C21      1.0000 0.15150  0.45644  0.93228  Biso   1.000  C
  C22      1.0000 0.03811  0.48269  0.89657  Biso   1.000  C
  C23      1.0000 0.06748  0.51113  0.83313  Biso   1.000  C
  C24      1.0000 0.20854  0.52185  0.80553  Biso   1.000  C
  C25      1.0000 0.32133  0.49931  0.84259  Biso   1.000  C
  C26      1.0000 0.46959  0.51853  0.81761  Biso   1.000  C
  C27      1.0000 0.23968  0.55521  0.73749  Biso   1.000  C
  C28      1.0000 0.94603  0.52644  0.79548  Biso   1.000  C
  C29      1.0000 0.15139  0.33310  0.35656  Biso   1.000  C
  C30      1.0000 0.10466  0.32976  0.41944  Biso   1.000  C
  C31      1.0000 0.20355  0.33046  0.45634  Biso   1.000  C
  C32      1.0000 0.34738  0.33383  0.42771  Biso   1.000  C
  C33      1.0000 0.38545  0.33624  0.36536  Biso   1.000  C
  C34      1.0000 0.16251  0.32389  0.52375  Biso   1.000  C
  C35      1.0000 0.06895  0.25845  0.55611  Biso   1.000  C
  C36      1.0000 0.04279  0.24611  0.61903  Biso   1.000  C
  C37      1.0000 0.18847  0.35935  0.62111  Biso   1.000  C
  C38      1.0000 0.22130  0.37503  0.55851  Biso   1.000  C
  C39      1.0000 0.33648  0.96475  0.40511  Biso   1.000  C
  C40      1.0000 0.45978  0.95644  0.43228  Biso   1.000  C
  C41      1.0000 0.58263  0.98269  0.39657  Biso   1.000  C
  C42      1.0000 0.58826  0.01113  0.33313  Biso   1.000  C
  C43      1.0000 0.46408  0.02185  0.30553  Biso   1.000  C
  C44      1.0000 0.33677  0.99931  0.34259  Biso   1.000  C
  C45      1.0000 0.19427  0.01853  0.31761  Biso   1.000  C
  C46      1.0000 0.46762  0.05521  0.23749  Biso   1.000  C
  C47      1.0000 0.73205  0.02644  0.29548  Biso   1.000  C
  C48      1.0000 0.15895  0.83310  0.85656  Biso   1.000  C
  C49      1.0000 0.14614  0.82976  0.91944  Biso   1.000  C
  C50      1.0000 0.00965  0.83046  0.95634  Biso   1.000  C
  C51      1.0000 0.89108  0.83383  0.92771  Biso   1.000  C
  C52      1.0000 0.91295  0.83624  0.86536  Biso   1.000  C
  C53      1.0000 0.98985  0.82389  0.02375  Biso   1.000  C
  C54      1.0000 0.11649  0.75845  0.05611  Biso   1.000  C
  C55      1.0000 0.09207  0.74611  0.11903  Biso   1.000  C
  C56      1.0000 0.83107  0.85935  0.12111  Biso   1.000  C
  C57      1.0000 0.84516  0.87503  0.05851  Biso   1.000  C
  C58      1.0000 0.70634  0.53525  0.09489  Biso   1.000  C
  C59      1.0000 0.84850  0.54356  0.06772  Biso   1.000  C
  C60      1.0000 0.96189  0.51731  0.10343  Biso   1.000  C
  C61      1.0000 0.93252  0.48887  0.16687  Biso   1.000  C
  C62      1.0000 0.79146  0.47815  0.19447  Biso   1.000  C
  C63      1.0000 0.67867  0.50069  0.15741  Biso   1.000  C
  C64      1.0000 0.53041  0.48147  0.18239  Biso   1.000  C
  C65      1.0000 0.76032  0.44479  0.26251  Biso   1.000  C
  C66      1.0000 0.05397  0.47356  0.20452  Biso   1.000  C
  C67      1.0000 0.84861  0.66690  0.64344  Biso   1.000  C
  C68      1.0000 0.89534  0.67024  0.58056  Biso   1.000  C
  C69      1.0000 0.79645  0.66954  0.54366  Biso   1.000  C
  C70      1.0000 0.65262  0.66617  0.57229  Biso   1.000  C
  C71      1.0000 0.61455  0.66376  0.63464  Biso   1.000  C
  C72      1.0000 0.83749  0.67611  0.47625  Biso   1.000  C
  C73      1.0000 0.93105  0.74155  0.44389  Biso   1.000  C
  C74      1.0000 0.95721  0.75389  0.38097  Biso   1.000  C
  C75      1.0000 0.81153  0.64065  0.37889  Biso   1.000  C
  C76      1.0000 0.77870  0.62497  0.44149  Biso   1.000  C
  N1       1.0000 0.95492  0.16340  0.16998  Biso   1.000  N
  N2       1.0000 0.04994  0.20561  0.84765  Biso   1.000  N
  N3       1.0000 0.28830  0.33660  0.33002  Biso   1.000  N
  N4       1.0000 0.10320  0.29439  0.65235  Biso   1.000  N
  N5       1.0000 0.04508  0.83660  0.83002  Biso   1.000  N
  N6       1.0000 0.95006  0.79439  0.15235  Biso   1.000  N
  N7       1.0000 0.71170  0.66340  0.66998  Biso   1.000  N
  N8       1.0000 0.89680  0.70561  0.34765  Biso   1.000  N
  O1       1.0000 0.85174  0.88968  0.72312  Biso   1.000  O
  O2       1.0000 0.83943  0.08673  0.67421  Biso   1.000  O
  O3       1.0000 0.52172  0.02924  0.79278  Biso   1.000  O
  O4       1.0000 0.53182  0.83692  0.78724  Biso   1.000  O
  O5       1.0000 0.23589  0.88546  0.69200  Biso   1.000  O
  O6       1.0000 0.18859  0.04439  0.74423  Biso   1.000  O
  O7       1.0000 0.46454  0.61032  0.77688  Biso   1.000  O
  O8       1.0000 0.60037  0.41327  0.82579  Biso   1.000  O
  O9       1.0000 0.34374  0.47076  0.70722  Biso   1.000  O
  O10      1.0000 0.15598  0.66308  0.71276  Biso   1.000  O
  O11      1.0000 0.81335  0.61454  0.80800  Biso   1.000  O
  O12      1.0000 0.97721  0.45561  0.75577  Biso   1.000  O
  O13      1.0000 0.14826  0.11032  0.27688  Biso   1.000  O
  O14      1.0000 0.16057  0.91327  0.32579  Biso   1.000  O
  O15      1.0000 0.47828  0.97076  0.20722  Biso   1.000  O
  O16      1.0000 0.46818  0.16308  0.21276  Biso   1.000  O
  O17      1.0000 0.76411  0.11454  0.30800  Biso   1.000  O
  O18      1.0000 0.81141  0.95561  0.25577  Biso   1.000  O
  O19      1.0000 0.53546  0.38968  0.22312  Biso   1.000  O
  O20      1.0000 0.39963  0.58673  0.17421  Biso   1.000  O
  O21      1.0000 0.65626  0.52924  0.29278  Biso   1.000  O
  O22      1.0000 0.84402  0.33692  0.28724  Biso   1.000  O
  O23      1.0000 0.18665  0.38546  0.19200  Biso   1.000  O
  O24      1.0000 0.02279  0.54439  0.24423  Biso   1.000  O
  O25      1.0000 0.86000  0.25000  0.75000  Biso   1.000  O
  O26      1.0000 0.30331  0.25000  0.75000  Biso   1.000  O
  O27      1.0000 0.14000  0.75000  0.25000  Biso   1.000  O
  O28      1.0000 0.69669  0.75000  0.25000  Biso   1.000  O
