data_image0
_cell_length_a       9.349
_cell_length_b       10.441
_cell_length_c       12.177
_cell_angle_alpha    109.956
_cell_angle_beta     103.388
_cell_angle_gamma    90.275

_symmetry_space_group_name_H-M    P 1
_symmetry_int_tables_number       1

loop_
  _symmetry_equiv_pos_as_xyz
  'x, y, z'

loop_
  _atom_site_label
  _atom_site_occupancy
  _atom_site_fract_x
  _atom_site_fract_y
  _atom_site_fract_z
  _atom_site_thermal_displace_type
  _atom_site_B_iso_or_equiv
  _atom_site_type_symbol
  Zn1      1.0000 0.26055  0.07308  0.48656  Biso   1.000  Zn
  Zn2      1.0000 0.73945  0.92692  0.51344  Biso   1.000  Zn
  Zn3      1.0000 0.50000  0.50000  0.50000  Biso   1.000  Zn
  H1       1.0000 0.44450  0.08270  0.17320  Biso   1.000  H
  H2       1.0000 0.60920  0.06770  0.05490  Biso   1.000  H
  H3       1.0000 0.85960  0.11780  0.14200  Biso   1.000  H
  H4       1.0000 0.11000  0.17650  0.67600  Biso   1.000  H
  H5       1.0000 0.15380  0.27440  0.88210  Biso   1.000  H
  H6       1.0000 0.58760  0.28720  0.90150  Biso   1.000  H
  H7       1.0000 0.53260  0.19120  0.69530  Biso   1.000  H
  H8       1.0000 0.19870  0.31700  0.06440  Biso   1.000  H
  H9       1.0000 0.24910  0.39120  0.26900  Biso   1.000  H
  H10      1.0000 0.66220  0.48390  0.29690  Biso   1.000  H
  H11      1.0000 0.62370  0.40410  0.09150  Biso   1.000  H
  H12      1.0000 0.55550  0.91730  0.82680  Biso   1.000  H
  H13      1.0000 0.39080  0.93230  0.94510  Biso   1.000  H
  H14      1.0000 0.14040  0.88220  0.85800  Biso   1.000  H
  H15      1.0000 0.89000  0.82350  0.32400  Biso   1.000  H
  H16      1.0000 0.84620  0.72560  0.11790  Biso   1.000  H
  H17      1.0000 0.41240  0.71280  0.09850  Biso   1.000  H
  H18      1.0000 0.46740  0.80880  0.30470  Biso   1.000  H
  H19      1.0000 0.80130  0.68300  0.93560  Biso   1.000  H
  H20      1.0000 0.75090  0.60880  0.73100  Biso   1.000  H
  H21      1.0000 0.33780  0.51610  0.70310  Biso   1.000  H
  H22      1.0000 0.37630  0.59590  0.90850  Biso   1.000  H
  C1       1.0000 0.84695  0.15978  0.31503  Biso   1.000  C
  C2       1.0000 0.74840  0.17321  0.38808  Biso   1.000  C
  C3       1.0000 0.59679  0.14923  0.33424  Biso   1.000  C
  C4       1.0000 0.54498  0.10495  0.20894  Biso   1.000  C
  C5       1.0000 0.64398  0.09435  0.13816  Biso   1.000  C
  C6       1.0000 0.79405  0.12297  0.19006  Biso   1.000  C
  C7       1.0000 0.01164  0.17676  0.36615  Biso   1.000  C
  C8       1.0000 0.80479  0.21360  0.52320  Biso   1.000  C
  C9       1.0000 0.48786  0.17313  0.41128  Biso   1.000  C
  C10      1.0000 0.20700  0.19860  0.72206  Biso   1.000  C
  C11      1.0000 0.23270  0.25750  0.84622  Biso   1.000  C
  C12      1.0000 0.37729  0.29137  0.91741  Biso   1.000  C
  C13      1.0000 0.48950  0.26535  0.85783  Biso   1.000  C
  C14      1.0000 0.45572  0.20698  0.73361  Biso   1.000  C
  C15      1.0000 0.40738  0.34913  0.05144  Biso   1.000  C
  C16      1.0000 0.29490  0.34860  0.10963  Biso   1.000  C
  C17      1.0000 0.32610  0.39450  0.23326  Biso   1.000  C
  C18      1.0000 0.56790  0.44782  0.24977  Biso   1.000  C
  C19      1.0000 0.54490  0.40068  0.12524  Biso   1.000  C
  C20      1.0000 0.15305  0.84022  0.68497  Biso   1.000  C
  C21      1.0000 0.25160  0.82679  0.61192  Biso   1.000  C
  C22      1.0000 0.40321  0.85077  0.66576  Biso   1.000  C
  C23      1.0000 0.45502  0.89505  0.79106  Biso   1.000  C
  C24      1.0000 0.35602  0.90565  0.86184  Biso   1.000  C
  C25      1.0000 0.20595  0.87703  0.80994  Biso   1.000  C
  C26      1.0000 0.98836  0.82324  0.63385  Biso   1.000  C
  C27      1.0000 0.19521  0.78640  0.47680  Biso   1.000  C
  C28      1.0000 0.51214  0.82687  0.58872  Biso   1.000  C
  C29      1.0000 0.79300  0.80140  0.27794  Biso   1.000  C
  C30      1.0000 0.76730  0.74250  0.15378  Biso   1.000  C
  C31      1.0000 0.62271  0.70863  0.08259  Biso   1.000  C
  C32      1.0000 0.51050  0.73465  0.14217  Biso   1.000  C
  C33      1.0000 0.54428  0.79302  0.26639  Biso   1.000  C
  C34      1.0000 0.59262  0.65087  0.94856  Biso   1.000  C
  C35      1.0000 0.70510  0.65140  0.89037  Biso   1.000  C
  C36      1.0000 0.67390  0.60550  0.76674  Biso   1.000  C
  C37      1.0000 0.43210  0.55218  0.75023  Biso   1.000  C
  C38      1.0000 0.45510  0.59932  0.87476  Biso   1.000  C
  N1       1.0000 0.31648  0.17215  0.66585  Biso   1.000  N
  N2       1.0000 0.46049  0.44390  0.30562  Biso   1.000  N
  N3       1.0000 0.68352  0.82785  0.33415  Biso   1.000  N
  N4       1.0000 0.53951  0.55610  0.69438  Biso   1.000  N
  O1       1.0000 0.05698  0.11285  0.43758  Biso   1.000  O
  O2       1.0000 0.09017  0.24499  0.33352  Biso   1.000  O
  O3       1.0000 0.87232  0.32819  0.58156  Biso   1.000  O
  O4       1.0000 0.77689  0.12910  0.57069  Biso   1.000  O
  O5       1.0000 0.48617  0.28799  0.48733  Biso   1.000  O
  O6       1.0000 0.40121  0.06933  0.39190  Biso   1.000  O
  O7       1.0000 0.72651  0.51848  0.51005  Biso   1.000  O
  O8       1.0000 0.94302  0.88715  0.56242  Biso   1.000  O
  O9       1.0000 0.90983  0.75501  0.66648  Biso   1.000  O
  O10      1.0000 0.12768  0.67181  0.41844  Biso   1.000  O
  O11      1.0000 0.22311  0.87090  0.42931  Biso   1.000  O
  O12      1.0000 0.51383  0.71201  0.51267  Biso   1.000  O
  O13      1.0000 0.59879  0.93067  0.60810  Biso   1.000  O
  O14      1.0000 0.27349  0.48152  0.48995  Biso   1.000  O
