data_image0
_cell_length_a       9.955
_cell_length_b       12.795
_cell_length_c       13.801
_cell_angle_alpha    69.415
_cell_angle_beta     82.562
_cell_angle_gamma    83.117

_symmetry_space_group_name_H-M    P 1
_symmetry_int_tables_number       1

loop_
  _symmetry_equiv_pos_as_xyz
  'x, y, z'

loop_
  _atom_site_label
  _atom_site_occupancy
  _atom_site_fract_x
  _atom_site_fract_y
  _atom_site_fract_z
  _atom_site_thermal_displace_type
  _atom_site_B_iso_or_equiv
  _atom_site_type_symbol
  Tm1      1.0000 0.53018  0.64035  0.37478  Biso   1.000  Tm
  Tm2      1.0000 0.46982  0.35965  0.62522  Biso   1.000  Tm
  H1       1.0000 0.59700  0.51830  0.24240  Biso   1.000  H
  H2       1.0000 0.53540  0.43710  0.32840  Biso   1.000  H
  H3       1.0000 0.21020  0.98140  0.41110  Biso   1.000  H
  H4       1.0000 0.30220  0.87560  0.40350  Biso   1.000  H
  H5       1.0000 0.22290  0.87360  0.50990  Biso   1.000  H
  H6       1.0000 0.71080  0.85060  0.67780  Biso   1.000  H
  H7       1.0000 0.68250  0.76570  0.62550  Biso   1.000  H
  H8       1.0000 0.79300  0.85120  0.57270  Biso   1.000  H
  H9       1.0000 0.13460  0.42310  0.29740  Biso   1.000  H
  H10      1.0000 0.20370  0.53250  0.28170  Biso   1.000  H
  H11      1.0000 0.25970  0.41730  0.35800  Biso   1.000  H
  H12      1.0000 0.09500  0.56690  0.69400  Biso   1.000  H
  H13      1.0000 0.18910  0.63230  0.59660  Biso   1.000  H
  H14      1.0000 0.04070  0.68220  0.61670  Biso   1.000  H
  H15      1.0000 0.24490  0.03290  0.17150  Biso   1.000  H
  H16      1.0000 0.18740  0.95990  0.11830  Biso   1.000  H
  H17      1.0000 0.28030  0.90300  0.20920  Biso   1.000  H
  H18      1.0000 0.80890  0.86830  0.98650  Biso   1.000  H
  H19      1.0000 0.77490  0.85050  0.10510  Biso   1.000  H
  H20      1.0000 0.71940  0.77180  0.05700  Biso   1.000  H
  H21      1.0000 0.76770  0.76300  0.40770  Biso   1.000  H
  H22      1.0000 0.99840  0.80550  0.16760  Biso   1.000  H
  H23      1.0000 0.09600  0.72330  0.24640  Biso   1.000  H
  H24      1.0000 0.96360  0.68140  0.22700  Biso   1.000  H
  H25      1.0000 0.93090  0.86850  0.39920  Biso   1.000  H
  H26      1.0000 0.07290  0.80650  0.38250  Biso   1.000  H
  H27      1.0000 0.01970  0.91180  0.29260  Biso   1.000  H
  H28      1.0000 0.40300  0.48170  0.75760  Biso   1.000  H
  H29      1.0000 0.46460  0.56290  0.67160  Biso   1.000  H
  H30      1.0000 0.78980  0.01860  0.58890  Biso   1.000  H
  H31      1.0000 0.69780  0.12440  0.59650  Biso   1.000  H
  H32      1.0000 0.77710  0.12640  0.49010  Biso   1.000  H
  H33      1.0000 0.28920  0.14940  0.32220  Biso   1.000  H
  H34      1.0000 0.31750  0.23430  0.37450  Biso   1.000  H
  H35      1.0000 0.20700  0.14880  0.42730  Biso   1.000  H
  H36      1.0000 0.86540  0.57690  0.70260  Biso   1.000  H
  H37      1.0000 0.79630  0.46750  0.71830  Biso   1.000  H
  H38      1.0000 0.74030  0.58270  0.64200  Biso   1.000  H
  H39      1.0000 0.90500  0.43310  0.30600  Biso   1.000  H
  H40      1.0000 0.81090  0.36770  0.40340  Biso   1.000  H
  H41      1.0000 0.95930  0.31780  0.38330  Biso   1.000  H
  H42      1.0000 0.75510  0.96710  0.82850  Biso   1.000  H
  H43      1.0000 0.81260  0.04010  0.88170  Biso   1.000  H
  H44      1.0000 0.71970  0.09700  0.79080  Biso   1.000  H
  H45      1.0000 0.19110  0.13170  0.01350  Biso   1.000  H
  H46      1.0000 0.22510  0.14950  0.89490  Biso   1.000  H
  H47      1.0000 0.28060  0.22820  0.94300  Biso   1.000  H
  H48      1.0000 0.23230  0.23700  0.59230  Biso   1.000  H
  H49      1.0000 0.00160  0.19450  0.83240  Biso   1.000  H
  H50      1.0000 0.90400  0.27670  0.75360  Biso   1.000  H
  H51      1.0000 0.03640  0.31860  0.77300  Biso   1.000  H
  H52      1.0000 0.06910  0.13150  0.60080  Biso   1.000  H
  H53      1.0000 0.92710  0.19350  0.61750  Biso   1.000  H
  H54      1.0000 0.98030  0.08820  0.70740  Biso   1.000  H
  C1       1.0000 0.47470  0.76450  0.55600  Biso   1.000  C
  C2       1.0000 0.48860  0.88830  0.52620  Biso   1.000  C
  C3       1.0000 0.38830  0.96250  0.47350  Biso   1.000  C
  C4       1.0000 0.27050  0.91940  0.44710  Biso   1.000  C
  C5       1.0000 0.60010  0.92380  0.55330  Biso   1.000  C
  C6       1.0000 0.70620  0.84020  0.61270  Biso   1.000  C
  C7       1.0000 0.26890  0.57320  0.45160  Biso   1.000  C
  C8       1.0000 0.12830  0.53440  0.47800  Biso   1.000  C
  C9       1.0000 0.08520  0.48020  0.41830  Biso   1.000  C
  C10      1.0000 0.17930  0.46160  0.33100  Biso   1.000  C
  C11      1.0000 0.04600  0.55530  0.55990  Biso   1.000  C
  C12      1.0000 0.09740  0.61440  0.62240  Biso   1.000  C
  C13      1.0000 0.50490  0.81710  0.19430  Biso   1.000  C
  C14      1.0000 0.50210  0.91320  0.09200  Biso   1.000  C
  C15      1.0000 0.38670  0.98550  0.07340  Biso   1.000  C
  C16      1.0000 0.26390  0.96860  0.14990  Biso   1.000  C
  C17      1.0000 0.61460  0.92570  0.02110  Biso   1.000  C
  C18      1.0000 0.74090  0.84690  0.04440  Biso   1.000  C
  C19      1.0000 0.80970  0.73970  0.35370  Biso   1.000  C
  C20      1.0000 0.00280  0.74410  0.23210  Biso   1.000  C
  C21      1.0000 0.99370  0.84640  0.34960  Biso   1.000  C
  C22      1.0000 0.52530  0.23550  0.44400  Biso   1.000  C
  C23      1.0000 0.51140  0.11170  0.47380  Biso   1.000  C
  C24      1.0000 0.61170  0.03750  0.52650  Biso   1.000  C
  C25      1.0000 0.72950  0.08060  0.55290  Biso   1.000  C
  C26      1.0000 0.39990  0.07620  0.44670  Biso   1.000  C
  C27      1.0000 0.29380  0.15980  0.38730  Biso   1.000  C
  C28      1.0000 0.73110  0.42680  0.54840  Biso   1.000  C
  C29      1.0000 0.87170  0.46560  0.52200  Biso   1.000  C
  C30      1.0000 0.91480  0.51980  0.58170  Biso   1.000  C
  C31      1.0000 0.82070  0.53840  0.66900  Biso   1.000  C
  C32      1.0000 0.95400  0.44470  0.44010  Biso   1.000  C
  C33      1.0000 0.90260  0.38560  0.37760  Biso   1.000  C
  C34      1.0000 0.49510  0.18290  0.80570  Biso   1.000  C
  C35      1.0000 0.49790  0.08680  0.90800  Biso   1.000  C
  C36      1.0000 0.61330  0.01450  0.92660  Biso   1.000  C
  C37      1.0000 0.73610  0.03140  0.85010  Biso   1.000  C
  C38      1.0000 0.38540  0.07430  0.97890  Biso   1.000  C
  C39      1.0000 0.25910  0.15310  0.95560  Biso   1.000  C
  C40      1.0000 0.19030  0.26030  0.64630  Biso   1.000  C
  C41      1.0000 0.99720  0.25590  0.76790  Biso   1.000  C
  C42      1.0000 0.00630  0.15360  0.65040  Biso   1.000  C
  N1       1.0000 0.93090  0.77600  0.31200  Biso   1.000  N
  N2       1.0000 0.06910  0.22400  0.68800  Biso   1.000  N
  O1       1.0000 0.52910  0.71530  0.49460  Biso   1.000  O
  O2       1.0000 0.41190  0.71540  0.63930  Biso   1.000  O
  O3       1.0000 0.29010  0.66410  0.38230  Biso   1.000  O
  O4       1.0000 0.36690  0.51330  0.49680  Biso   1.000  O
  O5       1.0000 0.50780  0.83640  0.27640  Biso   1.000  O
  O6       1.0000 0.50480  0.71990  0.19610  Biso   1.000  O
  O7       1.0000 0.75010  0.67960  0.32750  Biso   1.000  O
  O8       1.0000 0.55990  0.50350  0.30430  Biso   1.000  O
  O9       1.0000 0.47090  0.28470  0.50540  Biso   1.000  O
  O10      1.0000 0.58810  0.28460  0.36070  Biso   1.000  O
  O11      1.0000 0.70990  0.33590  0.61770  Biso   1.000  O
  O12      1.0000 0.63310  0.48670  0.50320  Biso   1.000  O
  O13      1.0000 0.49220  0.16360  0.72360  Biso   1.000  O
  O14      1.0000 0.49520  0.28010  0.80390  Biso   1.000  O
  O15      1.0000 0.24990  0.32040  0.67250  Biso   1.000  O
  O16      1.0000 0.44010  0.49650  0.69570  Biso   1.000  O
