data_image0
_cell_length_a       10.0691
_cell_length_b       10.9491
_cell_length_c       13.2211
_cell_angle_alpha    99.755
_cell_angle_beta     110.245
_cell_angle_gamma    107.793

_symmetry_space_group_name_H-M    P 1
_symmetry_int_tables_number       1

loop_
  _symmetry_equiv_pos_as_xyz
  'x, y, z'

loop_
  _atom_site_label
  _atom_site_occupancy
  _atom_site_fract_x
  _atom_site_fract_y
  _atom_site_fract_z
  _atom_site_thermal_displace_type
  _atom_site_B_iso_or_equiv
  _atom_site_type_symbol
  Er1      1.0000 0.15495  0.70649  0.19582  Biso   1.000  Er
  Er2      1.0000 0.84505  0.29351  0.80418  Biso   1.000  Er
  H1       1.0000 0.72390  0.61950  0.16260  Biso   1.000  H
  H2       1.0000 0.50400  0.36620  0.84630  Biso   1.000  H
  H3       1.0000 0.83750  0.91560  0.31110  Biso   1.000  H
  H4       1.0000 0.22630  0.96890  0.56430  Biso   1.000  H
  H5       1.0000 0.23340  0.40970  0.42540  Biso   1.000  H
  H6       1.0000 0.62620  0.66890  0.44120  Biso   1.000  H
  H7       1.0000 0.96390  0.64190  0.91360  Biso   1.000  H
  H8       1.0000 0.90200  0.73490  0.77090  Biso   1.000  H
  H9       1.0000 0.02170  0.96610  0.80980  Biso   1.000  H
  H10      1.0000 0.20420  0.19030  0.95600  Biso   1.000  H
  H11      1.0000 0.38550  0.31190  0.13650  Biso   1.000  H
  H12      1.0000 0.54290  0.31560  0.33530  Biso   1.000  H
  H13      1.0000 0.60140  0.19470  0.45840  Biso   1.000  H
  H14      1.0000 0.46520  0.96460  0.40030  Biso   1.000  H
  H15      1.0000 0.27610  0.38050  0.83740  Biso   1.000  H
  H16      1.0000 0.49600  0.63380  0.15370  Biso   1.000  H
  H17      1.0000 0.16250  0.08440  0.68890  Biso   1.000  H
  H18      1.0000 0.77370  0.03110  0.43570  Biso   1.000  H
  H19      1.0000 0.76660  0.59030  0.57460  Biso   1.000  H
  H20      1.0000 0.37380  0.33110  0.55880  Biso   1.000  H
  H21      1.0000 0.03610  0.35810  0.08640  Biso   1.000  H
  H22      1.0000 0.09800  0.26510  0.22910  Biso   1.000  H
  H23      1.0000 0.97830  0.03390  0.19020  Biso   1.000  H
  H24      1.0000 0.79580  0.80970  0.04400  Biso   1.000  H
  H25      1.0000 0.61450  0.68810  0.86350  Biso   1.000  H
  H26      1.0000 0.45710  0.68440  0.66470  Biso   1.000  H
  H27      1.0000 0.39860  0.80530  0.54160  Biso   1.000  H
  H28      1.0000 0.53480  0.03540  0.59970  Biso   1.000  H
  C1       1.0000 0.78660  0.48570  0.00990  Biso   1.000  C
  C2       1.0000 0.63720  0.49200  0.00480  Biso   1.000  C
  C3       1.0000 0.63360  0.57140  0.09680  Biso   1.000  C
  C4       1.0000 0.50310  0.42030  0.90830  Biso   1.000  C
  C5       1.0000 0.07710  0.85150  0.34330  Biso   1.000  C
  C6       1.0000 0.03830  0.92940  0.42430  Biso   1.000  C
  C7       1.0000 0.90400  0.94960  0.38780  Biso   1.000  C
  C8       1.0000 0.13430  0.98100  0.53760  Biso   1.000  C
  C9       1.0000 0.32610  0.60100  0.33620  Biso   1.000  C
  C10      1.0000 0.41590  0.54750  0.42090  Biso   1.000  C
  C11      1.0000 0.34040  0.44610  0.45540  Biso   1.000  C
  C12      1.0000 0.57560  0.60130  0.46490  Biso   1.000  C
  C13      1.0000 0.01110  0.73490  0.93100  Biso   1.000  C
  C14      1.0000 0.97360  0.78950  0.84370  Biso   1.000  C
  C15      1.0000 0.04410  0.92600  0.86680  Biso   1.000  C
  C16      1.0000 0.15070  0.00400  0.97780  Biso   1.000  C
  C17      1.0000 0.22770  0.14590  0.00960  Biso   1.000  C
  C18      1.0000 0.33610  0.21900  0.11780  Biso   1.000  C
  C19      1.0000 0.37380  0.15420  0.20170  Biso   1.000  C
  C20      1.0000 0.49000  0.22260  0.31230  Biso   1.000  C
  C21      1.0000 0.52410  0.15120  0.38520  Biso   1.000  C
  C22      1.0000 0.44150  0.01180  0.34900  Biso   1.000  C
  C23      1.0000 0.29580  0.01310  0.17210  Biso   1.000  C
  C24      1.0000 0.17880  0.93810  0.05800  Biso   1.000  C
  C25      1.0000 0.21340  0.51430  0.99010  Biso   1.000  C
  C26      1.0000 0.36280  0.50800  0.99520  Biso   1.000  C
  C27      1.0000 0.36640  0.42860  0.90320  Biso   1.000  C
  C28      1.0000 0.49690  0.57970  0.09170  Biso   1.000  C
  C29      1.0000 0.92290  0.14850  0.65670  Biso   1.000  C
  C30      1.0000 0.96170  0.07060  0.57570  Biso   1.000  C
  C31      1.0000 0.09600  0.05040  0.61220  Biso   1.000  C
  C32      1.0000 0.86570  0.01900  0.46240  Biso   1.000  C
  C33      1.0000 0.67390  0.39900  0.66380  Biso   1.000  C
  C34      1.0000 0.58410  0.45250  0.57910  Biso   1.000  C
  C35      1.0000 0.65960  0.55390  0.54460  Biso   1.000  C
  C36      1.0000 0.42440  0.39870  0.53510  Biso   1.000  C
  C37      1.0000 0.98890  0.26510  0.06900  Biso   1.000  C
  C38      1.0000 0.02640  0.21050  0.15630  Biso   1.000  C
  C39      1.0000 0.95590  0.07400  0.13320  Biso   1.000  C
  C40      1.0000 0.84930  0.99600  0.02220  Biso   1.000  C
  C41      1.0000 0.77230  0.85410  0.99040  Biso   1.000  C
  C42      1.0000 0.66390  0.78100  0.88220  Biso   1.000  C
  C43      1.0000 0.62620  0.84580  0.79830  Biso   1.000  C
  C44      1.0000 0.51000  0.77740  0.68770  Biso   1.000  C
  C45      1.0000 0.47590  0.84880  0.61480  Biso   1.000  C
  C46      1.0000 0.55850  0.98820  0.65100  Biso   1.000  C
  C47      1.0000 0.70420  0.98690  0.82790  Biso   1.000  C
  C48      1.0000 0.82120  0.06190  0.94200  Biso   1.000  C
  N1       1.0000 0.10850  0.80400  0.03710  Biso   1.000  N
  N2       1.0000 0.33170  0.94320  0.24580  Biso   1.000  N
  N3       1.0000 0.89150  0.19600  0.96290  Biso   1.000  N
  N4       1.0000 0.66830  0.05680  0.75420  Biso   1.000  N
  O1       1.0000 0.90880  0.55960  0.09590  Biso   1.000  O
  O2       1.0000 0.78050  0.40700  0.92590  Biso   1.000  O
  O3       1.0000 0.01170  0.83370  0.23820  Biso   1.000  O
  O4       1.0000 0.17620  0.80170  0.38040  Biso   1.000  O
  O5       1.0000 0.18080  0.53760  0.28240  Biso   1.000  O
  O6       1.0000 0.39400  0.70900  0.32060  Biso   1.000  O
  O7       1.0000 0.09120  0.44040  0.90410  Biso   1.000  O
  O8       1.0000 0.21950  0.59300  0.07410  Biso   1.000  O
  O9       1.0000 0.98830  0.16630  0.76180  Biso   1.000  O
  O10      1.0000 0.82380  0.19830  0.61960  Biso   1.000  O
  O11      1.0000 0.81920  0.46240  0.71760  Biso   1.000  O
  O12      1.0000 0.60600  0.29100  0.67940  Biso   1.000  O
