data_image0
_cell_length_a       12.9677
_cell_length_b       12.9677
_cell_length_c       13.545
_cell_angle_alpha    90
_cell_angle_beta     90
_cell_angle_gamma    90

_symmetry_space_group_name_H-M    P 1
_symmetry_int_tables_number       1

loop_
  _symmetry_equiv_pos_as_xyz
  'x, y, z'

loop_
  _atom_site_label
  _atom_site_occupancy
  _atom_site_fract_x
  _atom_site_fract_y
  _atom_site_fract_z
  _atom_site_thermal_displace_type
  _atom_site_B_iso_or_equiv
  _atom_site_type_symbol
  Ag1      1.0000 0.83191  0.33163  0.74740  Biso   1.000  Ag
  Ag2      1.0000 0.66809  0.16837  0.74740  Biso   1.000  Ag
  Ag3      1.0000 0.66837  0.33191  0.24740  Biso   1.000  Ag
  Ag4      1.0000 0.83163  0.16809  0.24740  Biso   1.000  Ag
  Ag5      1.0000 0.16809  0.66837  0.25260  Biso   1.000  Ag
  Ag6      1.0000 0.33191  0.83163  0.25260  Biso   1.000  Ag
  Ag7      1.0000 0.33163  0.66809  0.75260  Biso   1.000  Ag
  Ag8      1.0000 0.16837  0.83191  0.75260  Biso   1.000  Ag
  H1       1.0000 0.07580  0.31450  0.78220  Biso   1.000  H
  H2       1.0000 0.10630  0.36920  0.68030  Biso   1.000  H
  H3       1.0000 0.15610  0.40830  0.78180  Biso   1.000  H
  H4       1.0000 0.02890  0.78880  0.99120  Biso   1.000  H
  H5       1.0000 0.10180  0.85570  0.06190  Biso   1.000  H
  H6       1.0000 0.00760  0.79190  0.10760  Biso   1.000  H
  H7       1.0000 0.42420  0.18550  0.78220  Biso   1.000  H
  H8       1.0000 0.39370  0.13080  0.68030  Biso   1.000  H
  H9       1.0000 0.34390  0.09170  0.78180  Biso   1.000  H
  H10      1.0000 0.47110  0.71120  0.99120  Biso   1.000  H
  H11      1.0000 0.39820  0.64430  0.06190  Biso   1.000  H
  H12      1.0000 0.49240  0.70810  0.10760  Biso   1.000  H
  H13      1.0000 0.68550  0.57580  0.28220  Biso   1.000  H
  H14      1.0000 0.63080  0.60630  0.18030  Biso   1.000  H
  H15      1.0000 0.59170  0.65610  0.28180  Biso   1.000  H
  H16      1.0000 0.21120  0.52890  0.49120  Biso   1.000  H
  H17      1.0000 0.14430  0.60180  0.56190  Biso   1.000  H
  H18      1.0000 0.20810  0.50760  0.60760  Biso   1.000  H
  H19      1.0000 0.81450  0.92420  0.28220  Biso   1.000  H
  H20      1.0000 0.86920  0.89370  0.18030  Biso   1.000  H
  H21      1.0000 0.90830  0.84390  0.28180  Biso   1.000  H
  H22      1.0000 0.28880  0.97110  0.49120  Biso   1.000  H
  H23      1.0000 0.35570  0.89820  0.56190  Biso   1.000  H
  H24      1.0000 0.29190  0.99240  0.60760  Biso   1.000  H
  H25      1.0000 0.92420  0.68550  0.21780  Biso   1.000  H
  H26      1.0000 0.89370  0.63080  0.31970  Biso   1.000  H
  H27      1.0000 0.84390  0.59170  0.21820  Biso   1.000  H
  H28      1.0000 0.97110  0.21120  0.00880  Biso   1.000  H
  H29      1.0000 0.89820  0.14430  0.93810  Biso   1.000  H
  H30      1.0000 0.99240  0.20810  0.89240  Biso   1.000  H
  H31      1.0000 0.57580  0.81450  0.21780  Biso   1.000  H
  H32      1.0000 0.60630  0.86920  0.31970  Biso   1.000  H
  H33      1.0000 0.65610  0.90830  0.21820  Biso   1.000  H
  H34      1.0000 0.52890  0.28880  0.00880  Biso   1.000  H
  H35      1.0000 0.60180  0.35570  0.93810  Biso   1.000  H
  H36      1.0000 0.50760  0.29190  0.89240  Biso   1.000  H
  H37      1.0000 0.31450  0.42420  0.71780  Biso   1.000  H
  H38      1.0000 0.36920  0.39370  0.81970  Biso   1.000  H
  H39      1.0000 0.40830  0.34390  0.71820  Biso   1.000  H
  H40      1.0000 0.78880  0.47110  0.50880  Biso   1.000  H
  H41      1.0000 0.85570  0.39820  0.43810  Biso   1.000  H
  H42      1.0000 0.79190  0.49240  0.39240  Biso   1.000  H
  H43      1.0000 0.18550  0.07580  0.71780  Biso   1.000  H
  H44      1.0000 0.13080  0.10630  0.81970  Biso   1.000  H
  H45      1.0000 0.09170  0.15610  0.71820  Biso   1.000  H
  H46      1.0000 0.71120  0.02890  0.50880  Biso   1.000  H
  H47      1.0000 0.64430  0.10180  0.43810  Biso   1.000  H
  H48      1.0000 0.70810  0.00760  0.39240  Biso   1.000  H
  C1       1.0000 0.12300  0.62240  0.86390  Biso   1.000  C
  C2       1.0000 0.05740  0.55910  0.93430  Biso   1.000  C
  C3       1.0000 0.99660  0.48230  0.89770  Biso   1.000  C
  C4       1.0000 0.05830  0.58120  0.03710  Biso   1.000  C
  C5       1.0000 0.09370  0.38030  0.75090  Biso   1.000  C
  C6       1.0000 0.06120  0.79220  0.05660  Biso   1.000  C
  C7       1.0000 0.37700  0.87760  0.86390  Biso   1.000  C
  C8       1.0000 0.44260  0.94090  0.93430  Biso   1.000  C
  C9       1.0000 0.50340  0.01770  0.89770  Biso   1.000  C
  C10      1.0000 0.44170  0.91880  0.03710  Biso   1.000  C
  C11      1.0000 0.40630  0.11970  0.75090  Biso   1.000  C
  C12      1.0000 0.43880  0.70780  0.05660  Biso   1.000  C
  C13      1.0000 0.37760  0.62300  0.36390  Biso   1.000  C
  C14      1.0000 0.44090  0.55740  0.43430  Biso   1.000  C
  C15      1.0000 0.51770  0.49660  0.39770  Biso   1.000  C
  C16      1.0000 0.41880  0.55830  0.53710  Biso   1.000  C
  C17      1.0000 0.61970  0.59370  0.25090  Biso   1.000  C
  C18      1.0000 0.20780  0.56120  0.55660  Biso   1.000  C
  C19      1.0000 0.12240  0.87700  0.36390  Biso   1.000  C
  C20      1.0000 0.05910  0.94260  0.43430  Biso   1.000  C
  C21      1.0000 0.98230  0.00340  0.39770  Biso   1.000  C
  C22      1.0000 0.08120  0.94170  0.53710  Biso   1.000  C
  C23      1.0000 0.88030  0.90630  0.25090  Biso   1.000  C
  C24      1.0000 0.29220  0.93880  0.55660  Biso   1.000  C
  C25      1.0000 0.87700  0.37760  0.13610  Biso   1.000  C
  C26      1.0000 0.94260  0.44090  0.06570  Biso   1.000  C
  C27      1.0000 0.00340  0.51770  0.10230  Biso   1.000  C
  C28      1.0000 0.94170  0.41880  0.96290  Biso   1.000  C
  C29      1.0000 0.90630  0.61970  0.24910  Biso   1.000  C
  C30      1.0000 0.93880  0.20780  0.94340  Biso   1.000  C
  C31      1.0000 0.62300  0.12240  0.13610  Biso   1.000  C
  C32      1.0000 0.55740  0.05910  0.06570  Biso   1.000  C
  C33      1.0000 0.49660  0.98230  0.10230  Biso   1.000  C
  C34      1.0000 0.55830  0.08120  0.96290  Biso   1.000  C
  C35      1.0000 0.59370  0.88030  0.24910  Biso   1.000  C
  C36      1.0000 0.56120  0.29220  0.94340  Biso   1.000  C
  C37      1.0000 0.62240  0.37700  0.63610  Biso   1.000  C
  C38      1.0000 0.55910  0.44260  0.56570  Biso   1.000  C
  C39      1.0000 0.48230  0.50340  0.60230  Biso   1.000  C
  C40      1.0000 0.58120  0.44170  0.46290  Biso   1.000  C
  C41      1.0000 0.38030  0.40630  0.74910  Biso   1.000  C
  C42      1.0000 0.79220  0.43880  0.44340  Biso   1.000  C
  C43      1.0000 0.87760  0.12300  0.63610  Biso   1.000  C
  C44      1.0000 0.94090  0.05740  0.56570  Biso   1.000  C
  C45      1.0000 0.01770  0.99660  0.60230  Biso   1.000  C
  C46      1.0000 0.91880  0.05830  0.46290  Biso   1.000  C
  C47      1.0000 0.11970  0.09370  0.74910  Biso   1.000  C
  C48      1.0000 0.70780  0.06120  0.44340  Biso   1.000  C
  S1       1.0000 0.98860  0.47040  0.76640  Biso   1.000  S
  S2       1.0000 0.14580  0.68070  0.07350  Biso   1.000  S
  S3       1.0000 0.51140  0.02960  0.76640  Biso   1.000  S
  S4       1.0000 0.35420  0.81930  0.07350  Biso   1.000  S
  S5       1.0000 0.52960  0.48860  0.26640  Biso   1.000  S
  S6       1.0000 0.31930  0.64580  0.57350  Biso   1.000  S
  S7       1.0000 0.97040  0.01140  0.26640  Biso   1.000  S
  S8       1.0000 0.18070  0.85420  0.57350  Biso   1.000  S
  S9       1.0000 0.01140  0.52960  0.23360  Biso   1.000  S
  S10      1.0000 0.85420  0.31930  0.92650  Biso   1.000  S
  S11      1.0000 0.48860  0.97040  0.23360  Biso   1.000  S
  S12      1.0000 0.64580  0.18070  0.92650  Biso   1.000  S
  S13      1.0000 0.47040  0.51140  0.73360  Biso   1.000  S
  S14      1.0000 0.68070  0.35420  0.42650  Biso   1.000  S
  S15      1.0000 0.02960  0.98860  0.73360  Biso   1.000  S
  S16      1.0000 0.81930  0.14580  0.42650  Biso   1.000  S
  O1       1.0000 0.08590  0.70530  0.83690  Biso   1.000  O
  O2       1.0000 0.20960  0.58530  0.84140  Biso   1.000  O
  O3       1.0000 0.41410  0.79470  0.83690  Biso   1.000  O
  O4       1.0000 0.29040  0.91470  0.84140  Biso   1.000  O
  O5       1.0000 0.29470  0.58590  0.33690  Biso   1.000  O
  O6       1.0000 0.41470  0.70960  0.34140  Biso   1.000  O
  O7       1.0000 0.20530  0.91410  0.33690  Biso   1.000  O
  O8       1.0000 0.08530  0.79040  0.34140  Biso   1.000  O
  O9       1.0000 0.91410  0.29470  0.16310  Biso   1.000  O
  O10      1.0000 0.79040  0.41470  0.15860  Biso   1.000  O
  O11      1.0000 0.58590  0.20530  0.16310  Biso   1.000  O
  O12      1.0000 0.70960  0.08530  0.15860  Biso   1.000  O
  O13      1.0000 0.70530  0.41410  0.66310  Biso   1.000  O
  O14      1.0000 0.58530  0.29040  0.65860  Biso   1.000  O
  O15      1.0000 0.79470  0.08590  0.66310  Biso   1.000  O
  O16      1.0000 0.91470  0.20960  0.65860  Biso   1.000  O
