data_image0
_cell_length_a       16.295
_cell_length_b       16.295
_cell_length_c       28.946
_cell_angle_alpha    90
_cell_angle_beta     90
_cell_angle_gamma    90

_symmetry_space_group_name_H-M    "P 1"
_symmetry_int_tables_number       1

loop_
  _symmetry_equiv_pos_as_xyz
  'x, y, z'

loop_
  _atom_site_label
  _atom_site_occupancy
  _atom_site_fract_x
  _atom_site_fract_y
  _atom_site_fract_z
  _atom_site_thermal_displace_type
  _atom_site_B_iso_or_equiv
  _atom_site_type_symbol
  C1       1.0000 0.76518  0.33240  0.57153  Biso   1.000  C
  C2       1.0000 0.72626  0.29980  0.53324  Biso   1.000  C
  H1       1.0000 0.74750  0.25340  0.51880  Biso   1.000  H
  C3       1.0000 0.65577  0.33640  0.51636  Biso   1.000  C
  C4       1.0000 0.62623  0.40650  0.53724  Biso   1.000  C
  H2       1.0000 0.57830  0.43050  0.52620  Biso   1.000  H
  C5       1.0000 0.66650  0.44180  0.57412  Biso   1.000  C
  C6       1.0000 0.73540  0.40380  0.59158  Biso   1.000  C
  H3       1.0000 0.76210  0.42620  0.61700  Biso   1.000  H
  C7       1.0000 0.83920  0.29000  0.59169  Biso   1.000  C
  C8       1.0000 0.61160  0.30570  0.47464  Biso   1.000  C
  C9       1.0000 0.63550  0.52180  0.59296  Biso   1.000  C
  C10      1.0000 0.90040  0.09570  0.76805  Biso   1.000  C
  C11      1.0000 0.92903  0.02060  0.78223  Biso   1.000  C
  H4       1.0000 0.97370  0.99710  0.76720  Biso   1.000  H
  C12      1.0000 0.89223  0.97960  0.81857  Biso   1.000  C
  C13      1.0000 0.82612  0.01570  0.84119  Biso   1.000  C
  H5       1.0000 0.80120  0.98870  0.86580  Biso   1.000  H
  C14      1.0000 0.79740  0.09120  0.82739  Biso   1.000  C
  C15      1.0000 0.83441  0.13050  0.79074  Biso   1.000  C
  H6       1.0000 0.81460  0.18130  0.78110  Biso   1.000  H
  C16      1.0000 0.94090  0.13960  0.72901  Biso   1.000  C
  C17      1.0000 0.92250  0.89730  0.83342  Biso   1.000  C
  C18      1.0000 0.72680  0.13040  0.85213  Biso   1.000  C
  O1       1.0000 0.87184  0.23552  0.56768  Biso   1.000  O
  O2       1.0000 0.86264  0.31397  0.63058  Biso   1.000  O
  O3       1.0000 0.64976  0.25944  0.44788  Biso   1.000  O
  O4       1.0000 0.53918  0.32934  0.46956  Biso   1.000  O
  O5       1.0000 0.57056  0.54736  0.57447  Biso   1.000  O
  O6       1.0000 0.67374  0.55794  0.62306  Biso   1.000  O
  O7       1.0000 0.91524  0.21258  0.72211  Biso   1.000  O
  O8       1.0000 0.99505  0.10514  0.70684  Biso   1.000  O
  O9       1.0000 0.98565  0.87005  0.81338  Biso   1.000  O
  O10      1.0000 0.88317  0.86107  0.86430  Biso   1.000  O
  O11      1.0000 0.71941  0.20737  0.84644  Biso   1.000  O
  O12      1.0000 0.68018  0.09061  0.87645  Biso   1.000  O
  O13      1.0000 0.02002  0.19730  0.63449  Biso   1.000  O
  H7       1.0000 0.02460  0.16070  0.65880  Biso   1.000  H
  Zn1      1.0000 0.95951  0.15787  0.58058  Biso   1.000  Zn
  Zn2      1.0000 0.95001  0.27515  0.66967  Biso   1.000  Zn
  Zn3      1.0000 0.62713  0.25505  0.38191  Biso   1.000  Zn
  C19      1.0000 0.73482  0.66760  0.07153  Biso   1.000  C
  C20      1.0000 0.77374  0.70020  0.03324  Biso   1.000  C
  H8       1.0000 0.75250  0.74660  0.01880  Biso   1.000  H
  C21      1.0000 0.84423  0.66360  0.01636  Biso   1.000  C
  C22      1.0000 0.87377  0.59350  0.03724  Biso   1.000  C
  H9       1.0000 0.92170  0.56950  0.02620  Biso   1.000  H
  C23      1.0000 0.83350  0.55820  0.07412  Biso   1.000  C
  C24      1.0000 0.76460  0.59620  0.09158  Biso   1.000  C
  H10      1.0000 0.73790  0.57380  0.11700  Biso   1.000  H
  C25      1.0000 0.66080  0.71000  0.09169  Biso   1.000  C
  C26      1.0000 0.88840  0.69430  0.97464  Biso   1.000  C
  C27      1.0000 0.86450  0.47820  0.09296  Biso   1.000  C
  C28      1.0000 0.59960  0.90430  0.26805  Biso   1.000  C
  C29      1.0000 0.57097  0.97940  0.28223  Biso   1.000  C
  H11      1.0000 0.52630  0.00290  0.26720  Biso   1.000  H
  C30      1.0000 0.60777  0.02040  0.31857  Biso   1.000  C
  C31      1.0000 0.67388  0.98430  0.34119  Biso   1.000  C
  H12      1.0000 0.69880  0.01130  0.36580  Biso   1.000  H
  C32      1.0000 0.70260  0.90880  0.32739  Biso   1.000  C
  C33      1.0000 0.66559  0.86950  0.29074  Biso   1.000  C
  H13      1.0000 0.68540  0.81870  0.28110  Biso   1.000  H
  C34      1.0000 0.55910  0.86040  0.22901  Biso   1.000  C
  C35      1.0000 0.57750  0.10270  0.33342  Biso   1.000  C
  C36      1.0000 0.77320  0.86960  0.35213  Biso   1.000  C
  O14      1.0000 0.62816  0.76448  0.06768  Biso   1.000  O
  O15      1.0000 0.63736  0.68603  0.13058  Biso   1.000  O
  O16      1.0000 0.85024  0.74056  0.94788  Biso   1.000  O
  O17      1.0000 0.96082  0.67066  0.96956  Biso   1.000  O
  O18      1.0000 0.92944  0.45264  0.07447  Biso   1.000  O
  O19      1.0000 0.82626  0.44206  0.12306  Biso   1.000  O
  O20      1.0000 0.58476  0.78742  0.22211  Biso   1.000  O
  O21      1.0000 0.50495  0.89486  0.20684  Biso   1.000  O
  O22      1.0000 0.51435  0.12995  0.31338  Biso   1.000  O
  O23      1.0000 0.61683  0.13893  0.36430  Biso   1.000  O
  O24      1.0000 0.78059  0.79263  0.34644  Biso   1.000  O
  O25      1.0000 0.81982  0.90939  0.37645  Biso   1.000  O
  O26      1.0000 0.47998  0.80270  0.13449  Biso   1.000  O
  H14      1.0000 0.47540  0.83930  0.15880  Biso   1.000  H
  Zn4      1.0000 0.54049  0.84213  0.08058  Biso   1.000  Zn
  Zn5      1.0000 0.54999  0.72485  0.16967  Biso   1.000  Zn
  Zn6      1.0000 0.87287  0.74495  0.88191  Biso   1.000  Zn
  C37      1.0000 0.23482  0.83240  0.92847  Biso   1.000  C
  C38      1.0000 0.27374  0.79980  0.96676  Biso   1.000  C
  H15      1.0000 0.25250  0.75340  0.98120  Biso   1.000  H
  C39      1.0000 0.34423  0.83640  0.98364  Biso   1.000  C
  C40      1.0000 0.37377  0.90650  0.96276  Biso   1.000  C
  H16      1.0000 0.42170  0.93050  0.97380  Biso   1.000  H
  C41      1.0000 0.33350  0.94180  0.92588  Biso   1.000  C
  C42      1.0000 0.26460  0.90380  0.90842  Biso   1.000  C
  H17      1.0000 0.23790  0.92620  0.88300  Biso   1.000  H
  C43      1.0000 0.16080  0.79000  0.90831  Biso   1.000  C
  C44      1.0000 0.38840  0.80570  0.02536  Biso   1.000  C
  C45      1.0000 0.36450  0.02180  0.90704  Biso   1.000  C
  C46      1.0000 0.09960  0.59570  0.73195  Biso   1.000  C
  C47      1.0000 0.07097  0.52060  0.71777  Biso   1.000  C
  H18      1.0000 0.02630  0.49710  0.73280  Biso   1.000  H
  C48      1.0000 0.10777  0.47960  0.68143  Biso   1.000  C
  C49      1.0000 0.17388  0.51570  0.65881  Biso   1.000  C
  H19      1.0000 0.19880  0.48870  0.63420  Biso   1.000  H
  C50      1.0000 0.20260  0.59120  0.67261  Biso   1.000  C
  C51      1.0000 0.16559  0.63050  0.70926  Biso   1.000  C
  H20      1.0000 0.18540  0.68130  0.71890  Biso   1.000  H
  C52      1.0000 0.05910  0.63960  0.77099  Biso   1.000  C
  C53      1.0000 0.07750  0.39730  0.66658  Biso   1.000  C
  C54      1.0000 0.27320  0.63040  0.64787  Biso   1.000  C
  O27      1.0000 0.12816  0.73552  0.93232  Biso   1.000  O
  O28      1.0000 0.13736  0.81397  0.86942  Biso   1.000  O
  O29      1.0000 0.35024  0.75944  0.05212  Biso   1.000  O
  O30      1.0000 0.46082  0.82934  0.03044  Biso   1.000  O
  O31      1.0000 0.42944  0.04736  0.92553  Biso   1.000  O
  O32      1.0000 0.32626  0.05794  0.87694  Biso   1.000  O
  O33      1.0000 0.08476  0.71258  0.77789  Biso   1.000  O
  O34      1.0000 0.00495  0.60514  0.79316  Biso   1.000  O
  O35      1.0000 0.01435  0.37005  0.68662  Biso   1.000  O
  O36      1.0000 0.11683  0.36107  0.63570  Biso   1.000  O
  O37      1.0000 0.28059  0.70737  0.65356  Biso   1.000  O
  O38      1.0000 0.31982  0.59061  0.62355  Biso   1.000  O
  O39      1.0000 0.97998  0.69730  0.86551  Biso   1.000  O
  H21      1.0000 0.97540  0.66070  0.84120  Biso   1.000  H
  Zn7      1.0000 0.04049  0.65787  0.91942  Biso   1.000  Zn
  Zn8      1.0000 0.04999  0.77515  0.83033  Biso   1.000  Zn
  Zn9      1.0000 0.37287  0.75505  0.11809  Biso   1.000  Zn
  C55      1.0000 0.26518  0.16760  0.42847  Biso   1.000  C
  C56      1.0000 0.22626  0.20020  0.46676  Biso   1.000  C
  H22      1.0000 0.24750  0.24660  0.48120  Biso   1.000  H
  C57      1.0000 0.15577  0.16360  0.48364  Biso   1.000  C
  C58      1.0000 0.12623  0.09350  0.46276  Biso   1.000  C
  H23      1.0000 0.07830  0.06950  0.47380  Biso   1.000  H
  C59      1.0000 0.16650  0.05820  0.42588  Biso   1.000  C
  C60      1.0000 0.23540  0.09620  0.40842  Biso   1.000  C
  H24      1.0000 0.26210  0.07380  0.38300  Biso   1.000  H
  C61      1.0000 0.33920  0.21000  0.40831  Biso   1.000  C
  C62      1.0000 0.11160  0.19430  0.52536  Biso   1.000  C
  C63      1.0000 0.13550  0.97820  0.40704  Biso   1.000  C
  C64      1.0000 0.40040  0.40430  0.23195  Biso   1.000  C
  C65      1.0000 0.42903  0.47940  0.21777  Biso   1.000  C
  H25      1.0000 0.47370  0.50290  0.23280  Biso   1.000  H
  C66      1.0000 0.39223  0.52040  0.18143  Biso   1.000  C
  C67      1.0000 0.32612  0.48430  0.15881  Biso   1.000  C
  H26      1.0000 0.30120  0.51130  0.13420  Biso   1.000  H
  C68      1.0000 0.29740  0.40880  0.17261  Biso   1.000  C
  C69      1.0000 0.33441  0.36950  0.20926  Biso   1.000  C
  H27      1.0000 0.31460  0.31870  0.21890  Biso   1.000  H
  C70      1.0000 0.44090  0.36040  0.27099  Biso   1.000  C
  C71      1.0000 0.42250  0.60270  0.16658  Biso   1.000  C
  C72      1.0000 0.22680  0.36960  0.14787  Biso   1.000  C
  O40      1.0000 0.37184  0.26448  0.43232  Biso   1.000  O
  O41      1.0000 0.36264  0.18603  0.36942  Biso   1.000  O
  O42      1.0000 0.14976  0.24056  0.55212  Biso   1.000  O
  O43      1.0000 0.03918  0.17066  0.53044  Biso   1.000  O
  O44      1.0000 0.07056  0.95264  0.42553  Biso   1.000  O
  O45      1.0000 0.17374  0.94206  0.37694  Biso   1.000  O
  O46      1.0000 0.41524  0.28742  0.27789  Biso   1.000  O
  O47      1.0000 0.49505  0.39486  0.29316  Biso   1.000  O
  O48      1.0000 0.48565  0.62995  0.18662  Biso   1.000  O
  O49      1.0000 0.38317  0.63893  0.13570  Biso   1.000  O
  O50      1.0000 0.21941  0.29263  0.15356  Biso   1.000  O
  O51      1.0000 0.18018  0.40939  0.12355  Biso   1.000  O
  O52      1.0000 0.52002  0.30270  0.36551  Biso   1.000  O
  H28      1.0000 0.52460  0.33930  0.34120  Biso   1.000  H
  Zn10     1.0000 0.45951  0.34213  0.41942  Biso   1.000  Zn
  Zn11     1.0000 0.45001  0.22485  0.33033  Biso   1.000  Zn
  Zn12     1.0000 0.12713  0.24495  0.61809  Biso   1.000  Zn
  C73      1.0000 0.23482  0.66760  0.42847  Biso   1.000  C
  C74      1.0000 0.27374  0.70020  0.46676  Biso   1.000  C
  H29      1.0000 0.25250  0.74660  0.48120  Biso   1.000  H
  C75      1.0000 0.34423  0.66360  0.48364  Biso   1.000  C
  C76      1.0000 0.37377  0.59350  0.46276  Biso   1.000  C
  H30      1.0000 0.42170  0.56950  0.47380  Biso   1.000  H
  C77      1.0000 0.33350  0.55820  0.42588  Biso   1.000  C
  C78      1.0000 0.26460  0.59620  0.40842  Biso   1.000  C
  H31      1.0000 0.23790  0.57380  0.38300  Biso   1.000  H
  C79      1.0000 0.16080  0.71000  0.40831  Biso   1.000  C
  C80      1.0000 0.38840  0.69430  0.52536  Biso   1.000  C
  C81      1.0000 0.36450  0.47820  0.40704  Biso   1.000  C
  C82      1.0000 0.09960  0.90430  0.23195  Biso   1.000  C
  C83      1.0000 0.07097  0.97940  0.21777  Biso   1.000  C
  H32      1.0000 0.02630  0.00290  0.23280  Biso   1.000  H
  C84      1.0000 0.10777  0.02040  0.18143  Biso   1.000  C
  C85      1.0000 0.17388  0.98430  0.15881  Biso   1.000  C
  H33      1.0000 0.19880  0.01130  0.13420  Biso   1.000  H
  C86      1.0000 0.20260  0.90880  0.17261  Biso   1.000  C
  C87      1.0000 0.16559  0.86950  0.20926  Biso   1.000  C
  H34      1.0000 0.18540  0.81870  0.21890  Biso   1.000  H
  C88      1.0000 0.05910  0.86040  0.27099  Biso   1.000  C
  C89      1.0000 0.07750  0.10270  0.16658  Biso   1.000  C
  C90      1.0000 0.27320  0.86960  0.14787  Biso   1.000  C
  O53      1.0000 0.12816  0.76448  0.43232  Biso   1.000  O
  O54      1.0000 0.13736  0.68603  0.36942  Biso   1.000  O
  O55      1.0000 0.35024  0.74056  0.55212  Biso   1.000  O
  O56      1.0000 0.46082  0.67066  0.53044  Biso   1.000  O
  O57      1.0000 0.42944  0.45264  0.42553  Biso   1.000  O
  O58      1.0000 0.32626  0.44206  0.37694  Biso   1.000  O
  O59      1.0000 0.08476  0.78742  0.27789  Biso   1.000  O
  O60      1.0000 0.00495  0.89486  0.29316  Biso   1.000  O
  O61      1.0000 0.01435  0.12995  0.18662  Biso   1.000  O
  O62      1.0000 0.11683  0.13893  0.13570  Biso   1.000  O
  O63      1.0000 0.28059  0.79263  0.15356  Biso   1.000  O
  O64      1.0000 0.31982  0.90939  0.12355  Biso   1.000  O
  O65      1.0000 0.97998  0.80270  0.36551  Biso   1.000  O
  H35      1.0000 0.97540  0.83930  0.34120  Biso   1.000  H
  Zn13     1.0000 0.04049  0.84213  0.41942  Biso   1.000  Zn
  Zn14     1.0000 0.04999  0.72485  0.33033  Biso   1.000  Zn
  Zn15     1.0000 0.37287  0.74495  0.61809  Biso   1.000  Zn
  C91      1.0000 0.26518  0.33240  0.92847  Biso   1.000  C
  C92      1.0000 0.22626  0.29980  0.96676  Biso   1.000  C
  H36      1.0000 0.24750  0.25340  0.98120  Biso   1.000  H
  C93      1.0000 0.15577  0.33640  0.98364  Biso   1.000  C
  C94      1.0000 0.12623  0.40650  0.96276  Biso   1.000  C
  H37      1.0000 0.07830  0.43050  0.97380  Biso   1.000  H
  C95      1.0000 0.16650  0.44180  0.92588  Biso   1.000  C
  C96      1.0000 0.23540  0.40380  0.90842  Biso   1.000  C
  H38      1.0000 0.26210  0.42620  0.88300  Biso   1.000  H
  C97      1.0000 0.33920  0.29000  0.90831  Biso   1.000  C
  C98      1.0000 0.11160  0.30570  0.02536  Biso   1.000  C
  C99      1.0000 0.13550  0.52180  0.90704  Biso   1.000  C
  C100     1.0000 0.40040  0.09570  0.73195  Biso   1.000  C
  C101     1.0000 0.42903  0.02060  0.71777  Biso   1.000  C
  H39      1.0000 0.47370  0.99710  0.73280  Biso   1.000  H
  C102     1.0000 0.39223  0.97960  0.68143  Biso   1.000  C
  C103     1.0000 0.32612  0.01570  0.65881  Biso   1.000  C
  H40      1.0000 0.30120  0.98870  0.63420  Biso   1.000  H
  C104     1.0000 0.29740  0.09120  0.67261  Biso   1.000  C
  C105     1.0000 0.33441  0.13050  0.70926  Biso   1.000  C
  H41      1.0000 0.31460  0.18130  0.71890  Biso   1.000  H
  C106     1.0000 0.44090  0.13960  0.77099  Biso   1.000  C
  C107     1.0000 0.42250  0.89730  0.66658  Biso   1.000  C
  C108     1.0000 0.22680  0.13040  0.64787  Biso   1.000  C
  O66      1.0000 0.37184  0.23552  0.93232  Biso   1.000  O
  O67      1.0000 0.36264  0.31397  0.86942  Biso   1.000  O
  O68      1.0000 0.14976  0.25944  0.05212  Biso   1.000  O
  O69      1.0000 0.03918  0.32934  0.03044  Biso   1.000  O
  O70      1.0000 0.07056  0.54736  0.92553  Biso   1.000  O
  O71      1.0000 0.17374  0.55794  0.87694  Biso   1.000  O
  O72      1.0000 0.41524  0.21258  0.77789  Biso   1.000  O
  O73      1.0000 0.49505  0.10514  0.79316  Biso   1.000  O
  O74      1.0000 0.48565  0.87005  0.68662  Biso   1.000  O
  O75      1.0000 0.38317  0.86107  0.63570  Biso   1.000  O
  O76      1.0000 0.21941  0.20737  0.65356  Biso   1.000  O
  O77      1.0000 0.18018  0.09061  0.62355  Biso   1.000  O
  O78      1.0000 0.52002  0.19730  0.86551  Biso   1.000  O
  H42      1.0000 0.52460  0.16070  0.84120  Biso   1.000  H
  Zn16     1.0000 0.45951  0.15787  0.91942  Biso   1.000  Zn
  Zn17     1.0000 0.45001  0.27515  0.83033  Biso   1.000  Zn
  Zn18     1.0000 0.12713  0.25505  0.11809  Biso   1.000  Zn
  C109     1.0000 0.76518  0.16760  0.07153  Biso   1.000  C
  C110     1.0000 0.72626  0.20020  0.03324  Biso   1.000  C
  H43      1.0000 0.74750  0.24660  0.01880  Biso   1.000  H
  C111     1.0000 0.65577  0.16360  0.01636  Biso   1.000  C
  C112     1.0000 0.62623  0.09350  0.03724  Biso   1.000  C
  H44      1.0000 0.57830  0.06950  0.02620  Biso   1.000  H
  C113     1.0000 0.66650  0.05820  0.07412  Biso   1.000  C
  C114     1.0000 0.73540  0.09620  0.09158  Biso   1.000  C
  H45      1.0000 0.76210  0.07380  0.11700  Biso   1.000  H
  C115     1.0000 0.83920  0.21000  0.09169  Biso   1.000  C
  C116     1.0000 0.61160  0.19430  0.97464  Biso   1.000  C
  C117     1.0000 0.63550  0.97820  0.09296  Biso   1.000  C
  C118     1.0000 0.90040  0.40430  0.26805  Biso   1.000  C
  C119     1.0000 0.92903  0.47940  0.28223  Biso   1.000  C
  H46      1.0000 0.97370  0.50290  0.26720  Biso   1.000  H
  C120     1.0000 0.89223  0.52040  0.31857  Biso   1.000  C
  C121     1.0000 0.82612  0.48430  0.34119  Biso   1.000  C
  H47      1.0000 0.80120  0.51130  0.36580  Biso   1.000  H
  C122     1.0000 0.79740  0.40880  0.32739  Biso   1.000  C
  C123     1.0000 0.83441  0.36950  0.29074  Biso   1.000  C
  H48      1.0000 0.81460  0.31870  0.28110  Biso   1.000  H
  C124     1.0000 0.94090  0.36040  0.22901  Biso   1.000  C
  C125     1.0000 0.92250  0.60270  0.33342  Biso   1.000  C
  C126     1.0000 0.72680  0.36960  0.35213  Biso   1.000  C
  O79      1.0000 0.87184  0.26448  0.06768  Biso   1.000  O
  O80      1.0000 0.86264  0.18603  0.13058  Biso   1.000  O
  O81      1.0000 0.64976  0.24056  0.94788  Biso   1.000  O
  O82      1.0000 0.53918  0.17066  0.96956  Biso   1.000  O
  O83      1.0000 0.57056  0.95264  0.07447  Biso   1.000  O
  O84      1.0000 0.67374  0.94206  0.12306  Biso   1.000  O
  O85      1.0000 0.91524  0.28742  0.22211  Biso   1.000  O
  O86      1.0000 0.99505  0.39486  0.20684  Biso   1.000  O
  O87      1.0000 0.98565  0.62995  0.31338  Biso   1.000  O
  O88      1.0000 0.88317  0.63893  0.36430  Biso   1.000  O
  O89      1.0000 0.71941  0.29263  0.34644  Biso   1.000  O
  O90      1.0000 0.68018  0.40939  0.37645  Biso   1.000  O
  O91      1.0000 0.02002  0.30270  0.13449  Biso   1.000  O
  H49      1.0000 0.02460  0.33930  0.15880  Biso   1.000  H
  Zn19     1.0000 0.95951  0.34213  0.08058  Biso   1.000  Zn
  Zn20     1.0000 0.95001  0.22485  0.16967  Biso   1.000  Zn
  Zn21     1.0000 0.62713  0.24495  0.88191  Biso   1.000  Zn
  C127     1.0000 0.73482  0.83240  0.57153  Biso   1.000  C
  C128     1.0000 0.77374  0.79980  0.53324  Biso   1.000  C
  H50      1.0000 0.75250  0.75340  0.51880  Biso   1.000  H
  C129     1.0000 0.84423  0.83640  0.51636  Biso   1.000  C
  C130     1.0000 0.87377  0.90650  0.53724  Biso   1.000  C
  H51      1.0000 0.92170  0.93050  0.52620  Biso   1.000  H
  C131     1.0000 0.83350  0.94180  0.57412  Biso   1.000  C
  C132     1.0000 0.76460  0.90380  0.59158  Biso   1.000  C
  H52      1.0000 0.73790  0.92620  0.61700  Biso   1.000  H
  C133     1.0000 0.66080  0.79000  0.59169  Biso   1.000  C
  C134     1.0000 0.88840  0.80570  0.47464  Biso   1.000  C
  C135     1.0000 0.86450  0.02180  0.59296  Biso   1.000  C
  C136     1.0000 0.59960  0.59570  0.76805  Biso   1.000  C
  C137     1.0000 0.57097  0.52060  0.78223  Biso   1.000  C
  H53      1.0000 0.52630  0.49710  0.76720  Biso   1.000  H
  C138     1.0000 0.60777  0.47960  0.81857  Biso   1.000  C
  C139     1.0000 0.67388  0.51570  0.84119  Biso   1.000  C
  H54      1.0000 0.69880  0.48870  0.86580  Biso   1.000  H
  C140     1.0000 0.70260  0.59120  0.82739  Biso   1.000  C
  C141     1.0000 0.66559  0.63050  0.79074  Biso   1.000  C
  H55      1.0000 0.68540  0.68130  0.78110  Biso   1.000  H
  C142     1.0000 0.55910  0.63960  0.72901  Biso   1.000  C
  C143     1.0000 0.57750  0.39730  0.83342  Biso   1.000  C
  C144     1.0000 0.77320  0.63040  0.85213  Biso   1.000  C
  O92      1.0000 0.62816  0.73552  0.56768  Biso   1.000  O
  O93      1.0000 0.63736  0.81397  0.63058  Biso   1.000  O
  O94      1.0000 0.85024  0.75944  0.44788  Biso   1.000  O
  O95      1.0000 0.96082  0.82934  0.46956  Biso   1.000  O
  O96      1.0000 0.92944  0.04736  0.57447  Biso   1.000  O
  O97      1.0000 0.82626  0.05794  0.62306  Biso   1.000  O
  O98      1.0000 0.58476  0.71258  0.72211  Biso   1.000  O
  O99      1.0000 0.50495  0.60514  0.70684  Biso   1.000  O
  O100     1.0000 0.51435  0.37005  0.81338  Biso   1.000  O
  O101     1.0000 0.61683  0.36107  0.86430  Biso   1.000  O
  O102     1.0000 0.78059  0.70737  0.84644  Biso   1.000  O
  O103     1.0000 0.81982  0.59061  0.87645  Biso   1.000  O
  O104     1.0000 0.47998  0.69730  0.63449  Biso   1.000  O
  H56      1.0000 0.47540  0.66070  0.65880  Biso   1.000  H
  Zn22     1.0000 0.54049  0.65787  0.58058  Biso   1.000  Zn
  Zn23     1.0000 0.54999  0.77515  0.66967  Biso   1.000  Zn
  Zn24     1.0000 0.87287  0.75505  0.38191  Biso   1.000  Zn
