data_image0
_cell_length_a       13.036
_cell_length_b       12.2948
_cell_length_c       18.7055
_cell_angle_alpha    90
_cell_angle_beta     123.019
_cell_angle_gamma    90

_symmetry_space_group_name_H-M    "P 1"
_symmetry_int_tables_number       1

loop_
  _symmetry_equiv_pos_as_xyz
  'x, y, z'

loop_
  _atom_site_label
  _atom_site_occupancy
  _atom_site_fract_x
  _atom_site_fract_y
  _atom_site_fract_z
  _atom_site_thermal_displace_type
  _atom_site_B_iso_or_equiv
  _atom_site_type_symbol
  Zn1      1.0000 0.59993  0.69252  0.12625  Biso   1.000  Zn
  C1       1.0000 0.61130  0.58760  0.98300  Biso   1.000  C
  H1       1.0000 0.63740  0.52050  0.01020  Biso   1.000  H
  C2       1.0000 0.59270  0.61240  0.90670  Biso   1.000  C
  H2       1.0000 0.60180  0.56610  0.87120  Biso   1.000  H
  C3       1.0000 0.55260  0.75670  0.95800  Biso   1.000  C
  H3       1.0000 0.52940  0.82660  0.96250  Biso   1.000  H
  C4       1.0000 0.52930  0.78410  0.81820  Biso   1.000  C
  C5       1.0000 0.53360  0.89520  0.82300  Biso   1.000  C
  H4       1.0000 0.55840  0.93080  0.87380  Biso   1.000  H
  C6       1.0000 0.82310  0.18570  0.25670  Biso   1.000  C
  C7       1.0000 0.00850  0.29160  0.34670  Biso   1.000  C
  C8       1.0000 0.01890  0.09360  0.35160  Biso   1.000  C
  C9       1.0000 0.81630  0.38210  0.24580  Biso   1.000  C
  H5       1.0000 0.75450  0.36840  0.18620  Biso   1.000  H
  H6       1.0000 0.87050  0.43810  0.24820  Biso   1.000  H
  C10      1.0000 0.75500  0.42290  0.28920  Biso   1.000  C
  H7       1.0000 0.81700  0.44060  0.34800  Biso   1.000  H
  H8       1.0000 0.70410  0.36560  0.28950  Biso   1.000  H
  C11      1.0000 0.67730  0.52200  0.24610  Biso   1.000  C
  C12      1.0000 0.20500  0.19840  0.43280  Biso   1.000  C
  H9       1.0000 0.23440  0.26180  0.41820  Biso   1.000  H
  H10      1.0000 0.23910  0.13460  0.42270  Biso   1.000  H
  C13      1.0000 0.25260  0.20350  0.52760  Biso   1.000  C
  H11      1.0000 0.21920  0.26620  0.53960  Biso   1.000  H
  H12      1.0000 0.23000  0.13830  0.54510  Biso   1.000  H
  C14      1.0000 0.38980  0.21250  0.57380  Biso   1.000  C
  C15      1.0000 0.83490  0.98670  0.25680  Biso   1.000  C
  H13      1.0000 0.89180  0.93610  0.25670  Biso   1.000  H
  H14      1.0000 0.76720  0.99680  0.19830  Biso   1.000  H
  C16      1.0000 0.78660  0.93740  0.30750  Biso   1.000  C
  H15      1.0000 0.85470  0.91510  0.36320  Biso   1.000  H
  H16      1.0000 0.73990  0.99160  0.31580  Biso   1.000  H
  C17      1.0000 0.70620  0.84010  0.26130  Biso   1.000  C
  O1       1.0000 0.62620  0.56720  0.27830  Biso   1.000  O
  O2       1.0000 0.67050  0.55210  0.17930  Biso   1.000  O
  O3       1.0000 0.44820  0.14470  0.56360  Biso   1.000  O
  O4       1.0000 0.44140  0.30180  0.61860  Biso   1.000  O
  O5       1.0000 0.62970  0.81010  0.27920  Biso   1.000  O
  O6       1.0000 0.72090  0.79460  0.20690  Biso   1.000  O
  O7       1.0000 0.71500  0.18080  0.20620  Biso   1.000  O
  O8       1.0000 0.05800  0.37840  0.37190  Biso   1.000  O
  O9       1.0000 0.07730  0.01110  0.38150  Biso   1.000  O
  N1       1.0000 0.58480  0.68000  0.01500  Biso   1.000  N
  N2       1.0000 0.55750  0.72060  0.89160  Biso   1.000  N
  N3       1.0000 0.88660  0.28280  0.28410  Biso   1.000  N
  N4       1.0000 0.07210  0.19430  0.37620  Biso   1.000  N
  N5       1.0000 0.89620  0.09070  0.29080  Biso   1.000  N
  Zn2      1.0000 0.40007  0.69252  0.37375  Biso   1.000  Zn
  C18      1.0000 0.38870  0.58760  0.51700  Biso   1.000  C
  H17      1.0000 0.36260  0.52050  0.48980  Biso   1.000  H
  C19      1.0000 0.40730  0.61240  0.59330  Biso   1.000  C
  H18      1.0000 0.39820  0.56610  0.62880  Biso   1.000  H
  C20      1.0000 0.44740  0.75670  0.54200  Biso   1.000  C
  H19      1.0000 0.47060  0.82660  0.53750  Biso   1.000  H
  C21      1.0000 0.47070  0.78410  0.68180  Biso   1.000  C
  C22      1.0000 0.46640  0.89520  0.67700  Biso   1.000  C
  H20      1.0000 0.44160  0.93080  0.62620  Biso   1.000  H
  C23      1.0000 0.17690  0.18570  0.24330  Biso   1.000  C
  C24      1.0000 0.99150  0.29160  0.15330  Biso   1.000  C
  C25      1.0000 0.98110  0.09360  0.14840  Biso   1.000  C
  C26      1.0000 0.18370  0.38210  0.25420  Biso   1.000  C
  H21      1.0000 0.24550  0.36840  0.31380  Biso   1.000  H
  H22      1.0000 0.12950  0.43810  0.25180  Biso   1.000  H
  C27      1.0000 0.24500  0.42290  0.21080  Biso   1.000  C
  H23      1.0000 0.18300  0.44060  0.15200  Biso   1.000  H
  H24      1.0000 0.29590  0.36560  0.21050  Biso   1.000  H
  C28      1.0000 0.32270  0.52200  0.25390  Biso   1.000  C
  C29      1.0000 0.79500  0.19840  0.06720  Biso   1.000  C
  H25      1.0000 0.76560  0.26180  0.08180  Biso   1.000  H
  H26      1.0000 0.76090  0.13460  0.07730  Biso   1.000  H
  C30      1.0000 0.74740  0.20350  0.97240  Biso   1.000  C
  H27      1.0000 0.78080  0.26620  0.96040  Biso   1.000  H
  H28      1.0000 0.77000  0.13830  0.95490  Biso   1.000  H
  C31      1.0000 0.61020  0.21250  0.92620  Biso   1.000  C
  C32      1.0000 0.16510  0.98670  0.24320  Biso   1.000  C
  H29      1.0000 0.10820  0.93610  0.24330  Biso   1.000  H
  H30      1.0000 0.23280  0.99680  0.30170  Biso   1.000  H
  C33      1.0000 0.21340  0.93740  0.19250  Biso   1.000  C
  H31      1.0000 0.14530  0.91510  0.13680  Biso   1.000  H
  H32      1.0000 0.26010  0.99160  0.18420  Biso   1.000  H
  C34      1.0000 0.29380  0.84010  0.23870  Biso   1.000  C
  O10      1.0000 0.37380  0.56720  0.22170  Biso   1.000  O
  O11      1.0000 0.32950  0.55210  0.32070  Biso   1.000  O
  O12      1.0000 0.55180  0.14470  0.93640  Biso   1.000  O
  O13      1.0000 0.55860  0.30180  0.88140  Biso   1.000  O
  O14      1.0000 0.37030  0.81010  0.22080  Biso   1.000  O
  O15      1.0000 0.27910  0.79460  0.29310  Biso   1.000  O
  O16      1.0000 0.28500  0.18080  0.29380  Biso   1.000  O
  O17      1.0000 0.94200  0.37840  0.12810  Biso   1.000  O
  O18      1.0000 0.92270  0.01110  0.11850  Biso   1.000  O
  N6       1.0000 0.41520  0.68000  0.48500  Biso   1.000  N
  N7       1.0000 0.44250  0.72060  0.60840  Biso   1.000  N
  N8       1.0000 0.11340  0.28280  0.21590  Biso   1.000  N
  N9       1.0000 0.92790  0.19430  0.12380  Biso   1.000  N
  N10      1.0000 0.10380  0.09070  0.20920  Biso   1.000  N
  Zn3      1.0000 0.40007  0.30748  0.87375  Biso   1.000  Zn
  C35      1.0000 0.38870  0.41240  0.01700  Biso   1.000  C
  H33      1.0000 0.36260  0.47950  0.98980  Biso   1.000  H
  C36      1.0000 0.40730  0.38760  0.09330  Biso   1.000  C
  H34      1.0000 0.39820  0.43390  0.12880  Biso   1.000  H
  C37      1.0000 0.44740  0.24330  0.04200  Biso   1.000  C
  H35      1.0000 0.47060  0.17340  0.03750  Biso   1.000  H
  C38      1.0000 0.47070  0.21590  0.18180  Biso   1.000  C
  C39      1.0000 0.46640  0.10480  0.17700  Biso   1.000  C
  H36      1.0000 0.44160  0.06920  0.12620  Biso   1.000  H
  C40      1.0000 0.17690  0.81430  0.74330  Biso   1.000  C
  C41      1.0000 0.99150  0.70840  0.65330  Biso   1.000  C
  C42      1.0000 0.98110  0.90640  0.64840  Biso   1.000  C
  C43      1.0000 0.18370  0.61790  0.75420  Biso   1.000  C
  H37      1.0000 0.24550  0.63160  0.81380  Biso   1.000  H
  H38      1.0000 0.12950  0.56190  0.75180  Biso   1.000  H
  C44      1.0000 0.24500  0.57710  0.71080  Biso   1.000  C
  H39      1.0000 0.18300  0.55940  0.65200  Biso   1.000  H
  H40      1.0000 0.29590  0.63440  0.71050  Biso   1.000  H
  C45      1.0000 0.32270  0.47800  0.75390  Biso   1.000  C
  C46      1.0000 0.79500  0.80160  0.56720  Biso   1.000  C
  H41      1.0000 0.76560  0.73820  0.58180  Biso   1.000  H
  H42      1.0000 0.76090  0.86540  0.57730  Biso   1.000  H
  C47      1.0000 0.74740  0.79650  0.47240  Biso   1.000  C
  H43      1.0000 0.78080  0.73380  0.46040  Biso   1.000  H
  H44      1.0000 0.77000  0.86170  0.45490  Biso   1.000  H
  C48      1.0000 0.61020  0.78750  0.42620  Biso   1.000  C
  C49      1.0000 0.16510  0.01330  0.74320  Biso   1.000  C
  H45      1.0000 0.10820  0.06390  0.74330  Biso   1.000  H
  H46      1.0000 0.23280  0.00320  0.80170  Biso   1.000  H
  C50      1.0000 0.21340  0.06260  0.69250  Biso   1.000  C
  H47      1.0000 0.14530  0.08490  0.63680  Biso   1.000  H
  H48      1.0000 0.26010  0.00840  0.68420  Biso   1.000  H
  C51      1.0000 0.29380  0.15990  0.73870  Biso   1.000  C
  O19      1.0000 0.37380  0.43280  0.72170  Biso   1.000  O
  O20      1.0000 0.32950  0.44790  0.82070  Biso   1.000  O
  O21      1.0000 0.55180  0.85530  0.43640  Biso   1.000  O
  O22      1.0000 0.55860  0.69820  0.38140  Biso   1.000  O
  O23      1.0000 0.37030  0.18990  0.72080  Biso   1.000  O
  O24      1.0000 0.27910  0.20540  0.79310  Biso   1.000  O
  O25      1.0000 0.28500  0.81920  0.79380  Biso   1.000  O
  O26      1.0000 0.94200  0.62160  0.62810  Biso   1.000  O
  O27      1.0000 0.92270  0.98890  0.61850  Biso   1.000  O
  N11      1.0000 0.41520  0.32000  0.98500  Biso   1.000  N
  N12      1.0000 0.44250  0.27940  0.10840  Biso   1.000  N
  N13      1.0000 0.11340  0.71720  0.71590  Biso   1.000  N
  N14      1.0000 0.92790  0.80570  0.62380  Biso   1.000  N
  N15      1.0000 0.10380  0.90930  0.70920  Biso   1.000  N
  Zn4      1.0000 0.59993  0.30748  0.62625  Biso   1.000  Zn
  C52      1.0000 0.61130  0.41240  0.48300  Biso   1.000  C
  H49      1.0000 0.63740  0.47950  0.51020  Biso   1.000  H
  C53      1.0000 0.59270  0.38760  0.40670  Biso   1.000  C
  H50      1.0000 0.60180  0.43390  0.37120  Biso   1.000  H
  C54      1.0000 0.55260  0.24330  0.45800  Biso   1.000  C
  H51      1.0000 0.52940  0.17340  0.46250  Biso   1.000  H
  C55      1.0000 0.52930  0.21590  0.31820  Biso   1.000  C
  C56      1.0000 0.53360  0.10480  0.32300  Biso   1.000  C
  H52      1.0000 0.55840  0.06920  0.37380  Biso   1.000  H
  C57      1.0000 0.82310  0.81430  0.75670  Biso   1.000  C
  C58      1.0000 0.00850  0.70840  0.84670  Biso   1.000  C
  C59      1.0000 0.01890  0.90640  0.85160  Biso   1.000  C
  C60      1.0000 0.81630  0.61790  0.74580  Biso   1.000  C
  H53      1.0000 0.75450  0.63160  0.68620  Biso   1.000  H
  H54      1.0000 0.87050  0.56190  0.74820  Biso   1.000  H
  C61      1.0000 0.75500  0.57710  0.78920  Biso   1.000  C
  H55      1.0000 0.81700  0.55940  0.84800  Biso   1.000  H
  H56      1.0000 0.70410  0.63440  0.78950  Biso   1.000  H
  C62      1.0000 0.67730  0.47800  0.74610  Biso   1.000  C
  C63      1.0000 0.20500  0.80160  0.93280  Biso   1.000  C
  H57      1.0000 0.23440  0.73820  0.91820  Biso   1.000  H
  H58      1.0000 0.23910  0.86540  0.92270  Biso   1.000  H
  C64      1.0000 0.25260  0.79650  0.02760  Biso   1.000  C
  H59      1.0000 0.21920  0.73380  0.03960  Biso   1.000  H
  H60      1.0000 0.23000  0.86170  0.04510  Biso   1.000  H
  C65      1.0000 0.38980  0.78750  0.07380  Biso   1.000  C
  C66      1.0000 0.83490  0.01330  0.75680  Biso   1.000  C
  H61      1.0000 0.89180  0.06390  0.75670  Biso   1.000  H
  H62      1.0000 0.76720  0.00320  0.69830  Biso   1.000  H
  C67      1.0000 0.78660  0.06260  0.80750  Biso   1.000  C
  H63      1.0000 0.85470  0.08490  0.86320  Biso   1.000  H
  H64      1.0000 0.73990  0.00840  0.81580  Biso   1.000  H
  C68      1.0000 0.70620  0.15990  0.76130  Biso   1.000  C
  O28      1.0000 0.62620  0.43280  0.77830  Biso   1.000  O
  O29      1.0000 0.67050  0.44790  0.67930  Biso   1.000  O
  O30      1.0000 0.44820  0.85530  0.06360  Biso   1.000  O
  O31      1.0000 0.44140  0.69820  0.11860  Biso   1.000  O
  O32      1.0000 0.62970  0.18990  0.77920  Biso   1.000  O
  O33      1.0000 0.72090  0.20540  0.70690  Biso   1.000  O
  O34      1.0000 0.71500  0.81920  0.70620  Biso   1.000  O
  O35      1.0000 0.05800  0.62160  0.87190  Biso   1.000  O
  O36      1.0000 0.07730  0.98890  0.88150  Biso   1.000  O
  N16      1.0000 0.58480  0.32000  0.51500  Biso   1.000  N
  N17      1.0000 0.55750  0.27940  0.39160  Biso   1.000  N
  N18      1.0000 0.88660  0.71720  0.78410  Biso   1.000  N
  N19      1.0000 0.07210  0.80570  0.87620  Biso   1.000  N
  N20      1.0000 0.89620  0.90930  0.79080  Biso   1.000  N
  Zn5      1.0000 0.50000  0.68697  0.25000  Biso   1.000  Zn
  Zn6      1.0000 0.50000  0.31303  0.75000  Biso   1.000  Zn
  C69      1.0000 0.50000  0.95280  0.75000  Biso   1.000  C
  H65      1.0000 0.50000  0.02850  0.75000  Biso   1.000  H
  N21      1.0000 0.50000  0.72870  0.75000  Biso   1.000  N
  C70      1.0000 0.50000  0.04720  0.25000  Biso   1.000  C
  H66      1.0000 0.50000  0.97150  0.25000  Biso   1.000  H
  N22      1.0000 0.50000  0.27130  0.25000  Biso   1.000  N
