data_image0
_cell_length_a       13.8425
_cell_length_b       13.8425
_cell_length_c       20.2042
_cell_angle_alpha    90
_cell_angle_beta     90
_cell_angle_gamma    120

_symmetry_space_group_name_H-M    "P 1"
_symmetry_int_tables_number       1

loop_
  _symmetry_equiv_pos_as_xyz
  'x, y, z'

loop_
  _atom_site_label
  _atom_site_occupancy
  _atom_site_fract_x
  _atom_site_fract_y
  _atom_site_fract_z
  _atom_site_thermal_displace_type
  _atom_site_B_iso_or_equiv
  _atom_site_type_symbol
  Al1      1.0000 0.89367  0.33146  0.82478  Biso   1.000  Al
  Al2      1.0000 0.99468  0.22580  0.57371  Biso   1.000  Al
  P1       1.0000 0.89452  0.33349  0.66873  Biso   1.000  P
  P2       1.0000 0.76950  0.99571  0.58162  Biso   1.000  P
  O1       1.0000 0.92610  0.32700  0.73920  Biso   1.000  O
  O2       1.0000 0.75550  0.22530  0.84490  Biso   1.000  O
  O3       1.0000 0.88980  0.08780  0.59030  Biso   1.000  O
  O4       1.0000 0.97120  0.31670  0.62330  Biso   1.000  O
  O5       1.0000 0.90830  0.46170  0.84500  Biso   1.000  O
  O6       1.0000 0.12470  0.24050  0.59860  Biso   1.000  O
  O7       1.0000 0.99630  0.26400  0.48890  Biso   1.000  O
  O8       1.0000 0.98650  0.30640  0.87190  Biso   1.000  O
  Al3      1.0000 0.66854  0.56221  0.82478  Biso   1.000  Al
  Al4      1.0000 0.77420  0.76888  0.57371  Biso   1.000  Al
  P3       1.0000 0.66651  0.56103  0.66873  Biso   1.000  P
  P4       1.0000 0.00429  0.77379  0.58162  Biso   1.000  P
  O9       1.0000 0.67300  0.59910  0.73920  Biso   1.000  O
  O10      1.0000 0.77470  0.53020  0.84490  Biso   1.000  O
  O11      1.0000 0.91220  0.80200  0.59030  Biso   1.000  O
  O12      1.0000 0.68330  0.65450  0.62330  Biso   1.000  O
  O13      1.0000 0.53830  0.44660  0.84500  Biso   1.000  O
  O14      1.0000 0.75950  0.88420  0.59860  Biso   1.000  O
  O15      1.0000 0.73600  0.73230  0.48890  Biso   1.000  O
  O16      1.0000 0.69360  0.68010  0.87190  Biso   1.000  O
  Al5      1.0000 0.43779  0.10633  0.82478  Biso   1.000  Al
  Al6      1.0000 0.23112  0.00532  0.57371  Biso   1.000  Al
  P5       1.0000 0.43897  0.10548  0.66873  Biso   1.000  P
  P6       1.0000 0.22621  0.23050  0.58162  Biso   1.000  P
  O17      1.0000 0.40090  0.07390  0.73920  Biso   1.000  O
  O18      1.0000 0.46980  0.24450  0.84490  Biso   1.000  O
  O19      1.0000 0.19800  0.11020  0.59030  Biso   1.000  O
  O20      1.0000 0.34550  0.02880  0.62330  Biso   1.000  O
  O21      1.0000 0.55340  0.09170  0.84500  Biso   1.000  O
  O22      1.0000 0.11580  0.87530  0.59860  Biso   1.000  O
  O23      1.0000 0.26770  0.00370  0.48890  Biso   1.000  O
  O24      1.0000 0.31990  0.01350  0.87190  Biso   1.000  O
  Al7      1.0000 0.66854  0.10633  0.67522  Biso   1.000  Al
  Al8      1.0000 0.77420  0.00532  0.92629  Biso   1.000  Al
  P7       1.0000 0.66651  0.10548  0.83127  Biso   1.000  P
  P8       1.0000 0.00429  0.23050  0.91838  Biso   1.000  P
  O25      1.0000 0.67300  0.07390  0.76080  Biso   1.000  O
  O26      1.0000 0.77470  0.24450  0.65510  Biso   1.000  O
  O27      1.0000 0.91220  0.11020  0.90970  Biso   1.000  O
  O28      1.0000 0.68330  0.02880  0.87670  Biso   1.000  O
  O29      1.0000 0.53830  0.09170  0.65500  Biso   1.000  O
  O30      1.0000 0.75950  0.87530  0.90140  Biso   1.000  O
  O31      1.0000 0.73600  0.00370  0.01110  Biso   1.000  O
  O32      1.0000 0.69360  0.01350  0.62810  Biso   1.000  O
  Al9      1.0000 0.43779  0.33146  0.67522  Biso   1.000  Al
  Al10     1.0000 0.23112  0.22580  0.92629  Biso   1.000  Al
  P9       1.0000 0.43897  0.33349  0.83127  Biso   1.000  P
  P10      1.0000 0.22621  0.99571  0.91838  Biso   1.000  P
  O33      1.0000 0.40090  0.32700  0.76080  Biso   1.000  O
  O34      1.0000 0.46980  0.22530  0.65510  Biso   1.000  O
  O35      1.0000 0.19800  0.08780  0.90970  Biso   1.000  O
  O36      1.0000 0.34550  0.31670  0.87670  Biso   1.000  O
  O37      1.0000 0.55340  0.46170  0.65500  Biso   1.000  O
  O38      1.0000 0.11580  0.24050  0.90140  Biso   1.000  O
  O39      1.0000 0.26770  0.26400  0.01110  Biso   1.000  O
  O40      1.0000 0.31990  0.30640  0.62810  Biso   1.000  O
  Al11     1.0000 0.89367  0.56221  0.67522  Biso   1.000  Al
  Al12     1.0000 0.99468  0.76888  0.92629  Biso   1.000  Al
  P11      1.0000 0.89452  0.56103  0.83127  Biso   1.000  P
  P12      1.0000 0.76950  0.77379  0.91838  Biso   1.000  P
  O41      1.0000 0.92610  0.59910  0.76080  Biso   1.000  O
  O42      1.0000 0.75550  0.53020  0.65510  Biso   1.000  O
  O43      1.0000 0.88980  0.80200  0.90970  Biso   1.000  O
  O44      1.0000 0.97120  0.65450  0.87670  Biso   1.000  O
  O45      1.0000 0.90830  0.44660  0.65500  Biso   1.000  O
  O46      1.0000 0.12470  0.88420  0.90140  Biso   1.000  O
  O47      1.0000 0.99630  0.73230  0.01110  Biso   1.000  O
  O48      1.0000 0.98650  0.68010  0.62810  Biso   1.000  O
  Al13     1.0000 0.10633  0.66854  0.17522  Biso   1.000  Al
  Al14     1.0000 0.00532  0.77420  0.42629  Biso   1.000  Al
  P13      1.0000 0.10548  0.66651  0.33127  Biso   1.000  P
  P14      1.0000 0.23050  0.00429  0.41838  Biso   1.000  P
  O49      1.0000 0.07390  0.67300  0.26080  Biso   1.000  O
  O50      1.0000 0.24450  0.77470  0.15510  Biso   1.000  O
  O51      1.0000 0.11020  0.91220  0.40970  Biso   1.000  O
  O52      1.0000 0.02880  0.68330  0.37670  Biso   1.000  O
  O53      1.0000 0.09170  0.53830  0.15500  Biso   1.000  O
  O54      1.0000 0.87530  0.75950  0.40140  Biso   1.000  O
  O55      1.0000 0.00370  0.73600  0.51110  Biso   1.000  O
  O56      1.0000 0.01350  0.69360  0.12810  Biso   1.000  O
  Al15     1.0000 0.33146  0.43779  0.17522  Biso   1.000  Al
  Al16     1.0000 0.22580  0.23112  0.42629  Biso   1.000  Al
  P15      1.0000 0.33349  0.43897  0.33127  Biso   1.000  P
  P16      1.0000 0.99571  0.22621  0.41838  Biso   1.000  P
  O57      1.0000 0.32700  0.40090  0.26080  Biso   1.000  O
  O58      1.0000 0.22530  0.46980  0.15510  Biso   1.000  O
  O59      1.0000 0.08780  0.19800  0.40970  Biso   1.000  O
  O60      1.0000 0.31670  0.34550  0.37670  Biso   1.000  O
  O61      1.0000 0.46170  0.55340  0.15500  Biso   1.000  O
  O62      1.0000 0.24050  0.11580  0.40140  Biso   1.000  O
  O63      1.0000 0.26400  0.26770  0.51110  Biso   1.000  O
  O64      1.0000 0.30640  0.31990  0.12810  Biso   1.000  O
  Al17     1.0000 0.56221  0.89367  0.17522  Biso   1.000  Al
  Al18     1.0000 0.76888  0.99468  0.42629  Biso   1.000  Al
  P17      1.0000 0.56103  0.89452  0.33127  Biso   1.000  P
  P18      1.0000 0.77379  0.76950  0.41838  Biso   1.000  P
  O65      1.0000 0.59910  0.92610  0.26080  Biso   1.000  O
  O66      1.0000 0.53020  0.75550  0.15510  Biso   1.000  O
  O67      1.0000 0.80200  0.88980  0.40970  Biso   1.000  O
  O68      1.0000 0.65450  0.97120  0.37670  Biso   1.000  O
  O69      1.0000 0.44660  0.90830  0.15500  Biso   1.000  O
  O70      1.0000 0.88420  0.12470  0.40140  Biso   1.000  O
  O71      1.0000 0.73230  0.99630  0.51110  Biso   1.000  O
  O72      1.0000 0.68010  0.98650  0.12810  Biso   1.000  O
  Al19     1.0000 0.33146  0.89367  0.32478  Biso   1.000  Al
  Al20     1.0000 0.22580  0.99468  0.07371  Biso   1.000  Al
  P19      1.0000 0.33349  0.89452  0.16873  Biso   1.000  P
  P20      1.0000 0.99571  0.76950  0.08162  Biso   1.000  P
  O73      1.0000 0.32700  0.92610  0.23920  Biso   1.000  O
  O74      1.0000 0.22530  0.75550  0.34490  Biso   1.000  O
  O75      1.0000 0.08780  0.88980  0.09030  Biso   1.000  O
  O76      1.0000 0.31670  0.97120  0.12330  Biso   1.000  O
  O77      1.0000 0.46170  0.90830  0.34500  Biso   1.000  O
  O78      1.0000 0.24050  0.12470  0.09860  Biso   1.000  O
  O79      1.0000 0.26400  0.99630  0.98890  Biso   1.000  O
  O80      1.0000 0.30640  0.98650  0.37190  Biso   1.000  O
  Al21     1.0000 0.56221  0.66854  0.32478  Biso   1.000  Al
  Al22     1.0000 0.76888  0.77420  0.07371  Biso   1.000  Al
  P21      1.0000 0.56103  0.66651  0.16873  Biso   1.000  P
  P22      1.0000 0.77379  0.00429  0.08162  Biso   1.000  P
  O81      1.0000 0.59910  0.67300  0.23920  Biso   1.000  O
  O82      1.0000 0.53020  0.77470  0.34490  Biso   1.000  O
  O83      1.0000 0.80200  0.91220  0.09030  Biso   1.000  O
  O84      1.0000 0.65450  0.68330  0.12330  Biso   1.000  O
  O85      1.0000 0.44660  0.53830  0.34500  Biso   1.000  O
  O86      1.0000 0.88420  0.75950  0.09860  Biso   1.000  O
  O87      1.0000 0.73230  0.73600  0.98890  Biso   1.000  O
  O88      1.0000 0.68010  0.69360  0.37190  Biso   1.000  O
  Al23     1.0000 0.10633  0.43779  0.32478  Biso   1.000  Al
  Al24     1.0000 0.00532  0.23112  0.07371  Biso   1.000  Al
  P23      1.0000 0.10548  0.43897  0.16873  Biso   1.000  P
  P24      1.0000 0.23050  0.22621  0.08162  Biso   1.000  P
  O89      1.0000 0.07390  0.40090  0.23920  Biso   1.000  O
  O90      1.0000 0.24450  0.46980  0.34490  Biso   1.000  O
  O91      1.0000 0.11020  0.19800  0.09030  Biso   1.000  O
  O92      1.0000 0.02880  0.34550  0.12330  Biso   1.000  O
  O93      1.0000 0.09170  0.55340  0.34500  Biso   1.000  O
  O94      1.0000 0.87530  0.11580  0.09860  Biso   1.000  O
  O95      1.0000 0.00370  0.26770  0.98890  Biso   1.000  O
  O96      1.0000 0.01350  0.31990  0.37190  Biso   1.000  O
