data_image0
_cell_length_a       11.5989
_cell_length_b       20.979
_cell_length_c       20.81
_cell_angle_alpha    110.391
_cell_angle_beta     90
_cell_angle_gamma    90

_symmetry_space_group_name_H-M    P 1
_symmetry_int_tables_number       1

loop_
  _symmetry_equiv_pos_as_xyz
  'x, y, z'

loop_
  _atom_site_label
  _atom_site_occupancy
  _atom_site_fract_x
  _atom_site_fract_y
  _atom_site_fract_z
  _atom_site_thermal_displace_type
  _atom_site_B_iso_or_equiv
  _atom_site_type_symbol
  Eu1      1.0000 0.57826  0.94623  0.55417  Biso   1.000  Eu
  Eu2      1.0000 0.17926  0.59908  0.53601  Biso   1.000  Eu
  Eu3      1.0000 0.07826  0.05377  0.94583  Biso   1.000  Eu
  Eu4      1.0000 0.67926  0.40091  0.96399  Biso   1.000  Eu
  Eu5      1.0000 0.42174  0.05377  0.44583  Biso   1.000  Eu
  Eu6      1.0000 0.82074  0.40091  0.46399  Biso   1.000  Eu
  Eu7      1.0000 0.92174  0.94623  0.05417  Biso   1.000  Eu
  Eu8      1.0000 0.32074  0.59908  0.03601  Biso   1.000  Eu
  H1       1.0000 0.87000  0.69240  0.57000  Biso   1.000  H
  H2       1.0000 0.70490  0.75310  0.61500  Biso   1.000  H
  H3       1.0000 0.52630  0.70460  0.58230  Biso   1.000  H
  H4       1.0000 0.67650  0.53460  0.45750  Biso   1.000  H
  H5       1.0000 0.52800  0.83630  0.72970  Biso   1.000  H
  H6       1.0000 0.56530  0.81590  0.83020  Biso   1.000  H
  H7       1.0000 0.70540  0.87850  0.90460  Biso   1.000  H
  H8       1.0000 0.77360  0.97980  0.77820  Biso   1.000  H
  H9       1.0000 0.14400  0.67370  0.28320  Biso   1.000  H
  H10      1.0000 0.16050  0.76690  0.25060  Biso   1.000  H
  H11      1.0000 0.25280  0.86380  0.32010  Biso   1.000  H
  H12      1.0000 0.31090  0.77340  0.45800  Biso   1.000  H
  H13      1.0000 0.51450  0.78090  0.44580  Biso   1.000  H
  H14      1.0000 0.58790  0.67530  0.38260  Biso   1.000  H
  H15      1.0000 0.78220  0.65600  0.38260  Biso   1.000  H
  H16      1.0000 0.97920  0.69850  0.43120  Biso   1.000  H
  H17      1.0000 0.09060  0.78360  0.49730  Biso   1.000  H
  H18      1.0000 0.11340  0.90790  0.56850  Biso   1.000  H
  H19      1.0000 0.02910  0.01240  0.62090  Biso   1.000  H
  H20      1.0000 0.83200  0.02360  0.61360  Biso   1.000  H
  H21      1.0000 0.96560  0.55630  0.62980  Biso   1.000  H
  H22      1.0000 0.82230  0.59530  0.70970  Biso   1.000  H
  H23      1.0000 0.80510  0.71030  0.76800  Biso   1.000  H
  H24      1.0000 0.88490  0.82890  0.79190  Biso   1.000  H
  H25      1.0000 0.01500  0.89780  0.76940  Biso   1.000  H
  H26      1.0000 0.19630  0.91140  0.70730  Biso   1.000  H
  H27      1.0000 0.33710  0.86250  0.62800  Biso   1.000  H
  H28      1.0000 0.33050  0.74720  0.56810  Biso   1.000  H
  H29      1.0000 0.37000  0.30760  0.93000  Biso   1.000  H
  H30      1.0000 0.20490  0.24690  0.88500  Biso   1.000  H
  H31      1.0000 0.02630  0.29540  0.91770  Biso   1.000  H
  H32      1.0000 0.17650  0.46540  0.04250  Biso   1.000  H
  H33      1.0000 0.02800  0.16370  0.77030  Biso   1.000  H
  H34      1.0000 0.06530  0.18410  0.66980  Biso   1.000  H
  H35      1.0000 0.20540  0.12150  0.59540  Biso   1.000  H
  H36      1.0000 0.27360  0.02020  0.72180  Biso   1.000  H
  H37      1.0000 0.64400  0.32630  0.21680  Biso   1.000  H
  H38      1.0000 0.66050  0.23310  0.24940  Biso   1.000  H
  H39      1.0000 0.75280  0.13620  0.17990  Biso   1.000  H
  H40      1.0000 0.81090  0.22660  0.04200  Biso   1.000  H
  H41      1.0000 0.01450  0.21910  0.05420  Biso   1.000  H
  H42      1.0000 0.08790  0.32470  0.11740  Biso   1.000  H
  H43      1.0000 0.28220  0.34400  0.11740  Biso   1.000  H
  H44      1.0000 0.47920  0.30150  0.06880  Biso   1.000  H
  H45      1.0000 0.59060  0.21640  0.00270  Biso   1.000  H
  H46      1.0000 0.61340  0.09210  0.93150  Biso   1.000  H
  H47      1.0000 0.52910  0.98760  0.87910  Biso   1.000  H
  H48      1.0000 0.33200  0.97640  0.88640  Biso   1.000  H
  H49      1.0000 0.46560  0.44370  0.87020  Biso   1.000  H
  H50      1.0000 0.32230  0.40470  0.79030  Biso   1.000  H
  H51      1.0000 0.30510  0.28970  0.73200  Biso   1.000  H
  H52      1.0000 0.38490  0.17110  0.70810  Biso   1.000  H
  H53      1.0000 0.51500  0.10220  0.73060  Biso   1.000  H
  H54      1.0000 0.69630  0.08860  0.79270  Biso   1.000  H
  H55      1.0000 0.83710  0.13750  0.87200  Biso   1.000  H
  H56      1.0000 0.83050  0.25280  0.93190  Biso   1.000  H
  H57      1.0000 0.13000  0.30760  0.43000  Biso   1.000  H
  H58      1.0000 0.29510  0.24690  0.38500  Biso   1.000  H
  H59      1.0000 0.47370  0.29540  0.41770  Biso   1.000  H
  H60      1.0000 0.32350  0.46540  0.54250  Biso   1.000  H
  H61      1.0000 0.47200  0.16370  0.27030  Biso   1.000  H
  H62      1.0000 0.43470  0.18410  0.16980  Biso   1.000  H
  H63      1.0000 0.29460  0.12150  0.09540  Biso   1.000  H
  H64      1.0000 0.22640  0.02020  0.22180  Biso   1.000  H
  H65      1.0000 0.85600  0.32630  0.71680  Biso   1.000  H
  H66      1.0000 0.83950  0.23310  0.74940  Biso   1.000  H
  H67      1.0000 0.74720  0.13620  0.67990  Biso   1.000  H
  H68      1.0000 0.68910  0.22660  0.54200  Biso   1.000  H
  H69      1.0000 0.48550  0.21910  0.55420  Biso   1.000  H
  H70      1.0000 0.41210  0.32470  0.61740  Biso   1.000  H
  H71      1.0000 0.21780  0.34400  0.61740  Biso   1.000  H
  H72      1.0000 0.02080  0.30150  0.56880  Biso   1.000  H
  H73      1.0000 0.90940  0.21640  0.50270  Biso   1.000  H
  H74      1.0000 0.88660  0.09210  0.43150  Biso   1.000  H
  H75      1.0000 0.97090  0.98760  0.37910  Biso   1.000  H
  H76      1.0000 0.16800  0.97640  0.38640  Biso   1.000  H
  H77      1.0000 0.03440  0.44370  0.37020  Biso   1.000  H
  H78      1.0000 0.17770  0.40470  0.29030  Biso   1.000  H
  H79      1.0000 0.19490  0.28970  0.23200  Biso   1.000  H
  H80      1.0000 0.11510  0.17110  0.20810  Biso   1.000  H
  H81      1.0000 0.98500  0.10220  0.23060  Biso   1.000  H
  H82      1.0000 0.80370  0.08860  0.29270  Biso   1.000  H
  H83      1.0000 0.66290  0.13750  0.37200  Biso   1.000  H
  H84      1.0000 0.66950  0.25280  0.43190  Biso   1.000  H
  H85      1.0000 0.63000  0.69240  0.07000  Biso   1.000  H
  H86      1.0000 0.79510  0.75310  0.11500  Biso   1.000  H
  H87      1.0000 0.97370  0.70460  0.08230  Biso   1.000  H
  H88      1.0000 0.82350  0.53460  0.95750  Biso   1.000  H
  H89      1.0000 0.97200  0.83630  0.22970  Biso   1.000  H
  H90      1.0000 0.93470  0.81590  0.33020  Biso   1.000  H
  H91      1.0000 0.79460  0.87850  0.40460  Biso   1.000  H
  H92      1.0000 0.72640  0.97980  0.27820  Biso   1.000  H
  H93      1.0000 0.35600  0.67370  0.78320  Biso   1.000  H
  H94      1.0000 0.33950  0.76690  0.75060  Biso   1.000  H
  H95      1.0000 0.24720  0.86380  0.82010  Biso   1.000  H
  H96      1.0000 0.18910  0.77340  0.95800  Biso   1.000  H
  H97      1.0000 0.98550  0.78090  0.94580  Biso   1.000  H
  H98      1.0000 0.91210  0.67530  0.88260  Biso   1.000  H
  H99      1.0000 0.71780  0.65600  0.88260  Biso   1.000  H
  H100     1.0000 0.52080  0.69850  0.93120  Biso   1.000  H
  H101     1.0000 0.40940  0.78360  0.99730  Biso   1.000  H
  H102     1.0000 0.38660  0.90790  0.06850  Biso   1.000  H
  H103     1.0000 0.47090  0.01240  0.12090  Biso   1.000  H
  H104     1.0000 0.66800  0.02360  0.11360  Biso   1.000  H
  H105     1.0000 0.53440  0.55630  0.12980  Biso   1.000  H
  H106     1.0000 0.67770  0.59530  0.20970  Biso   1.000  H
  H107     1.0000 0.69490  0.71030  0.26800  Biso   1.000  H
  H108     1.0000 0.61510  0.82890  0.29190  Biso   1.000  H
  H109     1.0000 0.48500  0.89780  0.26940  Biso   1.000  H
  H110     1.0000 0.30370  0.91140  0.20730  Biso   1.000  H
  H111     1.0000 0.16290  0.86250  0.12800  Biso   1.000  H
  H112     1.0000 0.16950  0.74720  0.06810  Biso   1.000  H
  C1       1.0000 0.89720  0.56560  0.48220  Biso   1.000  C
  C2       1.0000 0.79050  0.60690  0.50950  Biso   1.000  C
  C3       1.0000 0.79800  0.67270  0.55650  Biso   1.000  C
  C4       1.0000 0.69930  0.70910  0.58350  Biso   1.000  C
  C5       1.0000 0.59250  0.68010  0.56350  Biso   1.000  C
  C6       1.0000 0.58260  0.61480  0.51570  Biso   1.000  C
  C7       1.0000 0.68220  0.57850  0.48920  Biso   1.000  C
  C8       1.0000 0.46630  0.58350  0.49250  Biso   1.000  C
  C9       1.0000 0.62110  0.92450  0.67880  Biso   1.000  C
  C10      1.0000 0.64650  0.91020  0.74360  Biso   1.000  C
  C11      1.0000 0.58470  0.86120  0.75950  Biso   1.000  C
  C12      1.0000 0.60700  0.84880  0.81960  Biso   1.000  C
  C13      1.0000 0.69170  0.88590  0.86370  Biso   1.000  C
  C14      1.0000 0.75580  0.93340  0.84775  Biso   1.000  C
  C15      1.0000 0.73210  0.94650  0.78829  Biso   1.000  C
  C16      1.0000 0.85560  0.96880  0.89320  Biso   1.000  C
  C17      1.0000 0.20350  0.65380  0.39790  Biso   1.000  C
  C18      1.0000 0.22380  0.71430  0.37530  Biso   1.000  C
  C19      1.0000 0.18040  0.71270  0.31210  Biso   1.000  C
  C20      1.0000 0.19120  0.76820  0.29240  Biso   1.000  C
  C21      1.0000 0.24710  0.82620  0.33380  Biso   1.000  C
  C22      1.0000 0.29490  0.82850  0.39570  Biso   1.000  C
  C23      1.0000 0.28100  0.77200  0.41610  Biso   1.000  C
  C24      1.0000 0.36260  0.88980  0.43760  Biso   1.000  C
  C25      1.0000 0.59360  0.77390  0.44660  Biso   1.000  C
  C26      1.0000 0.63730  0.70970  0.40820  Biso   1.000  C
  C27      1.0000 0.75190  0.69810  0.40870  Biso   1.000  C
  C28      1.0000 0.82390  0.74970  0.44850  Biso   1.000  C
  C29      1.0000 0.94610  0.74070  0.45460  Biso   1.000  C
  C30      1.0000 0.01250  0.79150  0.49300  Biso   1.000  C
  C31      1.0000 0.96680  0.85780  0.52780  Biso   1.000  C
  C32      1.0000 0.03430  0.91310  0.56510  Biso   1.000  C
  C33      1.0000 0.98440  0.97500  0.59650  Biso   1.000  C
  C34      1.0000 0.86550  0.98130  0.59160  Biso   1.000  C
  C35      1.0000 0.84690  0.86800  0.52460  Biso   1.000  C
  C36      1.0000 0.77400  0.81340  0.48580  Biso   1.000  C
  C37      1.0000 0.96020  0.60290  0.65320  Biso   1.000  C
  C38      1.0000 0.87330  0.62570  0.70140  Biso   1.000  C
  C39      1.0000 0.86420  0.69350  0.73630  Biso   1.000  C
  C40      1.0000 0.94440  0.73830  0.72430  Biso   1.000  C
  C41      1.0000 0.94170  0.81020  0.75920  Biso   1.000  C
  C42      1.0000 0.01910  0.85120  0.74590  Biso   1.000  C
  C43      1.0000 0.10800  0.82470  0.69610  Biso   1.000  C
  C44      1.0000 0.19530  0.86480  0.68330  Biso   1.000  C
  C45      1.0000 0.27850  0.83620  0.63630  Biso   1.000  C
  C46      1.0000 0.27390  0.76640  0.60070  Biso   1.000  C
  C47      1.0000 0.11230  0.75410  0.65910  Biso   1.000  C
  C48      1.0000 0.02990  0.71000  0.67370  Biso   1.000  C
  C49      1.0000 0.39720  0.43440  0.01780  Biso   1.000  C
  C50      1.0000 0.29050  0.39310  0.99050  Biso   1.000  C
  C51      1.0000 0.29800  0.32730  0.94350  Biso   1.000  C
  C52      1.0000 0.19930  0.29090  0.91650  Biso   1.000  C
  C53      1.0000 0.09250  0.31990  0.93650  Biso   1.000  C
  C54      1.0000 0.08260  0.38520  0.98430  Biso   1.000  C
  C55      1.0000 0.18220  0.42150  0.01080  Biso   1.000  C
  C56      1.0000 0.96630  0.41650  0.00750  Biso   1.000  C
  C57      1.0000 0.12110  0.07550  0.82120  Biso   1.000  C
  C58      1.0000 0.14650  0.08980  0.75640  Biso   1.000  C
  C59      1.0000 0.08470  0.13880  0.74050  Biso   1.000  C
  C60      1.0000 0.10700  0.15120  0.68040  Biso   1.000  C
  C61      1.0000 0.19170  0.11410  0.63630  Biso   1.000  C
  C62      1.0000 0.25580  0.06660  0.65225  Biso   1.000  C
  C63      1.0000 0.23210  0.05350  0.71171  Biso   1.000  C
  C64      1.0000 0.35560  0.03120  0.60680  Biso   1.000  C
  C65      1.0000 0.70350  0.34620  0.10210  Biso   1.000  C
  C66      1.0000 0.72380  0.28570  0.12470  Biso   1.000  C
  C67      1.0000 0.68040  0.28730  0.18790  Biso   1.000  C
  C68      1.0000 0.69120  0.23180  0.20760  Biso   1.000  C
  C69      1.0000 0.74710  0.17380  0.16620  Biso   1.000  C
  C70      1.0000 0.79490  0.17150  0.10430  Biso   1.000  C
  C71      1.0000 0.78100  0.22800  0.08390  Biso   1.000  C
  C72      1.0000 0.86260  0.11020  0.06240  Biso   1.000  C
  C73      1.0000 0.09360  0.22610  0.05340  Biso   1.000  C
  C74      1.0000 0.13730  0.29030  0.09180  Biso   1.000  C
  C75      1.0000 0.25190  0.30190  0.09130  Biso   1.000  C
  C76      1.0000 0.32390  0.25030  0.05150  Biso   1.000  C
  C77      1.0000 0.44610  0.25930  0.04540  Biso   1.000  C
  C78      1.0000 0.51250  0.20850  0.00700  Biso   1.000  C
  C79      1.0000 0.46680  0.14220  0.97220  Biso   1.000  C
  C80      1.0000 0.53430  0.08690  0.93490  Biso   1.000  C
  C81      1.0000 0.48440  0.02500  0.90350  Biso   1.000  C
  C82      1.0000 0.36550  0.01870  0.90840  Biso   1.000  C
  C83      1.0000 0.34690  0.13200  0.97540  Biso   1.000  C
  C84      1.0000 0.27400  0.18660  0.01420  Biso   1.000  C
  C85      1.0000 0.46020  0.39710  0.84680  Biso   1.000  C
  C86      1.0000 0.37330  0.37430  0.79860  Biso   1.000  C
  C87      1.0000 0.36420  0.30650  0.76370  Biso   1.000  C
  C88      1.0000 0.44440  0.26170  0.77570  Biso   1.000  C
  C89      1.0000 0.44170  0.18980  0.74080  Biso   1.000  C
  C90      1.0000 0.51910  0.14880  0.75410  Biso   1.000  C
  C91      1.0000 0.60800  0.17530  0.80390  Biso   1.000  C
  C92      1.0000 0.69530  0.13520  0.81670  Biso   1.000  C
  C93      1.0000 0.77850  0.16380  0.86370  Biso   1.000  C
  C94      1.0000 0.77390  0.23360  0.89930  Biso   1.000  C
  C95      1.0000 0.61230  0.24590  0.84090  Biso   1.000  C
  C96      1.0000 0.52990  0.29000  0.82630  Biso   1.000  C
  C97      1.0000 0.10280  0.43440  0.51780  Biso   1.000  C
  C98      1.0000 0.20950  0.39310  0.49050  Biso   1.000  C
  C99      1.0000 0.20200  0.32730  0.44350  Biso   1.000  C
  C100     1.0000 0.30070  0.29090  0.41650  Biso   1.000  C
  C101     1.0000 0.40750  0.31990  0.43650  Biso   1.000  C
  C102     1.0000 0.41740  0.38520  0.48430  Biso   1.000  C
  C103     1.0000 0.31780  0.42150  0.51080  Biso   1.000  C
  C104     1.0000 0.53370  0.41650  0.50750  Biso   1.000  C
  C105     1.0000 0.37890  0.07550  0.32120  Biso   1.000  C
  C106     1.0000 0.35350  0.08980  0.25640  Biso   1.000  C
  C107     1.0000 0.41530  0.13880  0.24050  Biso   1.000  C
  C108     1.0000 0.39300  0.15120  0.18040  Biso   1.000  C
  C109     1.0000 0.30830  0.11410  0.13630  Biso   1.000  C
  C110     1.0000 0.24420  0.06660  0.15225  Biso   1.000  C
  C111     1.0000 0.26790  0.05350  0.21171  Biso   1.000  C
  C112     1.0000 0.14440  0.03120  0.10680  Biso   1.000  C
  C113     1.0000 0.79650  0.34620  0.60210  Biso   1.000  C
  C114     1.0000 0.77620  0.28570  0.62470  Biso   1.000  C
  C115     1.0000 0.81960  0.28730  0.68790  Biso   1.000  C
  C116     1.0000 0.80880  0.23180  0.70760  Biso   1.000  C
  C117     1.0000 0.75290  0.17380  0.66620  Biso   1.000  C
  C118     1.0000 0.70510  0.17150  0.60430  Biso   1.000  C
  C119     1.0000 0.71900  0.22800  0.58390  Biso   1.000  C
  C120     1.0000 0.63740  0.11020  0.56240  Biso   1.000  C
  C121     1.0000 0.40640  0.22610  0.55340  Biso   1.000  C
  C122     1.0000 0.36270  0.29030  0.59180  Biso   1.000  C
  C123     1.0000 0.24810  0.30190  0.59130  Biso   1.000  C
  C124     1.0000 0.17610  0.25030  0.55150  Biso   1.000  C
  C125     1.0000 0.05390  0.25930  0.54540  Biso   1.000  C
  C126     1.0000 0.98750  0.20850  0.50700  Biso   1.000  C
  C127     1.0000 0.03320  0.14220  0.47220  Biso   1.000  C
  C128     1.0000 0.96570  0.08690  0.43490  Biso   1.000  C
  C129     1.0000 0.01560  0.02500  0.40350  Biso   1.000  C
  C130     1.0000 0.13450  0.01870  0.40840  Biso   1.000  C
  C131     1.0000 0.15310  0.13200  0.47540  Biso   1.000  C
  C132     1.0000 0.22600  0.18660  0.51420  Biso   1.000  C
  C133     1.0000 0.03980  0.39710  0.34680  Biso   1.000  C
  C134     1.0000 0.12670  0.37430  0.29860  Biso   1.000  C
  C135     1.0000 0.13580  0.30650  0.26370  Biso   1.000  C
  C136     1.0000 0.05560  0.26170  0.27570  Biso   1.000  C
  C137     1.0000 0.05830  0.18980  0.24080  Biso   1.000  C
  C138     1.0000 0.98090  0.14880  0.25410  Biso   1.000  C
  C139     1.0000 0.89200  0.17530  0.30390  Biso   1.000  C
  C140     1.0000 0.80470  0.13520  0.31670  Biso   1.000  C
  C141     1.0000 0.72150  0.16380  0.36370  Biso   1.000  C
  C142     1.0000 0.72610  0.23360  0.39930  Biso   1.000  C
  C143     1.0000 0.88770  0.24590  0.34090  Biso   1.000  C
  C144     1.0000 0.97010  0.29000  0.32630  Biso   1.000  C
  C145     1.0000 0.60280  0.56560  0.98220  Biso   1.000  C
  C146     1.0000 0.70950  0.60690  0.00950  Biso   1.000  C
  C147     1.0000 0.70200  0.67270  0.05650  Biso   1.000  C
  C148     1.0000 0.80070  0.70910  0.08350  Biso   1.000  C
  C149     1.0000 0.90750  0.68010  0.06350  Biso   1.000  C
  C150     1.0000 0.91740  0.61480  0.01570  Biso   1.000  C
  C151     1.0000 0.81780  0.57850  0.98920  Biso   1.000  C
  C152     1.0000 0.03370  0.58350  0.99250  Biso   1.000  C
  C153     1.0000 0.87890  0.92450  0.17880  Biso   1.000  C
  C154     1.0000 0.85350  0.91020  0.24360  Biso   1.000  C
  C155     1.0000 0.91530  0.86120  0.25950  Biso   1.000  C
  C156     1.0000 0.89300  0.84880  0.31960  Biso   1.000  C
  C157     1.0000 0.80830  0.88590  0.36370  Biso   1.000  C
  C158     1.0000 0.74420  0.93340  0.34775  Biso   1.000  C
  C159     1.0000 0.76790  0.94650  0.28829  Biso   1.000  C
  C160     1.0000 0.64440  0.96880  0.39320  Biso   1.000  C
  C161     1.0000 0.29650  0.65380  0.89790  Biso   1.000  C
  C162     1.0000 0.27620  0.71430  0.87530  Biso   1.000  C
  C163     1.0000 0.31960  0.71270  0.81210  Biso   1.000  C
  C164     1.0000 0.30880  0.76820  0.79240  Biso   1.000  C
  C165     1.0000 0.25290  0.82620  0.83380  Biso   1.000  C
  C166     1.0000 0.20510  0.82850  0.89570  Biso   1.000  C
  C167     1.0000 0.21900  0.77200  0.91610  Biso   1.000  C
  C168     1.0000 0.13740  0.88980  0.93760  Biso   1.000  C
  C169     1.0000 0.90640  0.77390  0.94660  Biso   1.000  C
  C170     1.0000 0.86270  0.70970  0.90820  Biso   1.000  C
  C171     1.0000 0.74810  0.69810  0.90870  Biso   1.000  C
  C172     1.0000 0.67610  0.74970  0.94850  Biso   1.000  C
  C173     1.0000 0.55390  0.74070  0.95460  Biso   1.000  C
  C174     1.0000 0.48750  0.79150  0.99300  Biso   1.000  C
  C175     1.0000 0.53320  0.85780  0.02780  Biso   1.000  C
  C176     1.0000 0.46570  0.91310  0.06510  Biso   1.000  C
  C177     1.0000 0.51560  0.97500  0.09650  Biso   1.000  C
  C178     1.0000 0.63450  0.98130  0.09160  Biso   1.000  C
  C179     1.0000 0.65310  0.86800  0.02460  Biso   1.000  C
  C180     1.0000 0.72600  0.81340  0.98580  Biso   1.000  C
  C181     1.0000 0.53980  0.60290  0.15320  Biso   1.000  C
  C182     1.0000 0.62670  0.62570  0.20140  Biso   1.000  C
  C183     1.0000 0.63580  0.69350  0.23630  Biso   1.000  C
  C184     1.0000 0.55560  0.73830  0.22430  Biso   1.000  C
  C185     1.0000 0.55830  0.81020  0.25920  Biso   1.000  C
  C186     1.0000 0.48090  0.85120  0.24590  Biso   1.000  C
  C187     1.0000 0.39200  0.82470  0.19610  Biso   1.000  C
  C188     1.0000 0.30470  0.86480  0.18330  Biso   1.000  C
  C189     1.0000 0.22150  0.83620  0.13630  Biso   1.000  C
  C190     1.0000 0.22610  0.76640  0.10070  Biso   1.000  C
  C191     1.0000 0.38770  0.75410  0.15910  Biso   1.000  C
  C192     1.0000 0.47010  0.71000  0.17370  Biso   1.000  C
  N1       1.0000 0.65870  0.82501  0.48395  Biso   1.000  N
  N2       1.0000 0.79780  0.93000  0.55690  Biso   1.000  N
  N3       1.0000 0.19400  0.72574  0.61061  Biso   1.000  N
  N4       1.0000 0.03520  0.64208  0.63818  Biso   1.000  N
  N5       1.0000 0.15870  0.17499  0.01605  Biso   1.000  N
  N6       1.0000 0.29780  0.07000  0.94310  Biso   1.000  N
  N7       1.0000 0.69400  0.27426  0.88939  Biso   1.000  N
  N8       1.0000 0.53520  0.35792  0.86182  Biso   1.000  N
  N9       1.0000 0.34130  0.17499  0.51605  Biso   1.000  N
  N10      1.0000 0.20220  0.07000  0.44310  Biso   1.000  N
  N11      1.0000 0.80600  0.27426  0.38939  Biso   1.000  N
  N12      1.0000 0.96480  0.35792  0.36182  Biso   1.000  N
  N13      1.0000 0.84130  0.82501  0.98395  Biso   1.000  N
  N14      1.0000 0.70220  0.93000  0.05690  Biso   1.000  N
  N15      1.0000 0.30600  0.72574  0.11061  Biso   1.000  N
  N16      1.0000 0.46480  0.64208  0.13818  Biso   1.000  N
  O1       1.0000 0.99310  0.59646  0.48950  Biso   1.000  O
  O2       1.0000 0.88660  0.50222  0.45350  Biso   1.000  O
  O3       1.0000 0.45840  0.53423  0.43799  Biso   1.000  O
  O4       1.0000 0.38130  0.60927  0.53076  Biso   1.000  O
  O5       1.0000 0.57260  0.87904  0.62946  Biso   1.000  O
  O6       1.0000 0.64880  0.98108  0.67544  Biso   1.000  O
  O7       1.0000 0.91470  0.00944  0.87402  Biso   1.000  O
  O8       1.0000 0.87880  0.95550  0.94608  Biso   1.000  O
  O9       1.0000 0.20900  0.66492  0.46178  Biso   1.000  O
  O10      1.0000 0.18200  0.59748  0.35337  Biso   1.000  O
  O11      1.0000 0.41830  0.88647  0.48870  Biso   1.000  O
  O12      1.0000 0.27330  0.59424  0.64011  Biso   1.000  O
  O13      1.0000 0.22820  0.51519  0.42361  Biso   1.000  O
  O14      1.0000 0.36080  0.94034  0.41863  Biso   1.000  O
  O15      1.0000 0.49310  0.40354  0.01050  Biso   1.000  O
  O16      1.0000 0.38660  0.49778  0.04650  Biso   1.000  O
  O17      1.0000 0.95840  0.46577  0.06201  Biso   1.000  O
  O18      1.0000 0.88130  0.39073  0.96924  Biso   1.000  O
  O19      1.0000 0.07260  0.12096  0.87054  Biso   1.000  O
  O20      1.0000 0.14880  0.01892  0.82456  Biso   1.000  O
  O21      1.0000 0.41470  0.99056  0.62598  Biso   1.000  O
  O22      1.0000 0.37880  0.04450  0.55392  Biso   1.000  O
  O23      1.0000 0.70900  0.33508  0.03822  Biso   1.000  O
  O24      1.0000 0.68200  0.40252  0.14663  Biso   1.000  O
  O25      1.0000 0.91830  0.11353  0.01130  Biso   1.000  O
  O26      1.0000 0.77330  0.40576  0.85989  Biso   1.000  O
  O27      1.0000 0.72820  0.48481  0.07639  Biso   1.000  O
  O28      1.0000 0.86080  0.05966  0.08137  Biso   1.000  O
  O29      1.0000 0.00690  0.40354  0.51050  Biso   1.000  O
  O30      1.0000 0.11340  0.49778  0.54650  Biso   1.000  O
  O31      1.0000 0.54160  0.46577  0.56201  Biso   1.000  O
  O32      1.0000 0.61870  0.39073  0.46924  Biso   1.000  O
  O33      1.0000 0.42740  0.12096  0.37054  Biso   1.000  O
  O34      1.0000 0.35120  0.01892  0.32456  Biso   1.000  O
  O35      1.0000 0.08530  0.99056  0.12598  Biso   1.000  O
  O36      1.0000 0.12120  0.04450  0.05392  Biso   1.000  O
  O37      1.0000 0.79100  0.33508  0.53822  Biso   1.000  O
  O38      1.0000 0.81800  0.40252  0.64663  Biso   1.000  O
  O39      1.0000 0.58170  0.11353  0.51130  Biso   1.000  O
  O40      1.0000 0.72670  0.40576  0.35989  Biso   1.000  O
  O41      1.0000 0.77180  0.48481  0.57639  Biso   1.000  O
  O42      1.0000 0.63920  0.05966  0.58137  Biso   1.000  O
  O43      1.0000 0.50690  0.59646  0.98950  Biso   1.000  O
  O44      1.0000 0.61340  0.50222  0.95350  Biso   1.000  O
  O45      1.0000 0.04160  0.53423  0.93799  Biso   1.000  O
  O46      1.0000 0.11870  0.60927  0.03076  Biso   1.000  O
  O47      1.0000 0.92740  0.87904  0.12946  Biso   1.000  O
  O48      1.0000 0.85120  0.98108  0.17544  Biso   1.000  O
  O49      1.0000 0.58530  0.00944  0.37402  Biso   1.000  O
  O50      1.0000 0.62120  0.95550  0.44608  Biso   1.000  O
  O51      1.0000 0.29100  0.66492  0.96178  Biso   1.000  O
  O52      1.0000 0.31800  0.59748  0.85337  Biso   1.000  O
  O53      1.0000 0.08170  0.88647  0.98870  Biso   1.000  O
  O54      1.0000 0.22670  0.59424  0.14011  Biso   1.000  O
  O55      1.0000 0.27180  0.51519  0.92361  Biso   1.000  O
  O56      1.0000 0.13920  0.94034  0.91863  Biso   1.000  O
