data_image0
_cell_length_a       6.1645
_cell_length_b       10.074
_cell_length_c       13.503
_cell_angle_alpha    68.951
_cell_angle_beta     80.872
_cell_angle_gamma    76.667

_symmetry_space_group_name_H-M    P 1
_symmetry_int_tables_number       1

loop_
  _symmetry_equiv_pos_as_xyz
  'x, y, z'

loop_
  _atom_site_label
  _atom_site_occupancy
  _atom_site_fract_x
  _atom_site_fract_y
  _atom_site_fract_z
  _atom_site_thermal_displace_type
  _atom_site_B_iso_or_equiv
  _atom_site_type_symbol
  Nd1      1.0000 0.82878  0.61541  0.19666  Biso   1.000  Nd
  Nd2      1.0000 0.17122  0.38459  0.80335  Biso   1.000  Nd
  H1       1.0000 0.32390  0.04690  0.02680  Biso   1.000  H
  H2       1.0000 0.70160  0.32710  0.62930  Biso   1.000  H
  H3       1.0000 0.71120  0.85820  0.28150  Biso   1.000  H
  H4       1.0000 0.86990  0.78140  0.34510  Biso   1.000  H
  H5       1.0000 0.45240  0.48530  0.21170  Biso   1.000  H
  H6       1.0000 0.56210  0.36320  0.27130  Biso   1.000  H
  H7       1.0000 0.67610  0.95310  0.97320  Biso   1.000  H
  H8       1.0000 0.29840  0.67290  0.37070  Biso   1.000  H
  H9       1.0000 0.28880  0.14180  0.71850  Biso   1.000  H
  H10      1.0000 0.13010  0.21860  0.65490  Biso   1.000  H
  H11      1.0000 0.54760  0.51470  0.78830  Biso   1.000  H
  H12      1.0000 0.43790  0.63680  0.72870  Biso   1.000  H
  C1       1.0000 0.28380  0.76950  0.14050  Biso   1.000  C
  C2       1.0000 0.13360  0.89500  0.06820  Biso   1.000  C
  C3       1.0000 0.19060  0.02940  0.01450  Biso   1.000  C
  C4       1.0000 0.94690  0.38420  0.44090  Biso   1.000  C
  C5       1.0000 0.71020  0.44510  0.47300  Biso   1.000  C
  C6       1.0000 0.61640  0.39880  0.57750  Biso   1.000  C
  C7       1.0000 0.08730  0.44030  0.03380  Biso   1.000  C
  C8       1.0000 0.71620  0.23050  0.85950  Biso   1.000  C
  C9       1.0000 0.86640  0.10500  0.93180  Biso   1.000  C
  C10      1.0000 0.80940  0.97060  0.98550  Biso   1.000  C
  C11      1.0000 0.05310  0.61580  0.55910  Biso   1.000  C
  C12      1.0000 0.28980  0.55490  0.52700  Biso   1.000  C
  C13      1.0000 0.38360  0.60120  0.42250  Biso   1.000  C
  C14      1.0000 0.91270  0.55970  0.96620  Biso   1.000  C
  N1       1.0000 0.94020  0.86590  0.05440  Biso   1.000  N
  N2       1.0000 0.59240  0.54570  0.39460  Biso   1.000  N
  N3       1.0000 0.05980  0.13410  0.94560  Biso   1.000  N
  N4       1.0000 0.40760  0.45430  0.60540  Biso   1.000  N
  O1       1.0000 0.21210  0.65430  0.18460  Biso   1.000  O
  O2       1.0000 0.47380  0.78760  0.14960  Biso   1.000  O
  O3       1.0000 0.01180  0.43090  0.34380  Biso   1.000  O
  O4       1.0000 0.06470  0.29250  0.51140  Biso   1.000  O
  O5       1.0000 0.08290  0.43080  0.12890  Biso   1.000  O
  O6       1.0000 0.22060  0.36310  0.98780  Biso   1.000  O
  O7       1.0000 0.82090  0.79320  0.28580  Biso   1.000  O
  O8       1.0000 0.58420  0.43630  0.21970  Biso   1.000  O
  O9       1.0000 0.78790  0.34570  0.81540  Biso   1.000  O
  O10      1.0000 0.52620  0.21240  0.85040  Biso   1.000  O
  O11      1.0000 0.98820  0.56910  0.65620  Biso   1.000  O
  O12      1.0000 0.93530  0.70750  0.48860  Biso   1.000  O
  O13      1.0000 0.91710  0.56920  0.87110  Biso   1.000  O
  O14      1.0000 0.77940  0.63690  0.01220  Biso   1.000  O
  O15      1.0000 0.17910  0.20680  0.71420  Biso   1.000  O
  O16      1.0000 0.41580  0.56370  0.78030  Biso   1.000  O
