data_image0
_cell_length_a       6.0922
_cell_length_b       9.9633
_cell_length_c       13.3598
_cell_angle_alpha    68.853
_cell_angle_beta     81.104
_cell_angle_gamma    76.848

_symmetry_space_group_name_H-M    P 1
_symmetry_int_tables_number       1

loop_
  _symmetry_equiv_pos_as_xyz
  'x, y, z'

loop_
  _atom_site_label
  _atom_site_occupancy
  _atom_site_fract_x
  _atom_site_fract_y
  _atom_site_fract_z
  _atom_site_thermal_displace_type
  _atom_site_B_iso_or_equiv
  _atom_site_type_symbol
  Gd1      1.0000 0.83214  0.61429  0.19572  Biso   1.000  Gd
  Gd2      1.0000 0.16786  0.38571  0.80429  Biso   1.000  Gd
  H1       1.0000 0.32690  0.04710  0.02810  Biso   1.000  H
  H2       1.0000 0.70400  0.32480  0.62970  Biso   1.000  H
  H3       1.0000 0.86940  0.77920  0.34430  Biso   1.000  H
  H4       1.0000 0.71070  0.85600  0.28070  Biso   1.000  H
  H5       1.0000 0.46240  0.48520  0.21150  Biso   1.000  H
  H6       1.0000 0.57210  0.36310  0.27110  Biso   1.000  H
  H7       1.0000 0.67310  0.95290  0.97190  Biso   1.000  H
  H8       1.0000 0.29600  0.67520  0.37030  Biso   1.000  H
  H9       1.0000 0.13060  0.22080  0.65570  Biso   1.000  H
  H10      1.0000 0.28930  0.14400  0.71930  Biso   1.000  H
  H11      1.0000 0.53760  0.51480  0.78850  Biso   1.000  H
  H12      1.0000 0.42790  0.63690  0.72890  Biso   1.000  H
  C1       1.0000 0.28830  0.76610  0.14100  Biso   1.000  C
  C2       1.0000 0.13400  0.89340  0.06870  Biso   1.000  C
  C3       1.0000 0.19210  0.02980  0.01520  Biso   1.000  C
  C4       1.0000 0.95070  0.38260  0.43950  Biso   1.000  C
  C5       1.0000 0.71010  0.44410  0.47280  Biso   1.000  C
  C6       1.0000 0.61720  0.39760  0.57760  Biso   1.000  C
  C7       1.0000 0.08880  0.43990  0.03450  Biso   1.000  C
  C8       1.0000 0.71170  0.23390  0.85900  Biso   1.000  C
  C9       1.0000 0.86600  0.10660  0.93130  Biso   1.000  C
  C10      1.0000 0.80790  0.97020  0.98480  Biso   1.000  C
  C11      1.0000 0.04930  0.61740  0.56050  Biso   1.000  C
  C12      1.0000 0.28990  0.55590  0.52720  Biso   1.000  C
  C13      1.0000 0.38280  0.60240  0.42240  Biso   1.000  C
  C14      1.0000 0.91120  0.56010  0.96550  Biso   1.000  C
  N1       1.0000 0.94010  0.86370  0.05420  Biso   1.000  N
  N2       1.0000 0.59340  0.54650  0.39330  Biso   1.000  N
  N3       1.0000 0.05990  0.13630  0.94580  Biso   1.000  N
  N4       1.0000 0.40660  0.45350  0.60670  Biso   1.000  N
  O1       1.0000 0.21420  0.64930  0.18370  Biso   1.000  O
  O2       1.0000 0.47990  0.78340  0.15140  Biso   1.000  O
  O3       1.0000 0.01420  0.43150  0.34180  Biso   1.000  O
  O4       1.0000 0.06910  0.29060  0.51020  Biso   1.000  O
  O5       1.0000 0.08470  0.42950  0.13030  Biso   1.000  O
  O6       1.0000 0.22300  0.36120  0.98730  Biso   1.000  O
  O7       1.0000 0.82840  0.78910  0.28340  Biso   1.000  O
  O8       1.0000 0.59420  0.43620  0.21940  Biso   1.000  O
  O9       1.0000 0.78580  0.35070  0.81630  Biso   1.000  O
  O10      1.0000 0.52010  0.21660  0.84860  Biso   1.000  O
  O11      1.0000 0.98580  0.56850  0.65820  Biso   1.000  O
  O12      1.0000 0.93090  0.70940  0.48980  Biso   1.000  O
  O13      1.0000 0.91530  0.57050  0.86970  Biso   1.000  O
  O14      1.0000 0.77700  0.63880  0.01270  Biso   1.000  O
  O15      1.0000 0.17160  0.21090  0.71660  Biso   1.000  O
  O16      1.0000 0.40580  0.56380  0.78060  Biso   1.000  O
