data_image0
_cell_length_a       6.078
_cell_length_b       9.95
_cell_length_c       13.337
_cell_angle_alpha    68.823
_cell_angle_beta     81.142
_cell_angle_gamma    76.813

_symmetry_space_group_name_H-M    P 1
_symmetry_int_tables_number       1

loop_
  _symmetry_equiv_pos_as_xyz
  'x, y, z'

loop_
  _atom_site_label
  _atom_site_occupancy
  _atom_site_fract_x
  _atom_site_fract_y
  _atom_site_fract_z
  _atom_site_thermal_displace_type
  _atom_site_B_iso_or_equiv
  _atom_site_type_symbol
  Tb1      1.0000 0.83363  0.61393  0.19546  Biso   1.000  Tb
  Tb2      1.0000 0.16637  0.38607  0.80454  Biso   1.000  Tb
  H1       1.0000 0.32510  0.04630  0.02790  Biso   1.000  H
  H2       1.0000 0.70870  0.32510  0.62940  Biso   1.000  H
  H3       1.0000 0.87200  0.77790  0.34340  Biso   1.000  H
  H4       1.0000 0.71330  0.85470  0.27990  Biso   1.000  H
  H5       1.0000 0.46380  0.48560  0.21130  Biso   1.000  H
  H6       1.0000 0.57350  0.36360  0.27080  Biso   1.000  H
  H7       1.0000 0.67490  0.95370  0.97210  Biso   1.000  H
  H8       1.0000 0.29130  0.67490  0.37060  Biso   1.000  H
  H9       1.0000 0.12800  0.22210  0.65660  Biso   1.000  H
  H10      1.0000 0.28670  0.14530  0.72010  Biso   1.000  H
  H11      1.0000 0.53620  0.51440  0.78870  Biso   1.000  H
  H12      1.0000 0.42650  0.63640  0.72920  Biso   1.000  H
  C1       1.0000 0.28900  0.76490  0.14080  Biso   1.000  C
  C2       1.0000 0.13480  0.89280  0.06970  Biso   1.000  C
  C3       1.0000 0.18900  0.02960  0.01500  Biso   1.000  C
  C4       1.0000 0.95000  0.38400  0.43950  Biso   1.000  C
  C5       1.0000 0.71300  0.44260  0.47350  Biso   1.000  C
  C6       1.0000 0.62100  0.39680  0.57700  Biso   1.000  C
  C7       1.0000 0.08900  0.44050  0.03330  Biso   1.000  C
  C8       1.0000 0.71100  0.23510  0.85920  Biso   1.000  C
  C9       1.0000 0.86520  0.10720  0.93030  Biso   1.000  C
  C10      1.0000 0.81100  0.97040  0.98500  Biso   1.000  C
  C11      1.0000 0.05000  0.61600  0.56050  Biso   1.000  C
  C12      1.0000 0.28700  0.55740  0.52650  Biso   1.000  C
  C13      1.0000 0.37900  0.60320  0.42300  Biso   1.000  C
  C14      1.0000 0.91100  0.55950  0.96670  Biso   1.000  C
  N1       1.0000 0.93780  0.86240  0.05410  Biso   1.000  N
  N2       1.0000 0.59540  0.54810  0.39320  Biso   1.000  N
  N3       1.0000 0.06220  0.13760  0.94590  Biso   1.000  N
  N4       1.0000 0.40460  0.45190  0.60680  Biso   1.000  N
  O1       1.0000 0.21520  0.64750  0.18350  Biso   1.000  O
  O2       1.0000 0.47970  0.78210  0.15270  Biso   1.000  O
  O3       1.0000 0.01560  0.43210  0.34100  Biso   1.000  O
  O4       1.0000 0.07020  0.28820  0.51050  Biso   1.000  O
  O5       1.0000 0.08280  0.43020  0.13010  Biso   1.000  O
  O6       1.0000 0.22370  0.36200  0.98730  Biso   1.000  O
  O7       1.0000 0.83100  0.78780  0.28260  Biso   1.000  O
  O8       1.0000 0.59900  0.43640  0.21940  Biso   1.000  O
  O9       1.0000 0.78480  0.35250  0.81650  Biso   1.000  O
  O10      1.0000 0.52030  0.21790  0.84730  Biso   1.000  O
  O11      1.0000 0.98440  0.56790  0.65900  Biso   1.000  O
  O12      1.0000 0.92980  0.71180  0.48950  Biso   1.000  O
  O13      1.0000 0.91720  0.56980  0.86990  Biso   1.000  O
  O14      1.0000 0.77630  0.63800  0.01270  Biso   1.000  O
  O15      1.0000 0.16900  0.21220  0.71740  Biso   1.000  O
  O16      1.0000 0.40100  0.56360  0.78060  Biso   1.000  O
