data_image0
_cell_length_a       6.0535
_cell_length_b       9.9159
_cell_length_c       13.2903
_cell_angle_alpha    68.832
_cell_angle_beta     81.273
_cell_angle_gamma    76.875

_symmetry_space_group_name_H-M    P 1
_symmetry_int_tables_number       1

loop_
  _symmetry_equiv_pos_as_xyz
  'x, y, z'

loop_
  _atom_site_label
  _atom_site_occupancy
  _atom_site_fract_x
  _atom_site_fract_y
  _atom_site_fract_z
  _atom_site_thermal_displace_type
  _atom_site_B_iso_or_equiv
  _atom_site_type_symbol
  Dy1      1.0000 0.83464  0.61382  0.19511  Biso   1.000  Dy
  Dy2      1.0000 0.16536  0.38618  0.80489  Biso   1.000  Dy
  H1       1.0000 0.32660  0.04760  0.02920  Biso   1.000  H
  H2       1.0000 0.70550  0.32140  0.62860  Biso   1.000  H
  H3       1.0000 0.87420  0.77670  0.34330  Biso   1.000  H
  H4       1.0000 0.71550  0.85350  0.27980  Biso   1.000  H
  H5       1.0000 0.46720  0.48570  0.21120  Biso   1.000  H
  H6       1.0000 0.57700  0.36360  0.27080  Biso   1.000  H
  H7       1.0000 0.67340  0.95240  0.97080  Biso   1.000  H
  H8       1.0000 0.29450  0.67860  0.37140  Biso   1.000  H
  H9       1.0000 0.12580  0.22330  0.65670  Biso   1.000  H
  H10      1.0000 0.28450  0.14650  0.72020  Biso   1.000  H
  H11      1.0000 0.53280  0.51430  0.78880  Biso   1.000  H
  H12      1.0000 0.42300  0.63640  0.72920  Biso   1.000  H
  C1       1.0000 0.28940  0.76470  0.14170  Biso   1.000  C
  C2       1.0000 0.13660  0.89290  0.06960  Biso   1.000  C
  C3       1.0000 0.19160  0.02960  0.01580  Biso   1.000  C
  C4       1.0000 0.95080  0.38170  0.43870  Biso   1.000  C
  C5       1.0000 0.71080  0.44480  0.47190  Biso   1.000  C
  C6       1.0000 0.61820  0.39600  0.57690  Biso   1.000  C
  C7       1.0000 0.08920  0.43900  0.03430  Biso   1.000  C
  C8       1.0000 0.71060  0.23530  0.85830  Biso   1.000  C
  C9       1.0000 0.86340  0.10710  0.93040  Biso   1.000  C
  C10      1.0000 0.80840  0.97040  0.98420  Biso   1.000  C
  C11      1.0000 0.04920  0.61830  0.56130  Biso   1.000  C
  C12      1.0000 0.28920  0.55520  0.52810  Biso   1.000  C
  C13      1.0000 0.38180  0.60400  0.42310  Biso   1.000  C
  C14      1.0000 0.91080  0.56100  0.96570  Biso   1.000  C
  N1       1.0000 0.93890  0.86390  0.05390  Biso   1.000  N
  N2       1.0000 0.59300  0.54790  0.39300  Biso   1.000  N
  N3       1.0000 0.06110  0.13610  0.94610  Biso   1.000  N
  N4       1.0000 0.40700  0.45210  0.60700  Biso   1.000  N
  O1       1.0000 0.21620  0.64690  0.18400  Biso   1.000  O
  O2       1.0000 0.48340  0.78110  0.15250  Biso   1.000  O
  O3       1.0000 0.01560  0.43250  0.34060  Biso   1.000  O
  O4       1.0000 0.07180  0.28940  0.50930  Biso   1.000  O
  O5       1.0000 0.08430  0.42930  0.13080  Biso   1.000  O
  O6       1.0000 0.22570  0.36120  0.98680  Biso   1.000  O
  O7       1.0000 0.83320  0.78660  0.28250  Biso   1.000  O
  O8       1.0000 0.59900  0.43680  0.21920  Biso   1.000  O
  O9       1.0000 0.78380  0.35310  0.81600  Biso   1.000  O
  O10      1.0000 0.51660  0.21890  0.84750  Biso   1.000  O
  O11      1.0000 0.98440  0.56750  0.65940  Biso   1.000  O
  O12      1.0000 0.92820  0.71060  0.49070  Biso   1.000  O
  O13      1.0000 0.91570  0.57070  0.86920  Biso   1.000  O
  O14      1.0000 0.77430  0.63880  0.01320  Biso   1.000  O
  O15      1.0000 0.16680  0.21340  0.71750  Biso   1.000  O
  O16      1.0000 0.40100  0.56320  0.78080  Biso   1.000  O
