data_image0
_cell_length_a       10.4073
_cell_length_b       17.8174
_cell_length_c       7.5278
_cell_angle_alpha    90
_cell_angle_beta     108.474
_cell_angle_gamma    90

_symmetry_space_group_name_H-M    "P 1"
_symmetry_int_tables_number       1

loop_
  _symmetry_equiv_pos_as_xyz
  'x, y, z'

loop_
  _atom_site_label
  _atom_site_occupancy
  _atom_site_fract_x
  _atom_site_fract_y
  _atom_site_fract_z
  _atom_site_thermal_displace_type
  _atom_site_B_iso_or_equiv
  _atom_site_type_symbol
  Zn1      1.0000 0.15965  0.72269  0.15033  Biso   1.000  Zn
  O1       1.0000 0.19000  0.63450  0.01010  Biso   1.000  O
  O2       1.0000 0.19820  0.70000  0.76190  Biso   1.000  O
  O3       1.0000 0.33970  0.65320  0.47030  Biso   1.000  O
  O4       1.0000 0.11760  0.66970  0.35330  Biso   1.000  O
  C1       1.0000 0.18200  0.56790  0.73710  Biso   1.000  C
  C2       1.0000 0.19870  0.56780  0.56010  Biso   1.000  C
  C3       1.0000 0.18920  0.63910  0.84380  Biso   1.000  C
  C4       1.0000 0.22330  0.63670  0.45970  Biso   1.000  C
  Zn2      1.0000 0.65965  0.22269  0.15033  Biso   1.000  Zn
  O5       1.0000 0.69000  0.13450  0.01010  Biso   1.000  O
  O6       1.0000 0.69820  0.20000  0.76190  Biso   1.000  O
  O7       1.0000 0.83970  0.15320  0.47030  Biso   1.000  O
  O8       1.0000 0.61760  0.16970  0.35330  Biso   1.000  O
  C5       1.0000 0.68200  0.06790  0.73710  Biso   1.000  C
  C6       1.0000 0.69870  0.06780  0.56010  Biso   1.000  C
  C7       1.0000 0.68920  0.13910  0.84380  Biso   1.000  C
  C8       1.0000 0.72330  0.13670  0.45970  Biso   1.000  C
  Zn3      1.0000 0.84035  0.72269  0.84967  Biso   1.000  Zn
  O9       1.0000 0.81000  0.63450  0.98990  Biso   1.000  O
  O10      1.0000 0.80180  0.70000  0.23810  Biso   1.000  O
  O11      1.0000 0.66030  0.65320  0.52970  Biso   1.000  O
  O12      1.0000 0.88240  0.66970  0.64670  Biso   1.000  O
  C9       1.0000 0.81800  0.56790  0.26290  Biso   1.000  C
  C10      1.0000 0.80130  0.56780  0.43990  Biso   1.000  C
  C11      1.0000 0.81080  0.63910  0.15620  Biso   1.000  C
  C12      1.0000 0.77670  0.63670  0.54030  Biso   1.000  C
  Zn4      1.0000 0.34035  0.22269  0.84967  Biso   1.000  Zn
  O13      1.0000 0.31000  0.13450  0.98990  Biso   1.000  O
  O14      1.0000 0.30180  0.20000  0.23810  Biso   1.000  O
  O15      1.0000 0.16030  0.15320  0.52970  Biso   1.000  O
  O16      1.0000 0.38240  0.16970  0.64670  Biso   1.000  O
  C13      1.0000 0.31800  0.06790  0.26290  Biso   1.000  C
  C14      1.0000 0.30130  0.06780  0.43990  Biso   1.000  C
  C15      1.0000 0.31080  0.13910  0.15620  Biso   1.000  C
  C16      1.0000 0.27670  0.13670  0.54030  Biso   1.000  C
  Zn5      1.0000 0.84035  0.27731  0.84967  Biso   1.000  Zn
  O17      1.0000 0.81000  0.36550  0.98990  Biso   1.000  O
  O18      1.0000 0.80180  0.30000  0.23810  Biso   1.000  O
  O19      1.0000 0.66030  0.34680  0.52970  Biso   1.000  O
  O20      1.0000 0.88240  0.33030  0.64670  Biso   1.000  O
  C17      1.0000 0.81800  0.43210  0.26290  Biso   1.000  C
  C18      1.0000 0.80130  0.43220  0.43990  Biso   1.000  C
  C19      1.0000 0.81080  0.36090  0.15620  Biso   1.000  C
  C20      1.0000 0.77670  0.36330  0.54030  Biso   1.000  C
  Zn6      1.0000 0.34035  0.77731  0.84967  Biso   1.000  Zn
  O21      1.0000 0.31000  0.86550  0.98990  Biso   1.000  O
  O22      1.0000 0.30180  0.80000  0.23810  Biso   1.000  O
  O23      1.0000 0.16030  0.84680  0.52970  Biso   1.000  O
  O24      1.0000 0.38240  0.83030  0.64670  Biso   1.000  O
  C21      1.0000 0.31800  0.93210  0.26290  Biso   1.000  C
  C22      1.0000 0.30130  0.93220  0.43990  Biso   1.000  C
  C23      1.0000 0.31080  0.86090  0.15620  Biso   1.000  C
  C24      1.0000 0.27670  0.86330  0.54030  Biso   1.000  C
  Zn7      1.0000 0.15965  0.27731  0.15033  Biso   1.000  Zn
  O25      1.0000 0.19000  0.36550  0.01010  Biso   1.000  O
  O26      1.0000 0.19820  0.30000  0.76190  Biso   1.000  O
  O27      1.0000 0.33970  0.34680  0.47030  Biso   1.000  O
  O28      1.0000 0.11760  0.33030  0.35330  Biso   1.000  O
  C25      1.0000 0.18200  0.43210  0.73710  Biso   1.000  C
  C26      1.0000 0.19870  0.43220  0.56010  Biso   1.000  C
  C27      1.0000 0.18920  0.36090  0.84380  Biso   1.000  C
  C28      1.0000 0.22330  0.36330  0.45970  Biso   1.000  C
  Zn8      1.0000 0.65965  0.77731  0.15033  Biso   1.000  Zn
  O29      1.0000 0.69000  0.86550  0.01010  Biso   1.000  O
  O30      1.0000 0.69820  0.80000  0.76190  Biso   1.000  O
  O31      1.0000 0.83970  0.84680  0.47030  Biso   1.000  O
  O32      1.0000 0.61760  0.83030  0.35330  Biso   1.000  O
  C29      1.0000 0.68200  0.93210  0.73710  Biso   1.000  C
  C30      1.0000 0.69870  0.93220  0.56010  Biso   1.000  C
  C31      1.0000 0.68920  0.86090  0.84380  Biso   1.000  C
  C32      1.0000 0.72330  0.86330  0.45970  Biso   1.000  C
  Na1      1.0000 0.00000  0.75322  0.50000  Biso   1.000  Na
  Na2      1.0000 0.50000  0.25322  0.50000  Biso   1.000  Na
  Na3      1.0000 0.00000  0.24678  0.50000  Biso   1.000  Na
  Na4      1.0000 0.50000  0.74678  0.50000  Biso   1.000  Na
  O33      1.0000 0.00000  0.77030  0.00000  Biso   1.000  O
  H1       1.0000 0.00000  0.81760  0.00000  Biso   1.000  H
  O34      1.0000 0.50000  0.27030  0.00000  Biso   1.000  O
  H2       1.0000 0.50000  0.31760  0.00000  Biso   1.000  H
  O35      1.0000 0.00000  0.22970  0.00000  Biso   1.000  O
  H3       1.0000 0.00000  0.18240  0.00000  Biso   1.000  H
  O36      1.0000 0.50000  0.72970  0.00000  Biso   1.000  O
  H4       1.0000 0.50000  0.68240  0.00000  Biso   1.000  H
  C33      1.0000 0.17070  0.50000  0.82070  Biso   1.000  C
  C34      1.0000 0.20440  0.50000  0.47380  Biso   1.000  C
  H5       1.0000 0.16100  0.50000  0.93900  Biso   1.000  H
  H6       1.0000 0.21600  0.50000  0.35600  Biso   1.000  H
  C35      1.0000 0.67070  0.00000  0.82070  Biso   1.000  C
  C36      1.0000 0.70440  0.00000  0.47380  Biso   1.000  C
  H7       1.0000 0.66100  0.00000  0.93900  Biso   1.000  H
  H8       1.0000 0.71600  0.00000  0.35600  Biso   1.000  H
  C37      1.0000 0.82930  0.50000  0.17930  Biso   1.000  C
  C38      1.0000 0.79560  0.50000  0.52620  Biso   1.000  C
  H9       1.0000 0.83900  0.50000  0.06100  Biso   1.000  H
  H10      1.0000 0.78400  0.50000  0.64400  Biso   1.000  H
  C39      1.0000 0.32930  0.00000  0.17930  Biso   1.000  C
  C40      1.0000 0.29560  0.00000  0.52620  Biso   1.000  C
  H11      1.0000 0.33900  0.00000  0.06100  Biso   1.000  H
  H12      1.0000 0.28400  0.00000  0.64400  Biso   1.000  H
