data_image0
_cell_length_a       9.2276
_cell_length_b       9.2861
_cell_length_c       9.3789
_cell_angle_alpha    85.2128
_cell_angle_beta     77.3119
_cell_angle_gamma    89.3472

_symmetry_space_group_name_H-M    "P 1"
_symmetry_int_tables_number       1

loop_
  _symmetry_equiv_pos_as_xyz
  'x, y, z'

loop_
  _atom_site_label
  _atom_site_occupancy
  _atom_site_fract_x
  _atom_site_fract_y
  _atom_site_fract_z
  _atom_site_thermal_displace_type
  _atom_site_B_iso_or_equiv
  _atom_site_type_symbol
  Al1      1.0000 0.86640  0.06530  0.08410  Biso   1.000  Al
  P1       1.0000 0.17000  0.13943  0.13700  Biso   1.000  P
  P2       1.0000 0.37550  0.12060  0.67611  Biso   1.000  P
  P3       1.0000 0.62090  0.31593  0.09528  Biso   1.000  P
  Al2      1.0000 0.62320  0.65829  0.08560  Biso   1.000  Al
  Al3      1.0000 0.39560  0.11930  0.33950  Biso   1.000  Al
  O1       1.0000 0.77280  0.23360  0.06680  Biso   1.000  O
  O2       1.0000 0.52710  0.05100  0.66900  Biso   1.000  O
  O3       1.0000 0.25400  0.01260  0.74600  Biso   1.000  O
  O4       1.0000 0.99990  0.14470  0.18550  Biso   1.000  O
  O5       1.0000 0.54020  0.31230  0.96190  Biso   1.000  O
  O6       1.0000 0.23290  0.02360  0.03670  Biso   1.000  O
  O7       1.0000 0.36110  0.16780  0.51720  Biso   1.000  O
  O8       1.0000 0.64930  0.47510  0.12420  Biso   1.000  O
  O9       1.0000 0.22780  0.11940  0.28030  Biso   1.000  O
  O10      1.0000 0.23150  0.28630  0.05970  Biso   1.000  O
  O11      1.0000 0.36820  0.25520  0.75660  Biso   1.000  O
  O12      1.0000 0.51170  0.25460  0.23330  Biso   1.000  O
  F1       1.0000 0.01540  0.10500  0.91940  Biso   1.000  F
  Al4      1.0000 0.13360  0.93470  0.91590  Biso   1.000  Al
  P4       1.0000 0.83000  0.86057  0.86300  Biso   1.000  P
  P5       1.0000 0.62450  0.87940  0.32389  Biso   1.000  P
  P6       1.0000 0.37910  0.68407  0.90472  Biso   1.000  P
  Al5      1.0000 0.37680  0.34171  0.91440  Biso   1.000  Al
  Al6      1.0000 0.60440  0.88070  0.66050  Biso   1.000  Al
  O13      1.0000 0.22720  0.76640  0.93320  Biso   1.000  O
  O14      1.0000 0.47290  0.94900  0.33100  Biso   1.000  O
  O15      1.0000 0.74600  0.98740  0.25400  Biso   1.000  O
  O16      1.0000 0.00010  0.85530  0.81450  Biso   1.000  O
  O17      1.0000 0.45980  0.68770  0.03810  Biso   1.000  O
  O18      1.0000 0.76710  0.97640  0.96330  Biso   1.000  O
  O19      1.0000 0.63890  0.83220  0.48280  Biso   1.000  O
  O20      1.0000 0.35070  0.52490  0.87580  Biso   1.000  O
  O21      1.0000 0.77220  0.88060  0.71970  Biso   1.000  O
  O22      1.0000 0.76850  0.71370  0.94030  Biso   1.000  O
  O23      1.0000 0.63180  0.74480  0.24340  Biso   1.000  O
  O24      1.0000 0.48830  0.74540  0.76670  Biso   1.000  O
  F2       1.0000 0.98460  0.89500  0.08060  Biso   1.000  F
