data_image0
_cell_length_a       16.8048
_cell_length_b       16.8048
_cell_length_c       16.8048
_cell_angle_alpha    90
_cell_angle_beta     90
_cell_angle_gamma    90

_symmetry_space_group_name_H-M    "P 1"
_symmetry_int_tables_number       1

loop_
  _symmetry_equiv_pos_as_xyz
  'x, y, z'

loop_
  _atom_site_label
  _atom_site_occupancy
  _atom_site_fract_x
  _atom_site_fract_y
  _atom_site_fract_z
  _atom_site_thermal_displace_type
  _atom_site_B_iso_or_equiv
  _atom_site_type_symbol
  N1       1.0000 0.39940  0.32850  0.56330  Biso   1.000  N
  N2       1.0000 0.18610  0.92100  0.65200  Biso   1.000  N
  C1       1.0000 0.42770  0.39360  0.51310  Biso   1.000  C
  C2       1.0000 0.36150  0.44570  0.48000  Biso   1.000  C
  C3       1.0000 0.23520  0.85580  0.67970  Biso   1.000  C
  C4       1.0000 0.26930  0.80270  0.61240  Biso   1.000  C
  H1       1.0000 0.96890  0.36800  0.70590  Biso   1.000  H
  H2       1.0000 0.89500  0.36610  0.65060  Biso   1.000  H
  H3       1.0000 0.95340  0.46140  0.57210  Biso   1.000  H
  H4       1.0000 0.08560  0.44940  0.67130  Biso   1.000  H
  H5       1.0000 0.03110  0.52370  0.66680  Biso   1.000  H
  H6       1.0000 0.10020  0.88150  0.14670  Biso   1.000  H
  H7       1.0000 0.04450  0.87950  0.22030  Biso   1.000  H
  H8       1.0000 0.21340  0.70430  0.32390  Biso   1.000  H
  H9       1.0000 0.19710  0.83500  0.42290  Biso   1.000  H
  H10      1.0000 0.27260  0.78200  0.41960  Biso   1.000  H
  N3       1.0000 0.89940  0.82850  0.06330  Biso   1.000  N
  N4       1.0000 0.68610  0.42100  0.15200  Biso   1.000  N
  C5       1.0000 0.92770  0.89360  0.01310  Biso   1.000  C
  C6       1.0000 0.86150  0.94570  0.98000  Biso   1.000  C
  C7       1.0000 0.73520  0.35580  0.17970  Biso   1.000  C
  C8       1.0000 0.76930  0.30270  0.11240  Biso   1.000  C
  H11      1.0000 0.46890  0.86800  0.20590  Biso   1.000  H
  H12      1.0000 0.39500  0.86610  0.15060  Biso   1.000  H
  H13      1.0000 0.45340  0.96140  0.07210  Biso   1.000  H
  H14      1.0000 0.58560  0.94940  0.17130  Biso   1.000  H
  H15      1.0000 0.53110  0.02370  0.16680  Biso   1.000  H
  H16      1.0000 0.60020  0.38150  0.64670  Biso   1.000  H
  H17      1.0000 0.54450  0.37950  0.72030  Biso   1.000  H
  H18      1.0000 0.71340  0.20430  0.82390  Biso   1.000  H
  H19      1.0000 0.69710  0.33500  0.92290  Biso   1.000  H
  H20      1.0000 0.77260  0.28200  0.91960  Biso   1.000  H
  N5       1.0000 0.10060  0.67150  0.06330  Biso   1.000  N
  N6       1.0000 0.31390  0.07900  0.15200  Biso   1.000  N
  C9       1.0000 0.07230  0.60640  0.01310  Biso   1.000  C
  C10      1.0000 0.13850  0.55430  0.98000  Biso   1.000  C
  C11      1.0000 0.26480  0.14420  0.17970  Biso   1.000  C
  C12      1.0000 0.23070  0.19730  0.11240  Biso   1.000  C
  H21      1.0000 0.53110  0.63200  0.20590  Biso   1.000  H
  H22      1.0000 0.60500  0.63390  0.15060  Biso   1.000  H
  H23      1.0000 0.54660  0.53860  0.07210  Biso   1.000  H
  H24      1.0000 0.41440  0.55060  0.17130  Biso   1.000  H
  H25      1.0000 0.46890  0.47630  0.16680  Biso   1.000  H
  H26      1.0000 0.39980  0.11850  0.64670  Biso   1.000  H
  H27      1.0000 0.45550  0.12050  0.72030  Biso   1.000  H
  H28      1.0000 0.28660  0.29570  0.82390  Biso   1.000  H
  H29      1.0000 0.30290  0.16500  0.92290  Biso   1.000  H
  H30      1.0000 0.22740  0.21800  0.91960  Biso   1.000  H
  N7       1.0000 0.60060  0.17150  0.56330  Biso   1.000  N
  N8       1.0000 0.81390  0.57900  0.65200  Biso   1.000  N
  C13      1.0000 0.57230  0.10640  0.51310  Biso   1.000  C
  C14      1.0000 0.63850  0.05430  0.48000  Biso   1.000  C
  C15      1.0000 0.76480  0.64420  0.67970  Biso   1.000  C
  C16      1.0000 0.73070  0.69730  0.61240  Biso   1.000  C
  H31      1.0000 0.03110  0.13200  0.70590  Biso   1.000  H
  H32      1.0000 0.10500  0.13390  0.65060  Biso   1.000  H
  H33      1.0000 0.04660  0.03860  0.57210  Biso   1.000  H
  H34      1.0000 0.91440  0.05060  0.67130  Biso   1.000  H
  H35      1.0000 0.96890  0.97630  0.66680  Biso   1.000  H
  H36      1.0000 0.89980  0.61850  0.14670  Biso   1.000  H
  H37      1.0000 0.95550  0.62050  0.22030  Biso   1.000  H
  H38      1.0000 0.78660  0.79570  0.32390  Biso   1.000  H
  H39      1.0000 0.80290  0.66500  0.42290  Biso   1.000  H
  H40      1.0000 0.72740  0.71800  0.41960  Biso   1.000  H
  N9       1.0000 0.60060  0.82850  0.93670  Biso   1.000  N
  N10      1.0000 0.81390  0.42100  0.84800  Biso   1.000  N
  C17      1.0000 0.57230  0.89360  0.98690  Biso   1.000  C
  C18      1.0000 0.63850  0.94570  0.02000  Biso   1.000  C
  C19      1.0000 0.76480  0.35580  0.82030  Biso   1.000  C
  C20      1.0000 0.73070  0.30270  0.88760  Biso   1.000  C
  H41      1.0000 0.03110  0.86800  0.79410  Biso   1.000  H
  H42      1.0000 0.10500  0.86610  0.84940  Biso   1.000  H
  H43      1.0000 0.04660  0.96140  0.92790  Biso   1.000  H
  H44      1.0000 0.91440  0.94940  0.82870  Biso   1.000  H
  H45      1.0000 0.96890  0.02370  0.83320  Biso   1.000  H
  H46      1.0000 0.89980  0.38150  0.35330  Biso   1.000  H
  H47      1.0000 0.95550  0.37950  0.27970  Biso   1.000  H
  H48      1.0000 0.78660  0.20430  0.17610  Biso   1.000  H
  H49      1.0000 0.80290  0.33500  0.07710  Biso   1.000  H
  H50      1.0000 0.72740  0.28200  0.08040  Biso   1.000  H
  N11      1.0000 0.10060  0.32850  0.43670  Biso   1.000  N
  N12      1.0000 0.31390  0.92100  0.34800  Biso   1.000  N
  C21      1.0000 0.07230  0.39360  0.48690  Biso   1.000  C
  C22      1.0000 0.13850  0.44570  0.52000  Biso   1.000  C
  C23      1.0000 0.26480  0.85580  0.32030  Biso   1.000  C
  C24      1.0000 0.23070  0.80270  0.38760  Biso   1.000  C
  H51      1.0000 0.53110  0.36800  0.29410  Biso   1.000  H
  H52      1.0000 0.60500  0.36610  0.34940  Biso   1.000  H
  H53      1.0000 0.54660  0.46140  0.42790  Biso   1.000  H
  H54      1.0000 0.41440  0.44940  0.32870  Biso   1.000  H
  H55      1.0000 0.46890  0.52370  0.33320  Biso   1.000  H
  H56      1.0000 0.39980  0.88150  0.85330  Biso   1.000  H
  H57      1.0000 0.45550  0.87950  0.77970  Biso   1.000  H
  H58      1.0000 0.28660  0.70430  0.67610  Biso   1.000  H
  H59      1.0000 0.30290  0.83500  0.57710  Biso   1.000  H
  H60      1.0000 0.22740  0.78200  0.58040  Biso   1.000  H
  N13      1.0000 0.89940  0.17150  0.43670  Biso   1.000  N
  N14      1.0000 0.68610  0.57900  0.34800  Biso   1.000  N
  C25      1.0000 0.92770  0.10640  0.48690  Biso   1.000  C
  C26      1.0000 0.86150  0.05430  0.52000  Biso   1.000  C
  C27      1.0000 0.73520  0.64420  0.32030  Biso   1.000  C
  C28      1.0000 0.76930  0.69730  0.38760  Biso   1.000  C
  H61      1.0000 0.46890  0.13200  0.29410  Biso   1.000  H
  H62      1.0000 0.39500  0.13390  0.34940  Biso   1.000  H
  H63      1.0000 0.45340  0.03860  0.42790  Biso   1.000  H
  H64      1.0000 0.58560  0.05060  0.32870  Biso   1.000  H
  H65      1.0000 0.53110  0.97630  0.33320  Biso   1.000  H
  H66      1.0000 0.60020  0.61850  0.85330  Biso   1.000  H
  H67      1.0000 0.54450  0.62050  0.77970  Biso   1.000  H
  H68      1.0000 0.71340  0.79570  0.67610  Biso   1.000  H
  H69      1.0000 0.69710  0.66500  0.57710  Biso   1.000  H
  H70      1.0000 0.77260  0.71800  0.58040  Biso   1.000  H
  N15      1.0000 0.39940  0.67150  0.93670  Biso   1.000  N
  N16      1.0000 0.18610  0.07900  0.84800  Biso   1.000  N
  C29      1.0000 0.42770  0.60640  0.98690  Biso   1.000  C
  C30      1.0000 0.36150  0.55430  0.02000  Biso   1.000  C
  C31      1.0000 0.23520  0.14420  0.82030  Biso   1.000  C
  C32      1.0000 0.26930  0.19730  0.88760  Biso   1.000  C
  H71      1.0000 0.96890  0.63200  0.79410  Biso   1.000  H
  H72      1.0000 0.89500  0.63390  0.84940  Biso   1.000  H
  H73      1.0000 0.95340  0.53860  0.92790  Biso   1.000  H
  H74      1.0000 0.08560  0.55060  0.82870  Biso   1.000  H
  H75      1.0000 0.03110  0.47630  0.83320  Biso   1.000  H
  H76      1.0000 0.10020  0.11850  0.35330  Biso   1.000  H
  H77      1.0000 0.04450  0.12050  0.27970  Biso   1.000  H
  H78      1.0000 0.21340  0.29570  0.17610  Biso   1.000  H
  H79      1.0000 0.19710  0.16500  0.07710  Biso   1.000  H
  H80      1.0000 0.27260  0.21800  0.08040  Biso   1.000  H
  N17      1.0000 0.56330  0.39940  0.32850  Biso   1.000  N
  N18      1.0000 0.65200  0.18610  0.92100  Biso   1.000  N
  C33      1.0000 0.51310  0.42770  0.39360  Biso   1.000  C
  C34      1.0000 0.48000  0.36150  0.44570  Biso   1.000  C
  C35      1.0000 0.67970  0.23520  0.85580  Biso   1.000  C
  C36      1.0000 0.61240  0.26930  0.80270  Biso   1.000  C
  H81      1.0000 0.70590  0.96890  0.36800  Biso   1.000  H
  H82      1.0000 0.65060  0.89500  0.36610  Biso   1.000  H
  H83      1.0000 0.57210  0.95340  0.46140  Biso   1.000  H
  H84      1.0000 0.67130  0.08560  0.44940  Biso   1.000  H
  H85      1.0000 0.66680  0.03110  0.52370  Biso   1.000  H
  H86      1.0000 0.14670  0.10020  0.88150  Biso   1.000  H
  H87      1.0000 0.22030  0.04450  0.87950  Biso   1.000  H
  H88      1.0000 0.32390  0.21340  0.70430  Biso   1.000  H
  H89      1.0000 0.42290  0.19710  0.83500  Biso   1.000  H
  H90      1.0000 0.41960  0.27260  0.78200  Biso   1.000  H
  N19      1.0000 0.06330  0.89940  0.82850  Biso   1.000  N
  N20      1.0000 0.15200  0.68610  0.42100  Biso   1.000  N
  C37      1.0000 0.01310  0.92770  0.89360  Biso   1.000  C
  C38      1.0000 0.98000  0.86150  0.94570  Biso   1.000  C
  C39      1.0000 0.17970  0.73520  0.35580  Biso   1.000  C
  C40      1.0000 0.11240  0.76930  0.30270  Biso   1.000  C
  H91      1.0000 0.20590  0.46890  0.86800  Biso   1.000  H
  H92      1.0000 0.15060  0.39500  0.86610  Biso   1.000  H
  H93      1.0000 0.07210  0.45340  0.96140  Biso   1.000  H
  H94      1.0000 0.17130  0.58560  0.94940  Biso   1.000  H
  H95      1.0000 0.16680  0.53110  0.02370  Biso   1.000  H
  H96      1.0000 0.64670  0.60020  0.38150  Biso   1.000  H
  H97      1.0000 0.72030  0.54450  0.37950  Biso   1.000  H
  H98      1.0000 0.82390  0.71340  0.20430  Biso   1.000  H
  H99      1.0000 0.92290  0.69710  0.33500  Biso   1.000  H
  H100     1.0000 0.91960  0.77260  0.28200  Biso   1.000  H
  N21      1.0000 0.06330  0.10060  0.67150  Biso   1.000  N
  N22      1.0000 0.15200  0.31390  0.07900  Biso   1.000  N
  C41      1.0000 0.01310  0.07230  0.60640  Biso   1.000  C
  C42      1.0000 0.98000  0.13850  0.55430  Biso   1.000  C
  C43      1.0000 0.17970  0.26480  0.14420  Biso   1.000  C
  C44      1.0000 0.11240  0.23070  0.19730  Biso   1.000  C
  H101     1.0000 0.20590  0.53110  0.63200  Biso   1.000  H
  H102     1.0000 0.15060  0.60500  0.63390  Biso   1.000  H
  H103     1.0000 0.07210  0.54660  0.53860  Biso   1.000  H
  H104     1.0000 0.17130  0.41440  0.55060  Biso   1.000  H
  H105     1.0000 0.16680  0.46890  0.47630  Biso   1.000  H
  H106     1.0000 0.64670  0.39980  0.11850  Biso   1.000  H
  H107     1.0000 0.72030  0.45550  0.12050  Biso   1.000  H
  H108     1.0000 0.82390  0.28660  0.29570  Biso   1.000  H
  H109     1.0000 0.92290  0.30290  0.16500  Biso   1.000  H
  H110     1.0000 0.91960  0.22740  0.21800  Biso   1.000  H
  N23      1.0000 0.56330  0.60060  0.17150  Biso   1.000  N
  N24      1.0000 0.65200  0.81390  0.57900  Biso   1.000  N
  C45      1.0000 0.51310  0.57230  0.10640  Biso   1.000  C
  C46      1.0000 0.48000  0.63850  0.05430  Biso   1.000  C
  C47      1.0000 0.67970  0.76480  0.64420  Biso   1.000  C
  C48      1.0000 0.61240  0.73070  0.69730  Biso   1.000  C
  H111     1.0000 0.70590  0.03110  0.13200  Biso   1.000  H
  H112     1.0000 0.65060  0.10500  0.13390  Biso   1.000  H
  H113     1.0000 0.57210  0.04660  0.03860  Biso   1.000  H
  H114     1.0000 0.67130  0.91440  0.05060  Biso   1.000  H
  H115     1.0000 0.66680  0.96890  0.97630  Biso   1.000  H
  H116     1.0000 0.14670  0.89980  0.61850  Biso   1.000  H
  H117     1.0000 0.22030  0.95550  0.62050  Biso   1.000  H
  H118     1.0000 0.32390  0.78660  0.79570  Biso   1.000  H
  H119     1.0000 0.42290  0.80290  0.66500  Biso   1.000  H
  H120     1.0000 0.41960  0.72740  0.71800  Biso   1.000  H
  N25      1.0000 0.93670  0.60060  0.82850  Biso   1.000  N
  N26      1.0000 0.84800  0.81390  0.42100  Biso   1.000  N
  C49      1.0000 0.98690  0.57230  0.89360  Biso   1.000  C
  C50      1.0000 0.02000  0.63850  0.94570  Biso   1.000  C
  C51      1.0000 0.82030  0.76480  0.35580  Biso   1.000  C
  C52      1.0000 0.88760  0.73070  0.30270  Biso   1.000  C
  H121     1.0000 0.79410  0.03110  0.86800  Biso   1.000  H
  H122     1.0000 0.84940  0.10500  0.86610  Biso   1.000  H
  H123     1.0000 0.92790  0.04660  0.96140  Biso   1.000  H
  H124     1.0000 0.82870  0.91440  0.94940  Biso   1.000  H
  H125     1.0000 0.83320  0.96890  0.02370  Biso   1.000  H
  H126     1.0000 0.35330  0.89980  0.38150  Biso   1.000  H
  H127     1.0000 0.27970  0.95550  0.37950  Biso   1.000  H
  H128     1.0000 0.17610  0.78660  0.20430  Biso   1.000  H
  H129     1.0000 0.07710  0.80290  0.33500  Biso   1.000  H
  H130     1.0000 0.08040  0.72740  0.28200  Biso   1.000  H
  N27      1.0000 0.43670  0.10060  0.32850  Biso   1.000  N
  N28      1.0000 0.34800  0.31390  0.92100  Biso   1.000  N
  C53      1.0000 0.48690  0.07230  0.39360  Biso   1.000  C
  C54      1.0000 0.52000  0.13850  0.44570  Biso   1.000  C
  C55      1.0000 0.32030  0.26480  0.85580  Biso   1.000  C
  C56      1.0000 0.38760  0.23070  0.80270  Biso   1.000  C
  H131     1.0000 0.29410  0.53110  0.36800  Biso   1.000  H
  H132     1.0000 0.34940  0.60500  0.36610  Biso   1.000  H
  H133     1.0000 0.42790  0.54660  0.46140  Biso   1.000  H
  H134     1.0000 0.32870  0.41440  0.44940  Biso   1.000  H
  H135     1.0000 0.33320  0.46890  0.52370  Biso   1.000  H
  H136     1.0000 0.85330  0.39980  0.88150  Biso   1.000  H
  H137     1.0000 0.77970  0.45550  0.87950  Biso   1.000  H
  H138     1.0000 0.67610  0.28660  0.70430  Biso   1.000  H
  H139     1.0000 0.57710  0.30290  0.83500  Biso   1.000  H
  H140     1.0000 0.58040  0.22740  0.78200  Biso   1.000  H
  N29      1.0000 0.43670  0.89940  0.17150  Biso   1.000  N
  N30      1.0000 0.34800  0.68610  0.57900  Biso   1.000  N
  C57      1.0000 0.48690  0.92770  0.10640  Biso   1.000  C
  C58      1.0000 0.52000  0.86150  0.05430  Biso   1.000  C
  C59      1.0000 0.32030  0.73520  0.64420  Biso   1.000  C
  C60      1.0000 0.38760  0.76930  0.69730  Biso   1.000  C
  H141     1.0000 0.29410  0.46890  0.13200  Biso   1.000  H
  H142     1.0000 0.34940  0.39500  0.13390  Biso   1.000  H
  H143     1.0000 0.42790  0.45340  0.03860  Biso   1.000  H
  H144     1.0000 0.32870  0.58560  0.05060  Biso   1.000  H
  H145     1.0000 0.33320  0.53110  0.97630  Biso   1.000  H
  H146     1.0000 0.85330  0.60020  0.61850  Biso   1.000  H
  H147     1.0000 0.77970  0.54450  0.62050  Biso   1.000  H
  H148     1.0000 0.67610  0.71340  0.79570  Biso   1.000  H
  H149     1.0000 0.57710  0.69710  0.66500  Biso   1.000  H
  H150     1.0000 0.58040  0.77260  0.71800  Biso   1.000  H
  N31      1.0000 0.93670  0.39940  0.67150  Biso   1.000  N
  N32      1.0000 0.84800  0.18610  0.07900  Biso   1.000  N
  C61      1.0000 0.98690  0.42770  0.60640  Biso   1.000  C
  C62      1.0000 0.02000  0.36150  0.55430  Biso   1.000  C
  C63      1.0000 0.82030  0.23520  0.14420  Biso   1.000  C
  C64      1.0000 0.88760  0.26930  0.19730  Biso   1.000  C
  H151     1.0000 0.79410  0.96890  0.63200  Biso   1.000  H
  H152     1.0000 0.84940  0.89500  0.63390  Biso   1.000  H
  H153     1.0000 0.92790  0.95340  0.53860  Biso   1.000  H
  H154     1.0000 0.82870  0.08560  0.55060  Biso   1.000  H
  H155     1.0000 0.83320  0.03110  0.47630  Biso   1.000  H
  H156     1.0000 0.35330  0.10020  0.11850  Biso   1.000  H
  H157     1.0000 0.27970  0.04450  0.12050  Biso   1.000  H
  H158     1.0000 0.17610  0.21340  0.29570  Biso   1.000  H
  H159     1.0000 0.07710  0.19710  0.16500  Biso   1.000  H
  H160     1.0000 0.08040  0.27260  0.21800  Biso   1.000  H
  N33      1.0000 0.32850  0.56330  0.39940  Biso   1.000  N
  N34      1.0000 0.92100  0.65200  0.18610  Biso   1.000  N
  C65      1.0000 0.39360  0.51310  0.42770  Biso   1.000  C
  C66      1.0000 0.44570  0.48000  0.36150  Biso   1.000  C
  C67      1.0000 0.85580  0.67970  0.23520  Biso   1.000  C
  C68      1.0000 0.80270  0.61240  0.26930  Biso   1.000  C
  H161     1.0000 0.36800  0.70590  0.96890  Biso   1.000  H
  H162     1.0000 0.36610  0.65060  0.89500  Biso   1.000  H
  H163     1.0000 0.46140  0.57210  0.95340  Biso   1.000  H
  H164     1.0000 0.44940  0.67130  0.08560  Biso   1.000  H
  H165     1.0000 0.52370  0.66680  0.03110  Biso   1.000  H
  H166     1.0000 0.88150  0.14670  0.10020  Biso   1.000  H
  H167     1.0000 0.87950  0.22030  0.04450  Biso   1.000  H
  H168     1.0000 0.70430  0.32390  0.21340  Biso   1.000  H
  H169     1.0000 0.83500  0.42290  0.19710  Biso   1.000  H
  H170     1.0000 0.78200  0.41960  0.27260  Biso   1.000  H
  N35      1.0000 0.82850  0.06330  0.89940  Biso   1.000  N
  N36      1.0000 0.42100  0.15200  0.68610  Biso   1.000  N
  C69      1.0000 0.89360  0.01310  0.92770  Biso   1.000  C
  C70      1.0000 0.94570  0.98000  0.86150  Biso   1.000  C
  C71      1.0000 0.35580  0.17970  0.73520  Biso   1.000  C
  C72      1.0000 0.30270  0.11240  0.76930  Biso   1.000  C
  H171     1.0000 0.86800  0.20590  0.46890  Biso   1.000  H
  H172     1.0000 0.86610  0.15060  0.39500  Biso   1.000  H
  H173     1.0000 0.96140  0.07210  0.45340  Biso   1.000  H
  H174     1.0000 0.94940  0.17130  0.58560  Biso   1.000  H
  H175     1.0000 0.02370  0.16680  0.53110  Biso   1.000  H
  H176     1.0000 0.38150  0.64670  0.60020  Biso   1.000  H
  H177     1.0000 0.37950  0.72030  0.54450  Biso   1.000  H
  H178     1.0000 0.20430  0.82390  0.71340  Biso   1.000  H
  H179     1.0000 0.33500  0.92290  0.69710  Biso   1.000  H
  H180     1.0000 0.28200  0.91960  0.77260  Biso   1.000  H
  N37      1.0000 0.67150  0.06330  0.10060  Biso   1.000  N
  N38      1.0000 0.07900  0.15200  0.31390  Biso   1.000  N
  C73      1.0000 0.60640  0.01310  0.07230  Biso   1.000  C
  C74      1.0000 0.55430  0.98000  0.13850  Biso   1.000  C
  C75      1.0000 0.14420  0.17970  0.26480  Biso   1.000  C
  C76      1.0000 0.19730  0.11240  0.23070  Biso   1.000  C
  H181     1.0000 0.63200  0.20590  0.53110  Biso   1.000  H
  H182     1.0000 0.63390  0.15060  0.60500  Biso   1.000  H
  H183     1.0000 0.53860  0.07210  0.54660  Biso   1.000  H
  H184     1.0000 0.55060  0.17130  0.41440  Biso   1.000  H
  H185     1.0000 0.47630  0.16680  0.46890  Biso   1.000  H
  H186     1.0000 0.11850  0.64670  0.39980  Biso   1.000  H
  H187     1.0000 0.12050  0.72030  0.45550  Biso   1.000  H
  H188     1.0000 0.29570  0.82390  0.28660  Biso   1.000  H
  H189     1.0000 0.16500  0.92290  0.30290  Biso   1.000  H
  H190     1.0000 0.21800  0.91960  0.22740  Biso   1.000  H
  N39      1.0000 0.17150  0.56330  0.60060  Biso   1.000  N
  N40      1.0000 0.57900  0.65200  0.81390  Biso   1.000  N
  C77      1.0000 0.10640  0.51310  0.57230  Biso   1.000  C
  C78      1.0000 0.05430  0.48000  0.63850  Biso   1.000  C
  C79      1.0000 0.64420  0.67970  0.76480  Biso   1.000  C
  C80      1.0000 0.69730  0.61240  0.73070  Biso   1.000  C
  H191     1.0000 0.13200  0.70590  0.03110  Biso   1.000  H
  H192     1.0000 0.13390  0.65060  0.10500  Biso   1.000  H
  H193     1.0000 0.03860  0.57210  0.04660  Biso   1.000  H
  H194     1.0000 0.05060  0.67130  0.91440  Biso   1.000  H
  H195     1.0000 0.97630  0.66680  0.96890  Biso   1.000  H
  H196     1.0000 0.61850  0.14670  0.89980  Biso   1.000  H
  H197     1.0000 0.62050  0.22030  0.95550  Biso   1.000  H
  H198     1.0000 0.79570  0.32390  0.78660  Biso   1.000  H
  H199     1.0000 0.66500  0.42290  0.80290  Biso   1.000  H
  H200     1.0000 0.71800  0.41960  0.72740  Biso   1.000  H
  N41      1.0000 0.82850  0.93670  0.60060  Biso   1.000  N
  N42      1.0000 0.42100  0.84800  0.81390  Biso   1.000  N
  C81      1.0000 0.89360  0.98690  0.57230  Biso   1.000  C
  C82      1.0000 0.94570  0.02000  0.63850  Biso   1.000  C
  C83      1.0000 0.35580  0.82030  0.76480  Biso   1.000  C
  C84      1.0000 0.30270  0.88760  0.73070  Biso   1.000  C
  H201     1.0000 0.86800  0.79410  0.03110  Biso   1.000  H
  H202     1.0000 0.86610  0.84940  0.10500  Biso   1.000  H
  H203     1.0000 0.96140  0.92790  0.04660  Biso   1.000  H
  H204     1.0000 0.94940  0.82870  0.91440  Biso   1.000  H
  H205     1.0000 0.02370  0.83320  0.96890  Biso   1.000  H
  H206     1.0000 0.38150  0.35330  0.89980  Biso   1.000  H
  H207     1.0000 0.37950  0.27970  0.95550  Biso   1.000  H
  H208     1.0000 0.20430  0.17610  0.78660  Biso   1.000  H
  H209     1.0000 0.33500  0.07710  0.80290  Biso   1.000  H
  H210     1.0000 0.28200  0.08040  0.72740  Biso   1.000  H
  N43      1.0000 0.32850  0.43670  0.10060  Biso   1.000  N
  N44      1.0000 0.92100  0.34800  0.31390  Biso   1.000  N
  C85      1.0000 0.39360  0.48690  0.07230  Biso   1.000  C
  C86      1.0000 0.44570  0.52000  0.13850  Biso   1.000  C
  C87      1.0000 0.85580  0.32030  0.26480  Biso   1.000  C
  C88      1.0000 0.80270  0.38760  0.23070  Biso   1.000  C
  H211     1.0000 0.36800  0.29410  0.53110  Biso   1.000  H
  H212     1.0000 0.36610  0.34940  0.60500  Biso   1.000  H
  H213     1.0000 0.46140  0.42790  0.54660  Biso   1.000  H
  H214     1.0000 0.44940  0.32870  0.41440  Biso   1.000  H
  H215     1.0000 0.52370  0.33320  0.46890  Biso   1.000  H
  H216     1.0000 0.88150  0.85330  0.39980  Biso   1.000  H
  H217     1.0000 0.87950  0.77970  0.45550  Biso   1.000  H
  H218     1.0000 0.70430  0.67610  0.28660  Biso   1.000  H
  H219     1.0000 0.83500  0.57710  0.30290  Biso   1.000  H
  H220     1.0000 0.78200  0.58040  0.22740  Biso   1.000  H
  N45      1.0000 0.17150  0.43670  0.89940  Biso   1.000  N
  N46      1.0000 0.57900  0.34800  0.68610  Biso   1.000  N
  C89      1.0000 0.10640  0.48690  0.92770  Biso   1.000  C
  C90      1.0000 0.05430  0.52000  0.86150  Biso   1.000  C
  C91      1.0000 0.64420  0.32030  0.73520  Biso   1.000  C
  C92      1.0000 0.69730  0.38760  0.76930  Biso   1.000  C
  H221     1.0000 0.13200  0.29410  0.46890  Biso   1.000  H
  H222     1.0000 0.13390  0.34940  0.39500  Biso   1.000  H
  H223     1.0000 0.03860  0.42790  0.45340  Biso   1.000  H
  H224     1.0000 0.05060  0.32870  0.58560  Biso   1.000  H
  H225     1.0000 0.97630  0.33320  0.53110  Biso   1.000  H
  H226     1.0000 0.61850  0.85330  0.60020  Biso   1.000  H
  H227     1.0000 0.62050  0.77970  0.54450  Biso   1.000  H
  H228     1.0000 0.79570  0.67610  0.71340  Biso   1.000  H
  H229     1.0000 0.66500  0.57710  0.69710  Biso   1.000  H
  H230     1.0000 0.71800  0.58040  0.77260  Biso   1.000  H
  N47      1.0000 0.67150  0.93670  0.39940  Biso   1.000  N
  N48      1.0000 0.07900  0.84800  0.18610  Biso   1.000  N
  C93      1.0000 0.60640  0.98690  0.42770  Biso   1.000  C
  C94      1.0000 0.55430  0.02000  0.36150  Biso   1.000  C
  C95      1.0000 0.14420  0.82030  0.23520  Biso   1.000  C
  C96      1.0000 0.19730  0.88760  0.26930  Biso   1.000  C
  H231     1.0000 0.63200  0.79410  0.96890  Biso   1.000  H
  H232     1.0000 0.63390  0.84940  0.89500  Biso   1.000  H
  H233     1.0000 0.53860  0.92790  0.95340  Biso   1.000  H
  H234     1.0000 0.55060  0.82870  0.08560  Biso   1.000  H
  H235     1.0000 0.47630  0.83320  0.03110  Biso   1.000  H
  H236     1.0000 0.11850  0.35330  0.10020  Biso   1.000  H
  H237     1.0000 0.12050  0.27970  0.04450  Biso   1.000  H
  H238     1.0000 0.29570  0.17610  0.21340  Biso   1.000  H
  H239     1.0000 0.16500  0.07710  0.19710  Biso   1.000  H
  H240     1.0000 0.21800  0.08040  0.27260  Biso   1.000  H
  Ag1      1.0000 0.25000  0.62490  0.50000  Biso   1.000  Ag
  Ag2      1.0000 0.25000  0.37510  0.00000  Biso   1.000  Ag
  Ag3      1.0000 0.75000  0.87510  0.50000  Biso   1.000  Ag
  Ag4      1.0000 0.75000  0.12490  0.00000  Biso   1.000  Ag
  Ag5      1.0000 0.50000  0.25000  0.62490  Biso   1.000  Ag
  Ag6      1.0000 0.00000  0.25000  0.37510  Biso   1.000  Ag
  Ag7      1.0000 0.50000  0.75000  0.87510  Biso   1.000  Ag
  Ag8      1.0000 0.00000  0.75000  0.12490  Biso   1.000  Ag
  Ag9      1.0000 0.62490  0.50000  0.25000  Biso   1.000  Ag
  Ag10     1.0000 0.37510  0.00000  0.25000  Biso   1.000  Ag
  Ag11     1.0000 0.87510  0.50000  0.75000  Biso   1.000  Ag
  Ag12     1.0000 0.12490  0.00000  0.75000  Biso   1.000  Ag
