data_image0
_cell_length_a       15.778
_cell_length_b       19.446
_cell_length_c       25.677
_cell_angle_alpha    90
_cell_angle_beta     90
_cell_angle_gamma    90

_symmetry_space_group_name_H-M    P 1
_symmetry_int_tables_number       1

loop_
  _symmetry_equiv_pos_as_xyz
  'x, y, z'

loop_
  _atom_site_label
  _atom_site_occupancy
  _atom_site_fract_x
  _atom_site_fract_y
  _atom_site_fract_z
  _atom_site_thermal_displace_type
  _atom_site_B_iso_or_equiv
  _atom_site_type_symbol
  Cu1      1.0000 0.49064  0.75597  0.99637  Biso   1.000  Cu
  Cu2      1.0000 0.99064  0.74403  0.50363  Biso   1.000  Cu
  Cu3      1.0000 0.00936  0.24403  0.99637  Biso   1.000  Cu
  Cu4      1.0000 0.50936  0.25597  0.50363  Biso   1.000  Cu
  H1       1.0000 0.81740  0.90450  0.24760  Biso   1.000  H
  H2       1.0000 0.84230  0.96700  0.20100  Biso   1.000  H
  H3       1.0000 0.75490  0.89440  0.03600  Biso   1.000  H
  H4       1.0000 0.65570  0.82800  0.98270  Biso   1.000  H
  H5       1.0000 0.49750  0.79630  0.11090  Biso   1.000  H
  H6       1.0000 0.59640  0.85630  0.16800  Biso   1.000  H
  H7       1.0000 0.79290  0.07780  0.31130  Biso   1.000  H
  H8       1.0000 0.87070  0.05050  0.26710  Biso   1.000  H
  H9       1.0000 0.81200  0.90070  0.39290  Biso   1.000  H
  H10      1.0000 0.84220  0.81060  0.45600  Biso   1.000  H
  H11      1.0000 0.10110  0.84600  0.44500  Biso   1.000  H
  H12      1.0000 0.07810  0.93920  0.38470  Biso   1.000  H
  H13      1.0000 0.64180  0.06810  0.77340  Biso   1.000  H
  H14      1.0000 0.71720  0.07320  0.82340  Biso   1.000  H
  H15      1.0000 0.47660  0.00800  0.94170  Biso   1.000  H
  H16      1.0000 0.43800  0.90800  0.99540  Biso   1.000  H
  H17      1.0000 0.55270  0.77450  0.88970  Biso   1.000  H
  H18      1.0000 0.59780  0.87090  0.83600  Biso   1.000  H
  H19      1.0000 0.65050  0.97160  0.70990  Biso   1.000  H
  H20      1.0000 0.67780  0.90730  0.75480  Biso   1.000  H
  H21      1.0000 0.89860  0.90830  0.64830  Biso   1.000  H
  H22      1.0000 0.99430  0.86460  0.58240  Biso   1.000  H
  H23      1.0000 0.81500  0.72310  0.53480  Biso   1.000  H
  H24      1.0000 0.71680  0.75950  0.60220  Biso   1.000  H
  H25      1.0000 0.31740  0.59550  0.25240  Biso   1.000  H
  H26      1.0000 0.34230  0.53300  0.29900  Biso   1.000  H
  H27      1.0000 0.25490  0.60560  0.46400  Biso   1.000  H
  H28      1.0000 0.15570  0.67200  0.51730  Biso   1.000  H
  H29      1.0000 0.99750  0.70370  0.38910  Biso   1.000  H
  H30      1.0000 0.09640  0.64370  0.33200  Biso   1.000  H
  H31      1.0000 0.29290  0.42220  0.18870  Biso   1.000  H
  H32      1.0000 0.37070  0.44950  0.23290  Biso   1.000  H
  H33      1.0000 0.31200  0.59930  0.10710  Biso   1.000  H
  H34      1.0000 0.34220  0.68940  0.04400  Biso   1.000  H
  H35      1.0000 0.60110  0.65400  0.05500  Biso   1.000  H
  H36      1.0000 0.57810  0.56080  0.11530  Biso   1.000  H
  H37      1.0000 0.14180  0.43190  0.72660  Biso   1.000  H
  H38      1.0000 0.21720  0.42680  0.67660  Biso   1.000  H
  H39      1.0000 0.97660  0.49200  0.55830  Biso   1.000  H
  H40      1.0000 0.93800  0.59200  0.50460  Biso   1.000  H
  H41      1.0000 0.05270  0.72550  0.61030  Biso   1.000  H
  H42      1.0000 0.09780  0.62910  0.66400  Biso   1.000  H
  H43      1.0000 0.15050  0.52840  0.79010  Biso   1.000  H
  H44      1.0000 0.17780  0.59270  0.74520  Biso   1.000  H
  H45      1.0000 0.39860  0.59170  0.85170  Biso   1.000  H
  H46      1.0000 0.49430  0.63540  0.91760  Biso   1.000  H
  H47      1.0000 0.31500  0.77690  0.96520  Biso   1.000  H
  H48      1.0000 0.21680  0.74050  0.89780  Biso   1.000  H
  H49      1.0000 0.68260  0.09550  0.24760  Biso   1.000  H
  H50      1.0000 0.65770  0.03300  0.20100  Biso   1.000  H
  H51      1.0000 0.74510  0.10560  0.03600  Biso   1.000  H
  H52      1.0000 0.84430  0.17200  0.98270  Biso   1.000  H
  H53      1.0000 0.00250  0.20370  0.11090  Biso   1.000  H
  H54      1.0000 0.90360  0.14370  0.16800  Biso   1.000  H
  H55      1.0000 0.70710  0.92220  0.31130  Biso   1.000  H
  H56      1.0000 0.62930  0.94950  0.26710  Biso   1.000  H
  H57      1.0000 0.68800  0.09930  0.39290  Biso   1.000  H
  H58      1.0000 0.65780  0.18940  0.45600  Biso   1.000  H
  H59      1.0000 0.39890  0.15400  0.44500  Biso   1.000  H
  H60      1.0000 0.42190  0.06080  0.38470  Biso   1.000  H
  H61      1.0000 0.85820  0.93190  0.77340  Biso   1.000  H
  H62      1.0000 0.78280  0.92680  0.82340  Biso   1.000  H
  H63      1.0000 0.02340  0.99200  0.94170  Biso   1.000  H
  H64      1.0000 0.06200  0.09200  0.99540  Biso   1.000  H
  H65      1.0000 0.94730  0.22550  0.88970  Biso   1.000  H
  H66      1.0000 0.90220  0.12910  0.83600  Biso   1.000  H
  H67      1.0000 0.84950  0.02840  0.70990  Biso   1.000  H
  H68      1.0000 0.82220  0.09270  0.75480  Biso   1.000  H
  H69      1.0000 0.60140  0.09170  0.64830  Biso   1.000  H
  H70      1.0000 0.50570  0.13540  0.58240  Biso   1.000  H
  H71      1.0000 0.68500  0.27690  0.53480  Biso   1.000  H
  H72      1.0000 0.78320  0.24050  0.60220  Biso   1.000  H
  H73      1.0000 0.18260  0.40450  0.25240  Biso   1.000  H
  H74      1.0000 0.15770  0.46700  0.29900  Biso   1.000  H
  H75      1.0000 0.24510  0.39440  0.46400  Biso   1.000  H
  H76      1.0000 0.34430  0.32800  0.51730  Biso   1.000  H
  H77      1.0000 0.50250  0.29630  0.38910  Biso   1.000  H
  H78      1.0000 0.40360  0.35630  0.33200  Biso   1.000  H
  H79      1.0000 0.20710  0.57780  0.18870  Biso   1.000  H
  H80      1.0000 0.12930  0.55050  0.23290  Biso   1.000  H
  H81      1.0000 0.18800  0.40070  0.10710  Biso   1.000  H
  H82      1.0000 0.15780  0.31060  0.04400  Biso   1.000  H
  H83      1.0000 0.89890  0.34600  0.05500  Biso   1.000  H
  H84      1.0000 0.92190  0.43920  0.11530  Biso   1.000  H
  H85      1.0000 0.35820  0.56810  0.72660  Biso   1.000  H
  H86      1.0000 0.28280  0.57320  0.67660  Biso   1.000  H
  H87      1.0000 0.52340  0.50800  0.55830  Biso   1.000  H
  H88      1.0000 0.56200  0.40800  0.50460  Biso   1.000  H
  H89      1.0000 0.44730  0.27450  0.61030  Biso   1.000  H
  H90      1.0000 0.40220  0.37090  0.66400  Biso   1.000  H
  H91      1.0000 0.34950  0.47160  0.79010  Biso   1.000  H
  H92      1.0000 0.32220  0.40730  0.74520  Biso   1.000  H
  H93      1.0000 0.10140  0.40830  0.85170  Biso   1.000  H
  H94      1.0000 0.00570  0.36460  0.91760  Biso   1.000  H
  H95      1.0000 0.18500  0.22310  0.96520  Biso   1.000  H
  H96      1.0000 0.28320  0.25950  0.89780  Biso   1.000  H
  C1       1.0000 0.79130  0.94470  0.22330  Biso   1.000  C
  C2       1.0000 0.75030  0.91190  0.13820  Biso   1.000  C
  C3       1.0000 0.68360  0.87800  0.10700  Biso   1.000  C
  C4       1.0000 0.69950  0.87130  0.05340  Biso   1.000  C
  C5       1.0000 0.64310  0.83480  0.02370  Biso   1.000  C
  C6       1.0000 0.55560  0.81640  0.09480  Biso   1.000  C
  C7       1.0000 0.61070  0.85080  0.12710  Biso   1.000  C
  C8       1.0000 0.81850  0.03370  0.29110  Biso   1.000  C
  C9       1.0000 0.92750  0.98230  0.34310  Biso   1.000  C
  C10      1.0000 0.94320  0.92610  0.38210  Biso   1.000  C
  C11      1.0000 0.87670  0.88940  0.40380  Biso   1.000  C
  C12      1.0000 0.89410  0.83900  0.43890  Biso   1.000  C
  C13      1.0000 0.03710  0.85840  0.43350  Biso   1.000  C
  C14      1.0000 0.02460  0.91020  0.39910  Biso   1.000  C
  C15      1.0000 0.68500  0.03860  0.79710  Biso   1.000  C
  C16      1.0000 0.58040  0.00620  0.85700  Biso   1.000  C
  C17      1.0000 0.54620  0.94690  0.88690  Biso   1.000  C
  C18      1.0000 0.49710  0.95700  0.93080  Biso   1.000  C
  C19      1.0000 0.47480  0.90070  0.96030  Biso   1.000  C
  C20      1.0000 0.53900  0.82640  0.90200  Biso   1.000  C
  C21      1.0000 0.56390  0.88030  0.87190  Biso   1.000  C
  C22      1.0000 0.70270  0.94750  0.73010  Biso   1.000  C
  C23      1.0000 0.73400  0.86590  0.66640  Biso   1.000  C
  C24      1.0000 0.79870  0.83910  0.62900  Biso   1.000  C
  C25      1.0000 0.87850  0.86670  0.62340  Biso   1.000  C
  C26      1.0000 0.93230  0.84160  0.58640  Biso   1.000  C
  C27      1.0000 0.83380  0.76370  0.56100  Biso   1.000  C
  C28      1.0000 0.77720  0.78500  0.59780  Biso   1.000  C
  C29      1.0000 0.29130  0.55530  0.27670  Biso   1.000  C
  C30      1.0000 0.25030  0.58810  0.36180  Biso   1.000  C
  C31      1.0000 0.18360  0.62200  0.39300  Biso   1.000  C
  C32      1.0000 0.19950  0.62870  0.44660  Biso   1.000  C
  C33      1.0000 0.14310  0.66520  0.47630  Biso   1.000  C
  C34      1.0000 0.05560  0.68360  0.40520  Biso   1.000  C
  C35      1.0000 0.11070  0.64920  0.37290  Biso   1.000  C
  C36      1.0000 0.31850  0.46630  0.20890  Biso   1.000  C
  C37      1.0000 0.42750  0.51770  0.15690  Biso   1.000  C
  C38      1.0000 0.44320  0.57390  0.11790  Biso   1.000  C
  C39      1.0000 0.37670  0.61060  0.09620  Biso   1.000  C
  C40      1.0000 0.39410  0.66100  0.06110  Biso   1.000  C
  C41      1.0000 0.53710  0.64160  0.06650  Biso   1.000  C
  C42      1.0000 0.52460  0.58980  0.10090  Biso   1.000  C
  C43      1.0000 0.18500  0.46140  0.70290  Biso   1.000  C
  C44      1.0000 0.08040  0.49380  0.64300  Biso   1.000  C
  C45      1.0000 0.04620  0.55310  0.61310  Biso   1.000  C
  C46      1.0000 0.99710  0.54300  0.56920  Biso   1.000  C
  C47      1.0000 0.97480  0.59930  0.53970  Biso   1.000  C
  C48      1.0000 0.03900  0.67360  0.59800  Biso   1.000  C
  C49      1.0000 0.06390  0.61970  0.62810  Biso   1.000  C
  C50      1.0000 0.20270  0.55250  0.76990  Biso   1.000  C
  C51      1.0000 0.23400  0.63410  0.83360  Biso   1.000  C
  C52      1.0000 0.29870  0.66090  0.87100  Biso   1.000  C
  C53      1.0000 0.37850  0.63330  0.87660  Biso   1.000  C
  C54      1.0000 0.43230  0.65840  0.91360  Biso   1.000  C
  C55      1.0000 0.33380  0.73630  0.93900  Biso   1.000  C
  C56      1.0000 0.27720  0.71500  0.90220  Biso   1.000  C
  C57      1.0000 0.70870  0.05530  0.22330  Biso   1.000  C
  C58      1.0000 0.74970  0.08810  0.13820  Biso   1.000  C
  C59      1.0000 0.81640  0.12200  0.10700  Biso   1.000  C
  C60      1.0000 0.80050  0.12870  0.05340  Biso   1.000  C
  C61      1.0000 0.85690  0.16520  0.02370  Biso   1.000  C
  C62      1.0000 0.94440  0.18360  0.09480  Biso   1.000  C
  C63      1.0000 0.88930  0.14920  0.12710  Biso   1.000  C
  C64      1.0000 0.68150  0.96630  0.29110  Biso   1.000  C
  C65      1.0000 0.57250  0.01770  0.34310  Biso   1.000  C
  C66      1.0000 0.55680  0.07390  0.38210  Biso   1.000  C
  C67      1.0000 0.62330  0.11060  0.40380  Biso   1.000  C
  C68      1.0000 0.60590  0.16100  0.43890  Biso   1.000  C
  C69      1.0000 0.46290  0.14160  0.43350  Biso   1.000  C
  C70      1.0000 0.47540  0.08980  0.39910  Biso   1.000  C
  C71      1.0000 0.81500  0.96140  0.79710  Biso   1.000  C
  C72      1.0000 0.91960  0.99380  0.85700  Biso   1.000  C
  C73      1.0000 0.95380  0.05310  0.88690  Biso   1.000  C
  C74      1.0000 0.00290  0.04300  0.93080  Biso   1.000  C
  C75      1.0000 0.02520  0.09930  0.96030  Biso   1.000  C
  C76      1.0000 0.96100  0.17360  0.90200  Biso   1.000  C
  C77      1.0000 0.93610  0.11970  0.87190  Biso   1.000  C
  C78      1.0000 0.79730  0.05250  0.73010  Biso   1.000  C
  C79      1.0000 0.76600  0.13410  0.66640  Biso   1.000  C
  C80      1.0000 0.70130  0.16090  0.62900  Biso   1.000  C
  C81      1.0000 0.62150  0.13330  0.62340  Biso   1.000  C
  C82      1.0000 0.56770  0.15840  0.58640  Biso   1.000  C
  C83      1.0000 0.66620  0.23630  0.56100  Biso   1.000  C
  C84      1.0000 0.72280  0.21500  0.59780  Biso   1.000  C
  C85      1.0000 0.20870  0.44470  0.27670  Biso   1.000  C
  C86      1.0000 0.24970  0.41190  0.36180  Biso   1.000  C
  C87      1.0000 0.31640  0.37800  0.39300  Biso   1.000  C
  C88      1.0000 0.30050  0.37130  0.44660  Biso   1.000  C
  C89      1.0000 0.35690  0.33480  0.47630  Biso   1.000  C
  C90      1.0000 0.44440  0.31640  0.40520  Biso   1.000  C
  C91      1.0000 0.38930  0.35080  0.37290  Biso   1.000  C
  C92      1.0000 0.18150  0.53370  0.20890  Biso   1.000  C
  C93      1.0000 0.07250  0.48230  0.15690  Biso   1.000  C
  C94      1.0000 0.05680  0.42610  0.11790  Biso   1.000  C
  C95      1.0000 0.12330  0.38940  0.09620  Biso   1.000  C
  C96      1.0000 0.10590  0.33900  0.06110  Biso   1.000  C
  C97      1.0000 0.96290  0.35840  0.06650  Biso   1.000  C
  C98      1.0000 0.97540  0.41020  0.10090  Biso   1.000  C
  C99      1.0000 0.31500  0.53860  0.70290  Biso   1.000  C
  C100     1.0000 0.41960  0.50620  0.64300  Biso   1.000  C
  C101     1.0000 0.45380  0.44690  0.61310  Biso   1.000  C
  C102     1.0000 0.50290  0.45700  0.56920  Biso   1.000  C
  C103     1.0000 0.52520  0.40070  0.53970  Biso   1.000  C
  C104     1.0000 0.46100  0.32640  0.59800  Biso   1.000  C
  C105     1.0000 0.43610  0.38030  0.62810  Biso   1.000  C
  C106     1.0000 0.29730  0.44750  0.76990  Biso   1.000  C
  C107     1.0000 0.26600  0.36590  0.83360  Biso   1.000  C
  C108     1.0000 0.20130  0.33910  0.87100  Biso   1.000  C
  C109     1.0000 0.12150  0.36670  0.87660  Biso   1.000  C
  C110     1.0000 0.06770  0.34160  0.91360  Biso   1.000  C
  C111     1.0000 0.16620  0.26370  0.93900  Biso   1.000  C
  C112     1.0000 0.22280  0.28500  0.90220  Biso   1.000  C
  C113     1.0000 0.75000  0.00000  0.25760  Biso   1.000  C
  C114     1.0000 0.75000  0.00000  0.76240  Biso   1.000  C
  C115     1.0000 0.25000  0.50000  0.24240  Biso   1.000  C
  C116     1.0000 0.25000  0.50000  0.73760  Biso   1.000  C
  N1       1.0000 0.57120  0.80690  0.04460  Biso   1.000  N
  N2       1.0000 0.97500  0.82320  0.45320  Biso   1.000  N
  N3       1.0000 0.49810  0.83710  0.94640  Biso   1.000  N
  N4       1.0000 0.91150  0.79060  0.55570  Biso   1.000  N
  N5       1.0000 0.07120  0.69310  0.45540  Biso   1.000  N
  N6       1.0000 0.47500  0.67680  0.04680  Biso   1.000  N
  N7       1.0000 0.99810  0.66290  0.55360  Biso   1.000  N
  N8       1.0000 0.41150  0.70940  0.94430  Biso   1.000  N
  N9       1.0000 0.92880  0.19310  0.04460  Biso   1.000  N
  N10      1.0000 0.52500  0.17680  0.45320  Biso   1.000  N
  N11      1.0000 0.00190  0.16290  0.94640  Biso   1.000  N
  N12      1.0000 0.58850  0.20940  0.55570  Biso   1.000  N
  N13      1.0000 0.42880  0.30690  0.45540  Biso   1.000  N
  N14      1.0000 0.02500  0.32320  0.04680  Biso   1.000  N
  N15      1.0000 0.50190  0.33710  0.55360  Biso   1.000  N
  N16      1.0000 0.08850  0.29060  0.94430  Biso   1.000  N
  O1       1.0000 0.72860  0.91620  0.18880  Biso   1.000  O
  O2       1.0000 0.81550  0.93270  0.12220  Biso   1.000  O
  O3       1.0000 0.84700  0.98270  0.32810  Biso   1.000  O
  O4       1.0000 0.98140  0.01890  0.32660  Biso   1.000  O
  O5       1.0000 0.64000  0.98700  0.82570  Biso   1.000  O
  O6       1.0000 0.55890  0.06390  0.86330  Biso   1.000  O
  O7       1.0000 0.76240  0.91920  0.69310  Biso   1.000  O
  O8       1.0000 0.66540  0.83970  0.67060  Biso   1.000  O
  O9       1.0000 0.22860  0.58380  0.31120  Biso   1.000  O
  O10      1.0000 0.31550  0.56730  0.37780  Biso   1.000  O
  O11      1.0000 0.34700  0.51730  0.17190  Biso   1.000  O
  O12      1.0000 0.48140  0.48110  0.17340  Biso   1.000  O
  O13      1.0000 0.14000  0.51300  0.67430  Biso   1.000  O
  O14      1.0000 0.05890  0.43610  0.63670  Biso   1.000  O
  O15      1.0000 0.26240  0.58080  0.80690  Biso   1.000  O
  O16      1.0000 0.16540  0.66030  0.82940  Biso   1.000  O
  O17      1.0000 0.77140  0.08380  0.18880  Biso   1.000  O
  O18      1.0000 0.68450  0.06730  0.12220  Biso   1.000  O
  O19      1.0000 0.65300  0.01730  0.32810  Biso   1.000  O
  O20      1.0000 0.51860  0.98110  0.32660  Biso   1.000  O
  O21      1.0000 0.86000  0.01300  0.82570  Biso   1.000  O
  O22      1.0000 0.94110  0.93610  0.86330  Biso   1.000  O
  O23      1.0000 0.73760  0.08080  0.69310  Biso   1.000  O
  O24      1.0000 0.83460  0.16030  0.67060  Biso   1.000  O
  O25      1.0000 0.27140  0.41620  0.31120  Biso   1.000  O
  O26      1.0000 0.18450  0.43270  0.37780  Biso   1.000  O
  O27      1.0000 0.15300  0.48270  0.17190  Biso   1.000  O
  O28      1.0000 0.01860  0.51890  0.17340  Biso   1.000  O
  O29      1.0000 0.36000  0.48700  0.67430  Biso   1.000  O
  O30      1.0000 0.44110  0.56390  0.63670  Biso   1.000  O
  O31      1.0000 0.23760  0.41920  0.80690  Biso   1.000  O
  O32      1.0000 0.33460  0.33970  0.82940  Biso   1.000  O
  Cu5      1.0000 0.50936  0.24403  0.00363  Biso   1.000  Cu
  Cu6      1.0000 0.00936  0.25597  0.49637  Biso   1.000  Cu
  Cu7      1.0000 0.99064  0.75597  0.00363  Biso   1.000  Cu
  Cu8      1.0000 0.49064  0.74403  0.49637  Biso   1.000  Cu
  H97      1.0000 0.18260  0.09550  0.75240  Biso   1.000  H
  H98      1.0000 0.15770  0.03300  0.79900  Biso   1.000  H
  H99      1.0000 0.24510  0.10560  0.96400  Biso   1.000  H
  H100     1.0000 0.34430  0.17200  0.01730  Biso   1.000  H
  H101     1.0000 0.50250  0.20370  0.88910  Biso   1.000  H
  H102     1.0000 0.40360  0.14370  0.83200  Biso   1.000  H
  H103     1.0000 0.20710  0.92220  0.68870  Biso   1.000  H
  H104     1.0000 0.12930  0.94950  0.73290  Biso   1.000  H
  H105     1.0000 0.18800  0.09930  0.60710  Biso   1.000  H
  H106     1.0000 0.15780  0.18940  0.54400  Biso   1.000  H
  H107     1.0000 0.89890  0.15400  0.55500  Biso   1.000  H
  H108     1.0000 0.92190  0.06080  0.61530  Biso   1.000  H
  H109     1.0000 0.35820  0.93190  0.22660  Biso   1.000  H
  H110     1.0000 0.28280  0.92680  0.17660  Biso   1.000  H
  H111     1.0000 0.52340  0.99200  0.05830  Biso   1.000  H
  H112     1.0000 0.56200  0.09200  0.00460  Biso   1.000  H
  H113     1.0000 0.44730  0.22550  0.11030  Biso   1.000  H
  H114     1.0000 0.40220  0.12910  0.16400  Biso   1.000  H
  H115     1.0000 0.34950  0.02840  0.29010  Biso   1.000  H
  H116     1.0000 0.32220  0.09270  0.24520  Biso   1.000  H
  H117     1.0000 0.10140  0.09170  0.35170  Biso   1.000  H
  H118     1.0000 0.00570  0.13540  0.41760  Biso   1.000  H
  H119     1.0000 0.18500  0.27690  0.46520  Biso   1.000  H
  H120     1.0000 0.28320  0.24050  0.39780  Biso   1.000  H
  H121     1.0000 0.68260  0.40450  0.74760  Biso   1.000  H
  H122     1.0000 0.65770  0.46700  0.70100  Biso   1.000  H
  H123     1.0000 0.74510  0.39440  0.53600  Biso   1.000  H
  H124     1.0000 0.84430  0.32800  0.48270  Biso   1.000  H
  H125     1.0000 0.00250  0.29630  0.61090  Biso   1.000  H
  H126     1.0000 0.90360  0.35630  0.66800  Biso   1.000  H
  H127     1.0000 0.70710  0.57780  0.81130  Biso   1.000  H
  H128     1.0000 0.62930  0.55050  0.76710  Biso   1.000  H
  H129     1.0000 0.68800  0.40070  0.89290  Biso   1.000  H
  H130     1.0000 0.65780  0.31060  0.95600  Biso   1.000  H
  H131     1.0000 0.39890  0.34600  0.94500  Biso   1.000  H
  H132     1.0000 0.42190  0.43920  0.88470  Biso   1.000  H
  H133     1.0000 0.85820  0.56810  0.27340  Biso   1.000  H
  H134     1.0000 0.78280  0.57320  0.32340  Biso   1.000  H
  H135     1.0000 0.02340  0.50800  0.44170  Biso   1.000  H
  H136     1.0000 0.06200  0.40800  0.49540  Biso   1.000  H
  H137     1.0000 0.94730  0.27450  0.38970  Biso   1.000  H
  H138     1.0000 0.90220  0.37090  0.33600  Biso   1.000  H
  H139     1.0000 0.84950  0.47160  0.20990  Biso   1.000  H
  H140     1.0000 0.82220  0.40730  0.25480  Biso   1.000  H
  H141     1.0000 0.60140  0.40830  0.14830  Biso   1.000  H
  H142     1.0000 0.50570  0.36460  0.08240  Biso   1.000  H
  H143     1.0000 0.68500  0.22310  0.03480  Biso   1.000  H
  H144     1.0000 0.78320  0.25950  0.10220  Biso   1.000  H
  H145     1.0000 0.31740  0.90450  0.75240  Biso   1.000  H
  H146     1.0000 0.34230  0.96700  0.79900  Biso   1.000  H
  H147     1.0000 0.25490  0.89440  0.96400  Biso   1.000  H
  H148     1.0000 0.15570  0.82800  0.01730  Biso   1.000  H
  H149     1.0000 0.99750  0.79630  0.88910  Biso   1.000  H
  H150     1.0000 0.09640  0.85630  0.83200  Biso   1.000  H
  H151     1.0000 0.29290  0.07780  0.68870  Biso   1.000  H
  H152     1.0000 0.37070  0.05050  0.73290  Biso   1.000  H
  H153     1.0000 0.31200  0.90070  0.60710  Biso   1.000  H
  H154     1.0000 0.34220  0.81060  0.54400  Biso   1.000  H
  H155     1.0000 0.60110  0.84600  0.55500  Biso   1.000  H
  H156     1.0000 0.57810  0.93920  0.61530  Biso   1.000  H
  H157     1.0000 0.14180  0.06810  0.22660  Biso   1.000  H
  H158     1.0000 0.21720  0.07320  0.17660  Biso   1.000  H
  H159     1.0000 0.97660  0.00800  0.05830  Biso   1.000  H
  H160     1.0000 0.93800  0.90800  0.00460  Biso   1.000  H
  H161     1.0000 0.05270  0.77450  0.11030  Biso   1.000  H
  H162     1.0000 0.09780  0.87090  0.16400  Biso   1.000  H
  H163     1.0000 0.15050  0.97160  0.29010  Biso   1.000  H
  H164     1.0000 0.17780  0.90730  0.24520  Biso   1.000  H
  H165     1.0000 0.39860  0.90830  0.35170  Biso   1.000  H
  H166     1.0000 0.49430  0.86460  0.41760  Biso   1.000  H
  H167     1.0000 0.31500  0.72310  0.46520  Biso   1.000  H
  H168     1.0000 0.21680  0.75950  0.39780  Biso   1.000  H
  H169     1.0000 0.81740  0.59550  0.74760  Biso   1.000  H
  H170     1.0000 0.84230  0.53300  0.70100  Biso   1.000  H
  H171     1.0000 0.75490  0.60560  0.53600  Biso   1.000  H
  H172     1.0000 0.65570  0.67200  0.48270  Biso   1.000  H
  H173     1.0000 0.49750  0.70370  0.61090  Biso   1.000  H
  H174     1.0000 0.59640  0.64370  0.66800  Biso   1.000  H
  H175     1.0000 0.79290  0.42220  0.81130  Biso   1.000  H
  H176     1.0000 0.87070  0.44950  0.76710  Biso   1.000  H
  H177     1.0000 0.81200  0.59930  0.89290  Biso   1.000  H
  H178     1.0000 0.84220  0.68940  0.95600  Biso   1.000  H
  H179     1.0000 0.10110  0.65400  0.94500  Biso   1.000  H
  H180     1.0000 0.07810  0.56080  0.88470  Biso   1.000  H
  H181     1.0000 0.64180  0.43190  0.27340  Biso   1.000  H
  H182     1.0000 0.71720  0.42680  0.32340  Biso   1.000  H
  H183     1.0000 0.47660  0.49200  0.44170  Biso   1.000  H
  H184     1.0000 0.43800  0.59200  0.49540  Biso   1.000  H
  H185     1.0000 0.55270  0.72550  0.38970  Biso   1.000  H
  H186     1.0000 0.59780  0.62910  0.33600  Biso   1.000  H
  H187     1.0000 0.65050  0.52840  0.20990  Biso   1.000  H
  H188     1.0000 0.67780  0.59270  0.25480  Biso   1.000  H
  H189     1.0000 0.89860  0.59170  0.14830  Biso   1.000  H
  H190     1.0000 0.99430  0.63540  0.08240  Biso   1.000  H
  H191     1.0000 0.81500  0.77690  0.03480  Biso   1.000  H
  H192     1.0000 0.71680  0.74050  0.10220  Biso   1.000  H
  C117     1.0000 0.20870  0.05530  0.77670  Biso   1.000  C
  C118     1.0000 0.24970  0.08810  0.86180  Biso   1.000  C
  C119     1.0000 0.31640  0.12200  0.89300  Biso   1.000  C
  C120     1.0000 0.30050  0.12870  0.94660  Biso   1.000  C
  C121     1.0000 0.35690  0.16520  0.97630  Biso   1.000  C
  C122     1.0000 0.44440  0.18360  0.90520  Biso   1.000  C
  C123     1.0000 0.38930  0.14920  0.87290  Biso   1.000  C
  C124     1.0000 0.18150  0.96630  0.70890  Biso   1.000  C
  C125     1.0000 0.07250  0.01770  0.65690  Biso   1.000  C
  C126     1.0000 0.05680  0.07390  0.61790  Biso   1.000  C
  C127     1.0000 0.12330  0.11060  0.59620  Biso   1.000  C
  C128     1.0000 0.10590  0.16100  0.56110  Biso   1.000  C
  C129     1.0000 0.96290  0.14160  0.56650  Biso   1.000  C
  C130     1.0000 0.97540  0.08980  0.60090  Biso   1.000  C
  C131     1.0000 0.31500  0.96140  0.20290  Biso   1.000  C
  C132     1.0000 0.41960  0.99380  0.14300  Biso   1.000  C
  C133     1.0000 0.45380  0.05310  0.11310  Biso   1.000  C
  C134     1.0000 0.50290  0.04300  0.06920  Biso   1.000  C
  C135     1.0000 0.52520  0.09930  0.03970  Biso   1.000  C
  C136     1.0000 0.46100  0.17360  0.09800  Biso   1.000  C
  C137     1.0000 0.43610  0.11970  0.12810  Biso   1.000  C
  C138     1.0000 0.29730  0.05250  0.26990  Biso   1.000  C
  C139     1.0000 0.26600  0.13410  0.33360  Biso   1.000  C
  C140     1.0000 0.20130  0.16090  0.37100  Biso   1.000  C
  C141     1.0000 0.12150  0.13330  0.37660  Biso   1.000  C
  C142     1.0000 0.06770  0.15840  0.41360  Biso   1.000  C
  C143     1.0000 0.16620  0.23630  0.43900  Biso   1.000  C
  C144     1.0000 0.22280  0.21500  0.40220  Biso   1.000  C
  C145     1.0000 0.70870  0.44470  0.72330  Biso   1.000  C
  C146     1.0000 0.74970  0.41190  0.63820  Biso   1.000  C
  C147     1.0000 0.81640  0.37800  0.60700  Biso   1.000  C
  C148     1.0000 0.80050  0.37130  0.55340  Biso   1.000  C
  C149     1.0000 0.85690  0.33480  0.52370  Biso   1.000  C
  C150     1.0000 0.94440  0.31640  0.59480  Biso   1.000  C
  C151     1.0000 0.88930  0.35080  0.62710  Biso   1.000  C
  C152     1.0000 0.68150  0.53370  0.79110  Biso   1.000  C
  C153     1.0000 0.57250  0.48230  0.84310  Biso   1.000  C
  C154     1.0000 0.55680  0.42610  0.88210  Biso   1.000  C
  C155     1.0000 0.62330  0.38940  0.90380  Biso   1.000  C
  C156     1.0000 0.60590  0.33900  0.93890  Biso   1.000  C
  C157     1.0000 0.46290  0.35840  0.93350  Biso   1.000  C
  C158     1.0000 0.47540  0.41020  0.89910  Biso   1.000  C
  C159     1.0000 0.81500  0.53860  0.29710  Biso   1.000  C
  C160     1.0000 0.91960  0.50620  0.35700  Biso   1.000  C
  C161     1.0000 0.95380  0.44690  0.38690  Biso   1.000  C
  C162     1.0000 0.00290  0.45700  0.43080  Biso   1.000  C
  C163     1.0000 0.02520  0.40070  0.46030  Biso   1.000  C
  C164     1.0000 0.96100  0.32640  0.40200  Biso   1.000  C
  C165     1.0000 0.93610  0.38030  0.37190  Biso   1.000  C
  C166     1.0000 0.79730  0.44750  0.23010  Biso   1.000  C
  C167     1.0000 0.76600  0.36590  0.16640  Biso   1.000  C
  C168     1.0000 0.70130  0.33910  0.12900  Biso   1.000  C
  C169     1.0000 0.62150  0.36670  0.12340  Biso   1.000  C
  C170     1.0000 0.56770  0.34160  0.08640  Biso   1.000  C
  C171     1.0000 0.66620  0.26370  0.06100  Biso   1.000  C
  C172     1.0000 0.72280  0.28500  0.09780  Biso   1.000  C
  C173     1.0000 0.29130  0.94470  0.77670  Biso   1.000  C
  C174     1.0000 0.25030  0.91190  0.86180  Biso   1.000  C
  C175     1.0000 0.18360  0.87800  0.89300  Biso   1.000  C
  C176     1.0000 0.19950  0.87130  0.94660  Biso   1.000  C
  C177     1.0000 0.14310  0.83480  0.97630  Biso   1.000  C
  C178     1.0000 0.05560  0.81640  0.90520  Biso   1.000  C
  C179     1.0000 0.11070  0.85080  0.87290  Biso   1.000  C
  C180     1.0000 0.31850  0.03370  0.70890  Biso   1.000  C
  C181     1.0000 0.42750  0.98230  0.65690  Biso   1.000  C
  C182     1.0000 0.44320  0.92610  0.61790  Biso   1.000  C
  C183     1.0000 0.37670  0.88940  0.59620  Biso   1.000  C
  C184     1.0000 0.39410  0.83900  0.56110  Biso   1.000  C
  C185     1.0000 0.53710  0.85840  0.56650  Biso   1.000  C
  C186     1.0000 0.52460  0.91020  0.60090  Biso   1.000  C
  C187     1.0000 0.18500  0.03860  0.20290  Biso   1.000  C
  C188     1.0000 0.08040  0.00620  0.14300  Biso   1.000  C
  C189     1.0000 0.04620  0.94690  0.11310  Biso   1.000  C
  C190     1.0000 0.99710  0.95700  0.06920  Biso   1.000  C
  C191     1.0000 0.97480  0.90070  0.03970  Biso   1.000  C
  C192     1.0000 0.03900  0.82640  0.09800  Biso   1.000  C
  C193     1.0000 0.06390  0.88030  0.12810  Biso   1.000  C
  C194     1.0000 0.20270  0.94750  0.26990  Biso   1.000  C
  C195     1.0000 0.23400  0.86590  0.33360  Biso   1.000  C
  C196     1.0000 0.29870  0.83910  0.37100  Biso   1.000  C
  C197     1.0000 0.37850  0.86670  0.37660  Biso   1.000  C
  C198     1.0000 0.43230  0.84160  0.41360  Biso   1.000  C
  C199     1.0000 0.33380  0.76370  0.43900  Biso   1.000  C
  C200     1.0000 0.27720  0.78500  0.40220  Biso   1.000  C
  C201     1.0000 0.79130  0.55530  0.72330  Biso   1.000  C
  C202     1.0000 0.75030  0.58810  0.63820  Biso   1.000  C
  C203     1.0000 0.68360  0.62200  0.60700  Biso   1.000  C
  C204     1.0000 0.69950  0.62870  0.55340  Biso   1.000  C
  C205     1.0000 0.64310  0.66520  0.52370  Biso   1.000  C
  C206     1.0000 0.55560  0.68360  0.59480  Biso   1.000  C
  C207     1.0000 0.61070  0.64920  0.62710  Biso   1.000  C
  C208     1.0000 0.81850  0.46630  0.79110  Biso   1.000  C
  C209     1.0000 0.92750  0.51770  0.84310  Biso   1.000  C
  C210     1.0000 0.94320  0.57390  0.88210  Biso   1.000  C
  C211     1.0000 0.87670  0.61060  0.90380  Biso   1.000  C
  C212     1.0000 0.89410  0.66100  0.93890  Biso   1.000  C
  C213     1.0000 0.03710  0.64160  0.93350  Biso   1.000  C
  C214     1.0000 0.02460  0.58980  0.89910  Biso   1.000  C
  C215     1.0000 0.68500  0.46140  0.29710  Biso   1.000  C
  C216     1.0000 0.58040  0.49380  0.35700  Biso   1.000  C
  C217     1.0000 0.54620  0.55310  0.38690  Biso   1.000  C
  C218     1.0000 0.49710  0.54300  0.43080  Biso   1.000  C
  C219     1.0000 0.47480  0.59930  0.46030  Biso   1.000  C
  C220     1.0000 0.53900  0.67360  0.40200  Biso   1.000  C
  C221     1.0000 0.56390  0.61970  0.37190  Biso   1.000  C
  C222     1.0000 0.70270  0.55250  0.23010  Biso   1.000  C
  C223     1.0000 0.73400  0.63410  0.16640  Biso   1.000  C
  C224     1.0000 0.79870  0.66090  0.12900  Biso   1.000  C
  C225     1.0000 0.87850  0.63330  0.12340  Biso   1.000  C
  C226     1.0000 0.93230  0.65840  0.08640  Biso   1.000  C
  C227     1.0000 0.83380  0.73630  0.06100  Biso   1.000  C
  C228     1.0000 0.77720  0.71500  0.09780  Biso   1.000  C
  C229     1.0000 0.25000  0.00000  0.74240  Biso   1.000  C
  C230     1.0000 0.25000  0.00000  0.23760  Biso   1.000  C
  C231     1.0000 0.75000  0.50000  0.75760  Biso   1.000  C
  C232     1.0000 0.75000  0.50000  0.26240  Biso   1.000  C
  N17      1.0000 0.42880  0.19310  0.95540  Biso   1.000  N
  N18      1.0000 0.02500  0.17680  0.54680  Biso   1.000  N
  N19      1.0000 0.50190  0.16290  0.05360  Biso   1.000  N
  N20      1.0000 0.08850  0.20940  0.44430  Biso   1.000  N
  N21      1.0000 0.92880  0.30690  0.54460  Biso   1.000  N
  N22      1.0000 0.52500  0.32320  0.95320  Biso   1.000  N
  N23      1.0000 0.00190  0.33710  0.44640  Biso   1.000  N
  N24      1.0000 0.58850  0.29060  0.05570  Biso   1.000  N
  N25      1.0000 0.07120  0.80690  0.95540  Biso   1.000  N
  N26      1.0000 0.47500  0.82320  0.54680  Biso   1.000  N
  N27      1.0000 0.99810  0.83710  0.05360  Biso   1.000  N
  N28      1.0000 0.41150  0.79060  0.44430  Biso   1.000  N
  N29      1.0000 0.57120  0.69310  0.54460  Biso   1.000  N
  N30      1.0000 0.97500  0.67680  0.95320  Biso   1.000  N
  N31      1.0000 0.49810  0.66290  0.44640  Biso   1.000  N
  N32      1.0000 0.91150  0.70940  0.05570  Biso   1.000  N
  O33      1.0000 0.27140  0.08380  0.81120  Biso   1.000  O
  O34      1.0000 0.18450  0.06730  0.87780  Biso   1.000  O
  O35      1.0000 0.15300  0.01730  0.67190  Biso   1.000  O
  O36      1.0000 0.01860  0.98110  0.67340  Biso   1.000  O
  O37      1.0000 0.36000  0.01300  0.17430  Biso   1.000  O
  O38      1.0000 0.44110  0.93610  0.13670  Biso   1.000  O
  O39      1.0000 0.23760  0.08080  0.30690  Biso   1.000  O
  O40      1.0000 0.33460  0.16030  0.32940  Biso   1.000  O
  O41      1.0000 0.77140  0.41620  0.68880  Biso   1.000  O
  O42      1.0000 0.68450  0.43270  0.62220  Biso   1.000  O
  O43      1.0000 0.65300  0.48270  0.82810  Biso   1.000  O
  O44      1.0000 0.51860  0.51890  0.82660  Biso   1.000  O
  O45      1.0000 0.86000  0.48700  0.32570  Biso   1.000  O
  O46      1.0000 0.94110  0.56390  0.36330  Biso   1.000  O
  O47      1.0000 0.73760  0.41920  0.19310  Biso   1.000  O
  O48      1.0000 0.83460  0.33970  0.17060  Biso   1.000  O
  O49      1.0000 0.22860  0.91620  0.81120  Biso   1.000  O
  O50      1.0000 0.31550  0.93270  0.87780  Biso   1.000  O
  O51      1.0000 0.34700  0.98270  0.67190  Biso   1.000  O
  O52      1.0000 0.48140  0.01890  0.67340  Biso   1.000  O
  O53      1.0000 0.14000  0.98700  0.17430  Biso   1.000  O
  O54      1.0000 0.05890  0.06390  0.13670  Biso   1.000  O
  O55      1.0000 0.26240  0.91920  0.30690  Biso   1.000  O
  O56      1.0000 0.16540  0.83970  0.32940  Biso   1.000  O
  O57      1.0000 0.72860  0.58380  0.68880  Biso   1.000  O
  O58      1.0000 0.81550  0.56730  0.62220  Biso   1.000  O
  O59      1.0000 0.84700  0.51730  0.82810  Biso   1.000  O
  O60      1.0000 0.98140  0.48110  0.82660  Biso   1.000  O
  O61      1.0000 0.64000  0.51300  0.32570  Biso   1.000  O
  O62      1.0000 0.55890  0.43610  0.36330  Biso   1.000  O
  O63      1.0000 0.76240  0.58080  0.19310  Biso   1.000  O
  O64      1.0000 0.66540  0.66030  0.17060  Biso   1.000  O
