data_image0
_cell_length_a       11.1345
_cell_length_b       11.1659
_cell_length_c       12.6916
_cell_angle_alpha    88.067
_cell_angle_beta     88.907
_cell_angle_gamma    65.226

_symmetry_space_group_name_H-M    "P 1"
_symmetry_int_tables_number       1

loop_
  _symmetry_equiv_pos_as_xyz
  'x, y, z'

loop_
  _atom_site_label
  _atom_site_occupancy
  _atom_site_fract_x
  _atom_site_fract_y
  _atom_site_fract_z
  _atom_site_thermal_displace_type
  _atom_site_B_iso_or_equiv
  _atom_site_type_symbol
  Cd1      1.0000 0.29268  0.76106  0.82459  Biso   1.000  Cd
  O1       1.0000 0.08170  0.76310  0.88260  Biso   1.000  O
  O2       1.0000 0.24550  0.57160  0.84440  Biso   1.000  O
  N1       1.0000 0.22860  0.79850  0.64860  Biso   1.000  N
  N2       1.0000 0.13310  0.81940  0.49420  Biso   1.000  N
  N3       1.0000 0.30610  0.73400  0.17390  Biso   1.000  N
  N4       1.0000 0.93410  0.81300  0.21150  Biso   1.000  N
  N5       1.0000 0.31310  0.46820  0.30070  Biso   1.000  N
  N6       1.0000 0.49340  0.31920  0.22890  Biso   1.000  N
  N7       1.0000 0.78950  0.01230  0.16230  Biso   1.000  N
  N8       1.0000 0.34600  0.72590  0.00230  Biso   1.000  N
  C1       1.0000 0.15850  0.75600  0.58970  Biso   1.000  C
  H1       1.0000 0.13050  0.69130  0.61090  Biso   1.000  H
  C2       1.0000 0.24820  0.89390  0.58810  Biso   1.000  C
  H2       1.0000 0.29530  0.94070  0.60920  Biso   1.000  H
  C3       1.0000 0.18890  0.90910  0.49400  Biso   1.000  C
  H3       1.0000 0.18600  0.96820  0.43960  Biso   1.000  H
  C4       1.0000 0.06000  0.79700  0.40750  Biso   1.000  C
  H4       1.0000 0.00160  0.88190  0.37680  Biso   1.000  H
  H5       1.0000 0.00530  0.75530  0.43620  Biso   1.000  H
  C5       1.0000 0.14900  0.71000  0.31840  Biso   1.000  C
  C6       1.0000 0.23030  0.57380  0.37140  Biso   1.000  C
  H6       1.0000 0.28730  0.58440  0.42370  Biso   1.000  H
  H7       1.0000 0.16960  0.54520  0.40850  Biso   1.000  H
  C7       1.0000 0.27320  0.39860  0.23220  Biso   1.000  C
  H8       1.0000 0.18670  0.41120  0.21910  Biso   1.000  H
  C8       1.0000 0.05720  0.69500  0.23520  Biso   1.000  C
  H9       1.0000 0.10700  0.66700  0.17010  Biso   1.000  H
  H10      1.0000 0.03300  0.64500  0.25900  Biso   1.000  H
  C9       1.0000 0.81050  0.81360  0.22010  Biso   1.000  C
  H11      1.0000 0.79100  0.74360  0.24290  Biso   1.000  H
  C10      1.0000 0.23650  0.77900  0.27490  Biso   1.000  C
  H12      1.0000 0.18070  0.87270  0.26710  Biso   1.000  H
  H13      1.0000 0.30220  0.76840  0.32770  Biso   1.000  H
  C11      1.0000 0.25490  0.77220  0.07670  Biso   1.000  C
  H14      1.0000 0.16610  0.82500  0.06360  Biso   1.000  H
  C12      1.0000 0.46280  0.65620  0.05540  Biso   1.000  C
  H15      1.0000 0.54510  0.61220  0.02380  Biso   1.000  H
  C13      1.0000 0.43920  0.66160  0.16050  Biso   1.000  C
  H16      1.0000 0.50140  0.62340  0.21350  Biso   1.000  H
  C14      1.0000 0.91620  0.93520  0.17750  Biso   1.000  C
  H17      1.0000 0.98430  0.96170  0.16630  Biso   1.000  H
  C15      1.0000 0.72300  0.93540  0.18920  Biso   1.000  C
  H18      1.0000 0.63180  0.96330  0.18630  Biso   1.000  H
  C16      1.0000 0.38490  0.30800  0.18760  Biso   1.000  C
  H19      1.0000 0.38780  0.24800  0.13740  Biso   1.000  H
  C17      1.0000 0.44640  0.41500  0.29700  Biso   1.000  C
  H20      1.0000 0.49860  0.44240  0.33730  Biso   1.000  H
  C18      1.0000 0.13440  0.63800  0.88490  Biso   1.000  C
  C19      1.0000 0.06370  0.56570  0.94290  Biso   1.000  C
  C20      1.0000 0.93610  0.63480  0.98290  Biso   1.000  C
  H21      1.0000 0.89330  0.72570  0.97180  Biso   1.000  H
  C21      1.0000 0.12700  0.43050  0.96120  Biso   1.000  C
  H22      1.0000 0.21240  0.38360  0.93570  Biso   1.000  H
  Cd2      1.0000 0.70732  0.23894  0.17541  Biso   1.000  Cd
  O3       1.0000 0.91830  0.23690  0.11740  Biso   1.000  O
  O4       1.0000 0.75450  0.42840  0.15560  Biso   1.000  O
  N9       1.0000 0.77140  0.20150  0.35140  Biso   1.000  N
  N10      1.0000 0.86690  0.18060  0.50580  Biso   1.000  N
  N11      1.0000 0.69390  0.26600  0.82610  Biso   1.000  N
  N12      1.0000 0.06590  0.18700  0.78850  Biso   1.000  N
  N13      1.0000 0.68690  0.53180  0.69930  Biso   1.000  N
  N14      1.0000 0.50660  0.68080  0.77110  Biso   1.000  N
  N15      1.0000 0.21050  0.98770  0.83770  Biso   1.000  N
  N16      1.0000 0.65400  0.27410  0.99770  Biso   1.000  N
  C22      1.0000 0.84150  0.24400  0.41030  Biso   1.000  C
  H23      1.0000 0.86950  0.30870  0.38910  Biso   1.000  H
  C23      1.0000 0.75180  0.10610  0.41190  Biso   1.000  C
  H24      1.0000 0.70470  0.05930  0.39080  Biso   1.000  H
  C24      1.0000 0.81110  0.09090  0.50600  Biso   1.000  C
  H25      1.0000 0.81400  0.03180  0.56040  Biso   1.000  H
  C25      1.0000 0.94000  0.20300  0.59250  Biso   1.000  C
  H26      1.0000 0.99840  0.11810  0.62320  Biso   1.000  H
  H27      1.0000 0.99470  0.24470  0.56380  Biso   1.000  H
  C26      1.0000 0.85100  0.29000  0.68160  Biso   1.000  C
  C27      1.0000 0.76970  0.42620  0.62860  Biso   1.000  C
  H28      1.0000 0.71270  0.41560  0.57630  Biso   1.000  H
  H29      1.0000 0.83040  0.45480  0.59150  Biso   1.000  H
  C28      1.0000 0.72680  0.60140  0.76780  Biso   1.000  C
  H30      1.0000 0.81330  0.58880  0.78090  Biso   1.000  H
  C29      1.0000 0.94280  0.30500  0.76480  Biso   1.000  C
  H31      1.0000 0.89300  0.33300  0.82990  Biso   1.000  H
  H32      1.0000 0.96700  0.35500  0.74100  Biso   1.000  H
  C30      1.0000 0.18950  0.18640  0.77990  Biso   1.000  C
  H33      1.0000 0.20900  0.25640  0.75710  Biso   1.000  H
  C31      1.0000 0.76350  0.22100  0.72510  Biso   1.000  C
  H34      1.0000 0.81930  0.12730  0.73290  Biso   1.000  H
  H35      1.0000 0.69780  0.23160  0.67230  Biso   1.000  H
  C32      1.0000 0.74510  0.22780  0.92330  Biso   1.000  C
  H36      1.0000 0.83390  0.17500  0.93640  Biso   1.000  H
  C33      1.0000 0.53720  0.34380  0.94460  Biso   1.000  C
  H37      1.0000 0.45490  0.38780  0.97620  Biso   1.000  H
  C34      1.0000 0.56080  0.33840  0.83950  Biso   1.000  C
  H38      1.0000 0.49860  0.37660  0.78650  Biso   1.000  H
  C35      1.0000 0.08380  0.06480  0.82250  Biso   1.000  C
  H39      1.0000 0.01570  0.03830  0.83370  Biso   1.000  H
  C36      1.0000 0.27700  0.06460  0.81080  Biso   1.000  C
  H40      1.0000 0.36820  0.03670  0.81370  Biso   1.000  H
  C37      1.0000 0.61510  0.69200  0.81240  Biso   1.000  C
  H41      1.0000 0.61220  0.75200  0.86260  Biso   1.000  H
  C38      1.0000 0.55360  0.58500  0.70300  Biso   1.000  C
  H42      1.0000 0.50140  0.55760  0.66270  Biso   1.000  H
  C39      1.0000 0.86560  0.36200  0.11510  Biso   1.000  C
  C40      1.0000 0.93630  0.43430  0.05710  Biso   1.000  C
  C41      1.0000 0.06390  0.36520  0.01710  Biso   1.000  C
  H43      1.0000 0.10670  0.27430  0.02820  Biso   1.000  H
  C42      1.0000 0.87300  0.56950  0.03880  Biso   1.000  C
  H44      1.0000 0.78760  0.61640  0.06430  Biso   1.000  H
