data_image0
_cell_length_a       12.1246
_cell_length_b       12.2087
_cell_length_c       12.4991
_cell_angle_alpha    90
_cell_angle_beta     91.394
_cell_angle_gamma    90

_symmetry_space_group_name_H-M    "P 1"
_symmetry_int_tables_number       1

loop_
  _symmetry_equiv_pos_as_xyz
  'x, y, z'

loop_
  _atom_site_label
  _atom_site_occupancy
  _atom_site_fract_x
  _atom_site_fract_y
  _atom_site_fract_z
  _atom_site_thermal_displace_type
  _atom_site_B_iso_or_equiv
  _atom_site_type_symbol
  Mg1      1.0000 0.25858  0.24887  0.99422  Biso   1.000  Mg
  Mg2      1.0000 0.75857  0.25082  0.99518  Biso   1.000  Mg
  O1       1.0000 0.91933  0.19522  0.02680  Biso   1.000  O
  O2       1.0000 0.41881  0.29986  0.98601  Biso   1.000  O
  O3       1.0000 0.20258  0.40913  0.98351  Biso   1.000  O
  O4       1.0000 0.31446  0.08904  0.00123  Biso   1.000  O
  O5       1.0000 0.28581  0.26378  0.15881  Biso   1.000  O
  O6       1.0000 0.10070  0.19345  0.02080  Biso   1.000  O
  O7       1.0000 0.73514  0.24065  0.15742  Biso   1.000  O
  O8       1.0000 0.59906  0.30154  0.97151  Biso   1.000  O
  O9       1.0000 0.28891  0.25709  0.33416  Biso   1.000  O
  O10      1.0000 0.19079  0.58928  0.99070  Biso   1.000  O
  O11      1.0000 0.29248  0.91095  0.01761  Biso   1.000  O
  O12      1.0000 0.72880  0.25011  0.33198  Biso   1.000  O
  C1       1.0000 0.00940  0.22560  0.99120  Biso   1.000  C
  H1       1.0000 0.00710  0.27770  0.93690  Biso   1.000  H
  C2       1.0000 0.75590  0.28250  0.24360  Biso   1.000  C
  H2       1.0000 0.79720  0.34670  0.24250  Biso   1.000  H
  C3       1.0000 0.27320  0.99920  0.97610  Biso   1.000  C
  H3       1.0000 0.22220  0.99940  0.91940  Biso   1.000  H
  C4       1.0000 0.23270  0.50100  0.01640  Biso   1.000  C
  H4       1.0000 0.29230  0.50310  0.06470  Biso   1.000  H
  C5       1.0000 0.25620  0.22700  0.24540  Biso   1.000  C
  H5       1.0000 0.20400  0.17120  0.24310  Biso   1.000  H
  C6       1.0000 0.50660  0.26250  0.95930  Biso   1.000  C
  H6       1.0000 0.50320  0.19500  0.92500  Biso   1.000  H
  Mg3      1.0000 0.24142  0.74887  0.50578  Biso   1.000  Mg
  Mg4      1.0000 0.74143  0.75082  0.50482  Biso   1.000  Mg
  O13      1.0000 0.58067  0.69522  0.47320  Biso   1.000  O
  O14      1.0000 0.08119  0.79986  0.51399  Biso   1.000  O
  O15      1.0000 0.29742  0.90913  0.51649  Biso   1.000  O
  O16      1.0000 0.18554  0.58904  0.49877  Biso   1.000  O
  O17      1.0000 0.21419  0.76378  0.34119  Biso   1.000  O
  O18      1.0000 0.39930  0.69345  0.47920  Biso   1.000  O
  O19      1.0000 0.76486  0.74065  0.34258  Biso   1.000  O
  O20      1.0000 0.90094  0.80154  0.52849  Biso   1.000  O
  O21      1.0000 0.21109  0.75709  0.16584  Biso   1.000  O
  O22      1.0000 0.30921  0.08928  0.50930  Biso   1.000  O
  O23      1.0000 0.20752  0.41095  0.48239  Biso   1.000  O
  O24      1.0000 0.77120  0.75011  0.16802  Biso   1.000  O
  C7       1.0000 0.49060  0.72560  0.50880  Biso   1.000  C
  H7       1.0000 0.49290  0.77770  0.56310  Biso   1.000  H
  C8       1.0000 0.74410  0.78250  0.25640  Biso   1.000  C
  H8       1.0000 0.70280  0.84670  0.25750  Biso   1.000  H
  C9       1.0000 0.22680  0.49920  0.52390  Biso   1.000  C
  H9       1.0000 0.27780  0.49940  0.58060  Biso   1.000  H
  C10      1.0000 0.26730  0.00100  0.48360  Biso   1.000  C
  H10      1.0000 0.20770  0.00310  0.43530  Biso   1.000  H
  C11      1.0000 0.24380  0.72700  0.25460  Biso   1.000  C
  H11      1.0000 0.29600  0.67120  0.25690  Biso   1.000  H
  C12      1.0000 0.99340  0.76250  0.54070  Biso   1.000  C
  H12      1.0000 0.99680  0.69500  0.57500  Biso   1.000  H
  Mg5      1.0000 0.74142  0.75113  0.00578  Biso   1.000  Mg
  Mg6      1.0000 0.24143  0.74918  0.00482  Biso   1.000  Mg
  O25      1.0000 0.08067  0.80478  0.97320  Biso   1.000  O
  O26      1.0000 0.58119  0.70014  0.01399  Biso   1.000  O
  O27      1.0000 0.79742  0.59087  0.01649  Biso   1.000  O
  O28      1.0000 0.68554  0.91096  0.99877  Biso   1.000  O
  O29      1.0000 0.71419  0.73622  0.84119  Biso   1.000  O
  O30      1.0000 0.89930  0.80655  0.97920  Biso   1.000  O
  O31      1.0000 0.26486  0.75935  0.84258  Biso   1.000  O
  O32      1.0000 0.40094  0.69846  0.02849  Biso   1.000  O
  O33      1.0000 0.71109  0.74291  0.66584  Biso   1.000  O
  O34      1.0000 0.80921  0.41072  0.00930  Biso   1.000  O
  O35      1.0000 0.70752  0.08905  0.98239  Biso   1.000  O
  O36      1.0000 0.27120  0.74989  0.66802  Biso   1.000  O
  C13      1.0000 0.99060  0.77440  0.00880  Biso   1.000  C
  H13      1.0000 0.99290  0.72230  0.06310  Biso   1.000  H
  C14      1.0000 0.24410  0.71750  0.75640  Biso   1.000  C
  H14      1.0000 0.20280  0.65330  0.75750  Biso   1.000  H
  C15      1.0000 0.72680  0.00080  0.02390  Biso   1.000  C
  H15      1.0000 0.77780  0.00060  0.08060  Biso   1.000  H
  C16      1.0000 0.76730  0.49900  0.98360  Biso   1.000  C
  H16      1.0000 0.70770  0.49690  0.93530  Biso   1.000  H
  C17      1.0000 0.74380  0.77300  0.75460  Biso   1.000  C
  H17      1.0000 0.79600  0.82880  0.75690  Biso   1.000  H
  C18      1.0000 0.49340  0.73750  0.04070  Biso   1.000  C
  H18      1.0000 0.49680  0.80500  0.07500  Biso   1.000  H
  Mg7      1.0000 0.75858  0.25113  0.49422  Biso   1.000  Mg
  Mg8      1.0000 0.25857  0.24918  0.49518  Biso   1.000  Mg
  O37      1.0000 0.41933  0.30478  0.52680  Biso   1.000  O
  O38      1.0000 0.91881  0.20014  0.48601  Biso   1.000  O
  O39      1.0000 0.70258  0.09087  0.48351  Biso   1.000  O
  O40      1.0000 0.81446  0.41096  0.50123  Biso   1.000  O
  O41      1.0000 0.78581  0.23622  0.65881  Biso   1.000  O
  O42      1.0000 0.60070  0.30655  0.52080  Biso   1.000  O
  O43      1.0000 0.23514  0.25935  0.65742  Biso   1.000  O
  O44      1.0000 0.09906  0.19846  0.47151  Biso   1.000  O
  O45      1.0000 0.78891  0.24291  0.83416  Biso   1.000  O
  O46      1.0000 0.69079  0.91072  0.49070  Biso   1.000  O
  O47      1.0000 0.79248  0.58905  0.51761  Biso   1.000  O
  O48      1.0000 0.22880  0.24989  0.83198  Biso   1.000  O
  C19      1.0000 0.50940  0.27440  0.49120  Biso   1.000  C
  H19      1.0000 0.50710  0.22230  0.43690  Biso   1.000  H
  C20      1.0000 0.25590  0.21750  0.74360  Biso   1.000  C
  H20      1.0000 0.29720  0.15330  0.74250  Biso   1.000  H
  C21      1.0000 0.77320  0.50080  0.47610  Biso   1.000  C
  H21      1.0000 0.72220  0.50060  0.41940  Biso   1.000  H
  C22      1.0000 0.73270  0.99900  0.51640  Biso   1.000  C
  H22      1.0000 0.79230  0.99690  0.56470  Biso   1.000  H
  C23      1.0000 0.75620  0.27300  0.74540  Biso   1.000  C
  H23      1.0000 0.70400  0.32880  0.74310  Biso   1.000  H
  C24      1.0000 0.00660  0.23750  0.45930  Biso   1.000  C
  H24      1.0000 0.00320  0.30500  0.42500  Biso   1.000  H
