data_image0
_cell_length_a       8.9427
_cell_length_b       10.288
_cell_length_c       10.288
_cell_angle_alpha    120
_cell_angle_beta     90
_cell_angle_gamma    90

_symmetry_space_group_name_H-M    P 1
_symmetry_int_tables_number       1

loop_
  _symmetry_equiv_pos_as_xyz
  'x, y, z'

loop_
  _atom_site_label
  _atom_site_occupancy
  _atom_site_fract_x
  _atom_site_fract_y
  _atom_site_fract_z
  _atom_site_thermal_displace_type
  _atom_site_B_iso_or_equiv
  _atom_site_type_symbol
  Ce1      1.0000 0.95012  0.33333  0.66666  Biso   1.000  Ce
  Ce2      1.0000 0.04988  0.66667  0.33334  Biso   1.000  Ce
  H1       1.0000 0.56240  0.47990  0.11510  Biso   1.000  H
  H2       1.0000 0.72070  0.62980  0.05890  Biso   1.000  H
  H3       1.0000 0.56240  0.63520  0.52010  Biso   1.000  H
  H4       1.0000 0.72070  0.42910  0.37020  Biso   1.000  H
  H5       1.0000 0.56240  0.88490  0.36480  Biso   1.000  H
  H6       1.0000 0.72070  0.94110  0.57090  Biso   1.000  H
  H7       1.0000 0.43760  0.52010  0.88490  Biso   1.000  H
  H8       1.0000 0.27930  0.37020  0.94110  Biso   1.000  H
  H9       1.0000 0.43760  0.36480  0.47990  Biso   1.000  H
  H10      1.0000 0.27930  0.57090  0.62980  Biso   1.000  H
  H11      1.0000 0.43760  0.11510  0.63520  Biso   1.000  H
  H12      1.0000 0.27930  0.05890  0.42910  Biso   1.000  H
  C1       1.0000 0.84380  0.44550  0.02530  Biso   1.000  C
  C2       1.0000 0.56660  0.46190  0.01220  Biso   1.000  C
  C3       1.0000 0.71560  0.52100  0.99110  Biso   1.000  C
  C4       1.0000 0.84380  0.57980  0.55450  Biso   1.000  C
  C5       1.0000 0.56660  0.55030  0.53810  Biso   1.000  C
  C6       1.0000 0.71560  0.47010  0.47900  Biso   1.000  C
  C7       1.0000 0.84380  0.97470  0.42020  Biso   1.000  C
  C8       1.0000 0.56660  0.98780  0.44970  Biso   1.000  C
  C9       1.0000 0.71560  0.00890  0.52990  Biso   1.000  C
  C10      1.0000 0.15620  0.55450  0.97470  Biso   1.000  C
  C11      1.0000 0.43340  0.53810  0.98780  Biso   1.000  C
  C12      1.0000 0.28440  0.47900  0.00890  Biso   1.000  C
  C13      1.0000 0.15620  0.42020  0.44550  Biso   1.000  C
  C14      1.0000 0.43340  0.44970  0.46190  Biso   1.000  C
  C15      1.0000 0.28440  0.52990  0.52100  Biso   1.000  C
  C16      1.0000 0.15620  0.02530  0.57980  Biso   1.000  C
  C17      1.0000 0.43340  0.01220  0.55030  Biso   1.000  C
  C18      1.0000 0.28440  0.99110  0.47010  Biso   1.000  C
  O1       1.0000 0.55910  0.30350  0.91110  Biso   1.000  O
  O2       1.0000 0.92180  0.35090  0.91720  Biso   1.000  O
  O3       1.0000 0.86290  0.48130  0.15950  Biso   1.000  O
  O4       1.0000 0.73460  0.48800  0.83900  Biso   1.000  O
  O5       1.0000 0.55910  0.60760  0.69650  Biso   1.000  O
  O6       1.0000 0.92180  0.56630  0.64910  Biso   1.000  O
  O7       1.0000 0.86290  0.67820  0.51870  Biso   1.000  O
  O8       1.0000 0.73460  0.35100  0.51200  Biso   1.000  O
  O9       1.0000 0.55910  0.08890  0.39240  Biso   1.000  O
  O10      1.0000 0.92180  0.08280  0.43370  Biso   1.000  O
  O11      1.0000 0.86290  0.84050  0.32180  Biso   1.000  O
  O12      1.0000 0.73460  0.16100  0.64900  Biso   1.000  O
  O13      1.0000 0.44090  0.69650  0.08890  Biso   1.000  O
  O14      1.0000 0.07820  0.64910  0.08280  Biso   1.000  O
  O15      1.0000 0.13710  0.51870  0.84050  Biso   1.000  O
  O16      1.0000 0.26540  0.51200  0.16100  Biso   1.000  O
  O17      1.0000 0.44090  0.39240  0.30350  Biso   1.000  O
  O18      1.0000 0.07820  0.43370  0.35090  Biso   1.000  O
  O19      1.0000 0.13710  0.32180  0.48130  Biso   1.000  O
  O20      1.0000 0.26540  0.64900  0.48800  Biso   1.000  O
  O21      1.0000 0.44090  0.91110  0.60760  Biso   1.000  O
  O22      1.0000 0.07820  0.91720  0.56630  Biso   1.000  O
  O23      1.0000 0.13710  0.15950  0.67820  Biso   1.000  O
  O24      1.0000 0.26540  0.83900  0.35100  Biso   1.000  O
