data_image0
_cell_length_a       8.9709
_cell_length_b       10.3426
_cell_length_c       10.3426
_cell_angle_alpha    120
_cell_angle_beta     90
_cell_angle_gamma    90

_symmetry_space_group_name_H-M    P 1
_symmetry_int_tables_number       1

loop_
  _symmetry_equiv_pos_as_xyz
  'x, y, z'

loop_
  _atom_site_label
  _atom_site_occupancy
  _atom_site_fract_x
  _atom_site_fract_y
  _atom_site_fract_z
  _atom_site_thermal_displace_type
  _atom_site_B_iso_or_equiv
  _atom_site_type_symbol
  La1      1.0000 0.95064  0.33333  0.66666  Biso   1.000  La
  La2      1.0000 0.04936  0.66667  0.33334  Biso   1.000  La
  H1       1.0000 0.56330  0.47920  0.36500  Biso   1.000  H
  H2       1.0000 0.71990  0.62850  0.56980  Biso   1.000  H
  H3       1.0000 0.56330  0.88580  0.52080  Biso   1.000  H
  H4       1.0000 0.71990  0.94130  0.37150  Biso   1.000  H
  H5       1.0000 0.56330  0.63500  0.11420  Biso   1.000  H
  H6       1.0000 0.71990  0.43020  0.05870  Biso   1.000  H
  H7       1.0000 0.43670  0.52080  0.63500  Biso   1.000  H
  H8       1.0000 0.28010  0.37150  0.43020  Biso   1.000  H
  H9       1.0000 0.43670  0.11420  0.47920  Biso   1.000  H
  H10      1.0000 0.28010  0.05870  0.62850  Biso   1.000  H
  H11      1.0000 0.43670  0.36500  0.88580  Biso   1.000  H
  H12      1.0000 0.28010  0.56980  0.94130  Biso   1.000  H
  C1       1.0000 0.56720  0.46170  0.44970  Biso   1.000  C
  C2       1.0000 0.84270  0.44520  0.42010  Biso   1.000  C
  C3       1.0000 0.71490  0.52040  0.52960  Biso   1.000  C
  C4       1.0000 0.56720  0.98800  0.53830  Biso   1.000  C
  C5       1.0000 0.84270  0.97490  0.55480  Biso   1.000  C
  C6       1.0000 0.71490  0.00920  0.47960  Biso   1.000  C
  C7       1.0000 0.56720  0.55030  0.01200  Biso   1.000  C
  C8       1.0000 0.84270  0.57990  0.02510  Biso   1.000  C
  C9       1.0000 0.71490  0.47040  0.99080  Biso   1.000  C
  C10      1.0000 0.43280  0.53830  0.55030  Biso   1.000  C
  C11      1.0000 0.15730  0.55480  0.57990  Biso   1.000  C
  C12      1.0000 0.28510  0.47960  0.47040  Biso   1.000  C
  C13      1.0000 0.43280  0.01200  0.46170  Biso   1.000  C
  C14      1.0000 0.15730  0.02510  0.44520  Biso   1.000  C
  C15      1.0000 0.28510  0.99080  0.52040  Biso   1.000  C
  C16      1.0000 0.43280  0.44970  0.98800  Biso   1.000  C
  C17      1.0000 0.15730  0.42010  0.97490  Biso   1.000  C
  C18      1.0000 0.28510  0.52960  0.00920  Biso   1.000  C
  O1       1.0000 0.55870  0.30380  0.39320  Biso   1.000  O
  O2       1.0000 0.92050  0.35140  0.43360  Biso   1.000  O
  O3       1.0000 0.86160  0.48040  0.32170  Biso   1.000  O
  O4       1.0000 0.73400  0.48870  0.64890  Biso   1.000  O
  O5       1.0000 0.55870  0.08940  0.69620  Biso   1.000  O
  O6       1.0000 0.92050  0.08220  0.64860  Biso   1.000  O
  O7       1.0000 0.86160  0.84130  0.51960  Biso   1.000  O
  O8       1.0000 0.73400  0.16020  0.51130  Biso   1.000  O
  O9       1.0000 0.55870  0.60680  0.91060  Biso   1.000  O
  O10      1.0000 0.92050  0.56640  0.91780  Biso   1.000  O
  O11      1.0000 0.86160  0.67830  0.15870  Biso   1.000  O
  O12      1.0000 0.73400  0.35110  0.83980  Biso   1.000  O
  O13      1.0000 0.44130  0.69620  0.60680  Biso   1.000  O
  O14      1.0000 0.07950  0.64860  0.56640  Biso   1.000  O
  O15      1.0000 0.13840  0.51960  0.67830  Biso   1.000  O
  O16      1.0000 0.26600  0.51130  0.35110  Biso   1.000  O
  O17      1.0000 0.44130  0.91060  0.30380  Biso   1.000  O
  O18      1.0000 0.07950  0.91780  0.35140  Biso   1.000  O
  O19      1.0000 0.13840  0.15870  0.48040  Biso   1.000  O
  O20      1.0000 0.26600  0.83980  0.48870  Biso   1.000  O
  O21      1.0000 0.44130  0.39320  0.08940  Biso   1.000  O
  O22      1.0000 0.07950  0.43360  0.08220  Biso   1.000  O
  O23      1.0000 0.13840  0.32170  0.84130  Biso   1.000  O
  O24      1.0000 0.26600  0.64890  0.16020  Biso   1.000  O
