data_image0
_cell_length_a       8.9021
_cell_length_b       10.2151
_cell_length_c       10.2151
_cell_angle_alpha    120
_cell_angle_beta     90
_cell_angle_gamma    90

_symmetry_space_group_name_H-M    P 1
_symmetry_int_tables_number       1

loop_
  _symmetry_equiv_pos_as_xyz
  'x, y, z'

loop_
  _atom_site_label
  _atom_site_occupancy
  _atom_site_fract_x
  _atom_site_fract_y
  _atom_site_fract_z
  _atom_site_thermal_displace_type
  _atom_site_B_iso_or_equiv
  _atom_site_type_symbol
  Nd1      1.0000 0.94886  0.33333  0.66666  Biso   1.000  Nd
  Nd2      1.0000 0.05114  0.66667  0.33334  Biso   1.000  Nd
  H1       1.0000 0.56290  0.48130  0.11680  Biso   1.000  H
  H2       1.0000 0.72200  0.63140  0.06020  Biso   1.000  H
  H3       1.0000 0.56290  0.63550  0.51870  Biso   1.000  H
  H4       1.0000 0.72200  0.42880  0.36860  Biso   1.000  H
  H5       1.0000 0.56290  0.88320  0.36450  Biso   1.000  H
  H6       1.0000 0.72200  0.93980  0.57120  Biso   1.000  H
  H7       1.0000 0.43710  0.51870  0.88320  Biso   1.000  H
  H8       1.0000 0.27800  0.36860  0.93980  Biso   1.000  H
  H9       1.0000 0.43710  0.36450  0.48130  Biso   1.000  H
  H10      1.0000 0.27800  0.57120  0.63140  Biso   1.000  H
  H11      1.0000 0.43710  0.11680  0.63550  Biso   1.000  H
  H12      1.0000 0.27800  0.06020  0.42880  Biso   1.000  H
  C1       1.0000 0.84500  0.44570  0.02530  Biso   1.000  C
  C2       1.0000 0.56740  0.46240  0.01290  Biso   1.000  C
  C3       1.0000 0.71680  0.52180  0.99160  Biso   1.000  C
  C4       1.0000 0.84500  0.57960  0.55430  Biso   1.000  C
  C5       1.0000 0.56740  0.55050  0.53760  Biso   1.000  C
  C6       1.0000 0.71680  0.46980  0.47820  Biso   1.000  C
  C7       1.0000 0.84500  0.97470  0.42040  Biso   1.000  C
  C8       1.0000 0.56740  0.98710  0.44950  Biso   1.000  C
  C9       1.0000 0.71680  0.00840  0.53020  Biso   1.000  C
  C10      1.0000 0.15500  0.55430  0.97470  Biso   1.000  C
  C11      1.0000 0.43260  0.53760  0.98710  Biso   1.000  C
  C12      1.0000 0.28320  0.47820  0.00840  Biso   1.000  C
  C13      1.0000 0.15500  0.42040  0.44570  Biso   1.000  C
  C14      1.0000 0.43260  0.44950  0.46240  Biso   1.000  C
  C15      1.0000 0.28320  0.53020  0.52180  Biso   1.000  C
  C16      1.0000 0.15500  0.02530  0.57960  Biso   1.000  C
  C17      1.0000 0.43260  0.01290  0.55050  Biso   1.000  C
  C18      1.0000 0.28320  0.99160  0.46980  Biso   1.000  C
  O1       1.0000 0.55920  0.30260  0.91220  Biso   1.000  O
  O2       1.0000 0.92360  0.35000  0.91600  Biso   1.000  O
  O3       1.0000 0.86460  0.48250  0.16090  Biso   1.000  O
  O4       1.0000 0.73670  0.48880  0.83840  Biso   1.000  O
  O5       1.0000 0.55920  0.60960  0.69740  Biso   1.000  O
  O6       1.0000 0.92360  0.56600  0.65000  Biso   1.000  O
  O7       1.0000 0.86460  0.67840  0.51750  Biso   1.000  O
  O8       1.0000 0.73670  0.34960  0.51120  Biso   1.000  O
  O9       1.0000 0.55920  0.08780  0.39040  Biso   1.000  O
  O10      1.0000 0.92360  0.08400  0.43400  Biso   1.000  O
  O11      1.0000 0.86460  0.83910  0.32160  Biso   1.000  O
  O12      1.0000 0.73670  0.16160  0.65040  Biso   1.000  O
  O13      1.0000 0.44080  0.69740  0.08780  Biso   1.000  O
  O14      1.0000 0.07640  0.65000  0.08400  Biso   1.000  O
  O15      1.0000 0.13540  0.51750  0.83910  Biso   1.000  O
  O16      1.0000 0.26330  0.51120  0.16160  Biso   1.000  O
  O17      1.0000 0.44080  0.39040  0.30260  Biso   1.000  O
  O18      1.0000 0.07640  0.43400  0.35000  Biso   1.000  O
  O19      1.0000 0.13540  0.32160  0.48250  Biso   1.000  O
  O20      1.0000 0.26330  0.65040  0.48880  Biso   1.000  O
  O21      1.0000 0.44080  0.91220  0.60960  Biso   1.000  O
  O22      1.0000 0.07640  0.91600  0.56600  Biso   1.000  O
  O23      1.0000 0.13540  0.16090  0.67840  Biso   1.000  O
  O24      1.0000 0.26330  0.83840  0.34960  Biso   1.000  O
