data_image0
_cell_length_a       9.113
_cell_length_b       15.904
_cell_length_c       16.014
_cell_angle_alpha    73.488
_cell_angle_beta     74.016
_cell_angle_gamma    76.264

_symmetry_space_group_name_H-M    "P 1"
_symmetry_int_tables_number       1

loop_
  _symmetry_equiv_pos_as_xyz
  'x, y, z'

loop_
  _atom_site_label
  _atom_site_occupancy
  _atom_site_fract_x
  _atom_site_fract_y
  _atom_site_fract_z
  _atom_site_thermal_displace_type
  _atom_site_B_iso_or_equiv
  _atom_site_type_symbol
  N1       1.0000 0.78940  0.82980  0.48790  Biso   1.000  N
  N2       1.0000 0.71940  0.91780  0.47290  Biso   1.000  N
  N3       1.0000 0.97410  0.91590  0.41430  Biso   1.000  N
  N4       1.0000 0.64660  0.09580  0.43350  Biso   1.000  N
  N5       1.0000 0.30780  0.61140  0.47570  Biso   1.000  N
  N6       1.0000 0.18120  0.01800  0.13500  Biso   1.000  N
  N7       1.0000 0.16860  0.98930  0.06560  Biso   1.000  N
  N8       1.0000 0.39480  0.91800  0.09790  Biso   1.000  N
  N9       1.0000 0.19100  0.91410  0.93400  Biso   1.000  N
  N10      1.0000 0.46190  0.99680  0.37360  Biso   1.000  N
  N11      1.0000 0.71850  0.63280  0.35660  Biso   1.000  N
  N12      1.0000 0.63700  0.56380  0.38410  Biso   1.000  N
  N13      1.0000 0.67420  0.60540  0.23590  Biso   1.000  N
  N14      1.0000 0.45360  0.44760  0.40160  Biso   1.000  N
  N15      1.0000 0.92470  0.88090  0.09580  Biso   1.000  N
  C1       1.0000 0.60930  0.18520  0.41560  Biso   1.000  C
  H1       1.0000 0.50620  0.21040  0.43370  Biso   1.000  H
  C2       1.0000 0.71230  0.24040  0.37300  Biso   1.000  C
  H2       1.0000 0.67960  0.30180  0.36180  Biso   1.000  H
  C3       1.0000 0.86470  0.20570  0.34660  Biso   1.000  C
  H3       1.0000 0.93810  0.24230  0.31670  Biso   1.000  H
  C4       1.0000 0.90610  0.11370  0.36600  Biso   1.000  C
  H4       1.0000 0.00940  0.08760  0.35030  Biso   1.000  H
  C5       1.0000 0.79700  0.06180  0.40770  Biso   1.000  C
  C6       1.0000 0.83210  0.96430  0.43000  Biso   1.000  C
  C7       1.0000 0.93970  0.83320  0.45140  Biso   1.000  C
  C8       1.0000 0.16300  0.60050  0.50290  Biso   1.000  C
  H5       1.0000 0.14240  0.54320  0.52990  Biso   1.000  H
  C9       1.0000 0.03860  0.66950  0.49370  Biso   1.000  C
  H6       1.0000 0.93790  0.65780  0.51330  Biso   1.000  H
  C10      1.0000 0.06430  0.75440  0.45590  Biso   1.000  C
  C11      1.0000 0.21550  0.76600  0.42470  Biso   1.000  C
  H7       1.0000 0.23970  0.82230  0.39620  Biso   1.000  H
  C12      1.0000 0.33130  0.69320  0.43610  Biso   1.000  C
  H8       1.0000 0.43330  0.70250  0.41430  Biso   1.000  H
  C13      1.0000 0.20100  0.88050  0.86510  Biso   1.000  C
  H9       1.0000 0.11590  0.89590  0.83900  Biso   1.000  H
  C14      1.0000 0.32340  0.82650  0.83090  Biso   1.000  C
  H10      1.0000 0.32320  0.80530  0.78250  Biso   1.000  H
  C15      1.0000 0.45110  0.80230  0.86820  Biso   1.000  C
  H11      1.0000 0.53890  0.76470  0.84550  Biso   1.000  H
  C16      1.0000 0.44480  0.83590  0.94140  Biso   1.000  C
  H12      1.0000 0.52850  0.82070  0.96860  Biso   1.000  H
  C17      1.0000 0.31560  0.89070  0.97190  Biso   1.000  C
  C18      1.0000 0.29730  0.93120  0.04520  Biso   1.000  C
  C19      1.0000 0.31890  0.97280  0.15170  Biso   1.000  C
  C20      1.0000 0.52330  0.92860  0.33550  Biso   1.000  C
  H13      1.0000 0.59710  0.88450  0.36010  Biso   1.000  H
  C21      1.0000 0.48490  0.91940  0.26240  Biso   1.000  C
  H14      1.0000 0.53250  0.87050  0.23800  Biso   1.000  H
  C22      1.0000 0.37410  0.98370  0.22510  Biso   1.000  C
  C23      1.0000 0.31460  0.05570  0.26130  Biso   1.000  C
  H15      1.0000 0.24350  0.10130  0.23610  Biso   1.000  H
  C24      1.0000 0.35840  0.06180  0.33490  Biso   1.000  C
  H16      1.0000 0.31590  0.11160  0.35850  Biso   1.000  H
  C25      1.0000 0.36250  0.38820  0.41390  Biso   1.000  C
  H17      1.0000 0.31550  0.36220  0.47200  Biso   1.000  H
  C26      1.0000 0.33590  0.36410  0.34490  Biso   1.000  C
  H18      1.0000 0.27210  0.32260  0.35560  Biso   1.000  H
  C27      1.0000 0.40590  0.40280  0.25830  Biso   1.000  C
  H19      1.0000 0.39060  0.38720  0.20990  Biso   1.000  H
  C28      1.0000 0.49810  0.46420  0.24510  Biso   1.000  C
  H20      1.0000 0.54540  0.49110  0.18740  Biso   1.000  H
  C29      1.0000 0.52000  0.48570  0.31700  Biso   1.000  C
  C30      1.0000 0.61340  0.55040  0.31010  Biso   1.000  C
  C31      1.0000 0.73740  0.65460  0.26890  Biso   1.000  C
  C32      1.0000 0.92630  0.85700  0.18270  Biso   1.000  C
  H21      1.0000 0.96880  0.89160  0.20480  Biso   1.000  H
  C33      1.0000 0.86860  0.78400  0.24160  Biso   1.000  C
  H22      1.0000 0.87130  0.77090  0.30160  Biso   1.000  H
  C34      1.0000 0.80720  0.73110  0.21060  Biso   1.000  C
  C35      1.0000 0.80540  0.75560  0.12070  Biso   1.000  C
  H23      1.0000 0.76340  0.72240  0.09680  Biso   1.000  H
  C36      1.0000 0.86550  0.82860  0.06750  Biso   1.000  C
  H24      1.0000 0.86490  0.84260  0.00710  Biso   1.000  H
  N16      1.0000 0.21060  0.17020  0.51210  Biso   1.000  N
  N17      1.0000 0.28060  0.08220  0.52710  Biso   1.000  N
  N18      1.0000 0.02590  0.08410  0.58570  Biso   1.000  N
  N19      1.0000 0.35340  0.90420  0.56650  Biso   1.000  N
  N20      1.0000 0.69220  0.38860  0.52430  Biso   1.000  N
  N21      1.0000 0.81880  0.98200  0.86500  Biso   1.000  N
  N22      1.0000 0.83140  0.01070  0.93440  Biso   1.000  N
  N23      1.0000 0.60520  0.08200  0.90210  Biso   1.000  N
  N24      1.0000 0.80900  0.08590  0.06600  Biso   1.000  N
  N25      1.0000 0.53810  0.00320  0.62640  Biso   1.000  N
  N26      1.0000 0.28150  0.36720  0.64340  Biso   1.000  N
  N27      1.0000 0.36300  0.43620  0.61590  Biso   1.000  N
  N28      1.0000 0.32580  0.39460  0.76410  Biso   1.000  N
  N29      1.0000 0.54640  0.55240  0.59840  Biso   1.000  N
  N30      1.0000 0.07530  0.11910  0.90420  Biso   1.000  N
  C37      1.0000 0.39070  0.81480  0.58440  Biso   1.000  C
  H25      1.0000 0.49380  0.78960  0.56630  Biso   1.000  H
  C38      1.0000 0.28770  0.75960  0.62700  Biso   1.000  C
  H26      1.0000 0.32040  0.69820  0.63820  Biso   1.000  H
  C39      1.0000 0.13530  0.79430  0.65340  Biso   1.000  C
  H27      1.0000 0.06190  0.75770  0.68330  Biso   1.000  H
  C40      1.0000 0.09390  0.88630  0.63400  Biso   1.000  C
  H28      1.0000 0.99060  0.91240  0.64970  Biso   1.000  H
  C41      1.0000 0.20300  0.93820  0.59230  Biso   1.000  C
  C42      1.0000 0.16790  0.03570  0.57000  Biso   1.000  C
  C43      1.0000 0.06030  0.16680  0.54860  Biso   1.000  C
  C44      1.0000 0.83700  0.39950  0.49710  Biso   1.000  C
  H29      1.0000 0.85760  0.45680  0.47010  Biso   1.000  H
  C45      1.0000 0.96140  0.33050  0.50630  Biso   1.000  C
  H30      1.0000 0.06210  0.34220  0.48670  Biso   1.000  H
  C46      1.0000 0.93570  0.24560  0.54410  Biso   1.000  C
  C47      1.0000 0.78450  0.23400  0.57530  Biso   1.000  C
  H31      1.0000 0.76030  0.17770  0.60380  Biso   1.000  H
  C48      1.0000 0.66870  0.30680  0.56390  Biso   1.000  C
  H32      1.0000 0.56670  0.29750  0.58570  Biso   1.000  H
  C49      1.0000 0.79900  0.11950  0.13490  Biso   1.000  C
  H33      1.0000 0.88410  0.10410  0.16100  Biso   1.000  H
  C50      1.0000 0.67660  0.17350  0.16910  Biso   1.000  C
  H34      1.0000 0.67680  0.19470  0.21750  Biso   1.000  H
  C51      1.0000 0.54890  0.19770  0.13180  Biso   1.000  C
  H35      1.0000 0.46110  0.23530  0.15450  Biso   1.000  H
  C52      1.0000 0.55520  0.16410  0.05860  Biso   1.000  C
  H36      1.0000 0.47150  0.17930  0.03140  Biso   1.000  H
  C53      1.0000 0.68440  0.10930  0.02810  Biso   1.000  C
  C54      1.0000 0.70270  0.06880  0.95480  Biso   1.000  C
  C55      1.0000 0.68110  0.02720  0.84830  Biso   1.000  C
  C56      1.0000 0.47670  0.07140  0.66450  Biso   1.000  C
  H37      1.0000 0.40290  0.11550  0.63990  Biso   1.000  H
  C57      1.0000 0.51510  0.08060  0.73760  Biso   1.000  C
  H38      1.0000 0.46750  0.12950  0.76200  Biso   1.000  H
  C58      1.0000 0.62590  0.01630  0.77490  Biso   1.000  C
  C59      1.0000 0.68540  0.94430  0.73870  Biso   1.000  C
  H39      1.0000 0.75650  0.89870  0.76390  Biso   1.000  H
  C60      1.0000 0.64160  0.93820  0.66510  Biso   1.000  C
  H40      1.0000 0.68410  0.88840  0.64150  Biso   1.000  H
  C61      1.0000 0.63750  0.61180  0.58610  Biso   1.000  C
  H41      1.0000 0.68450  0.63780  0.52800  Biso   1.000  H
  C62      1.0000 0.66410  0.63590  0.65510  Biso   1.000  C
  H42      1.0000 0.72790  0.67740  0.64440  Biso   1.000  H
  C63      1.0000 0.59410  0.59720  0.74170  Biso   1.000  C
  H43      1.0000 0.60940  0.61280  0.79010  Biso   1.000  H
  C64      1.0000 0.50190  0.53580  0.75490  Biso   1.000  C
  H44      1.0000 0.45460  0.50890  0.81260  Biso   1.000  H
  C65      1.0000 0.48000  0.51430  0.68300  Biso   1.000  C
  C66      1.0000 0.38660  0.44960  0.68990  Biso   1.000  C
  C67      1.0000 0.26260  0.34540  0.73110  Biso   1.000  C
  C68      1.0000 0.07370  0.14300  0.81730  Biso   1.000  C
  H45      1.0000 0.03120  0.10840  0.79520  Biso   1.000  H
  C69      1.0000 0.13140  0.21600  0.75840  Biso   1.000  C
  H46      1.0000 0.12870  0.22910  0.69840  Biso   1.000  H
  C70      1.0000 0.19280  0.26890  0.78940  Biso   1.000  C
  C71      1.0000 0.19460  0.24440  0.87930  Biso   1.000  C
  H47      1.0000 0.23660  0.27760  0.90320  Biso   1.000  H
  C72      1.0000 0.13450  0.17140  0.93250  Biso   1.000  C
  H48      1.0000 0.13510  0.15740  0.99290  Biso   1.000  H
  Ni1      1.0000 0.50000  0.00000  0.50000  Biso   1.000  Ni
  Ni2      1.0000 0.50000  0.50000  0.50000  Biso   1.000  Ni
  Ni3      1.0000 0.00000  0.00000  0.00000  Biso   1.000  Ni
