data_image0
_cell_length_a       11.5539
_cell_length_b       15.4228
_cell_length_c       17.686
_cell_angle_alpha    114.095
_cell_angle_beta     90
_cell_angle_gamma    111.998

_symmetry_space_group_name_H-M    P 1
_symmetry_int_tables_number       1

loop_
  _symmetry_equiv_pos_as_xyz
  'x, y, z'

loop_
  _atom_site_label
  _atom_site_occupancy
  _atom_site_fract_x
  _atom_site_fract_y
  _atom_site_fract_z
  _atom_site_thermal_displace_type
  _atom_site_B_iso_or_equiv
  _atom_site_type_symbol
  Cu1      1.0000 0.83723  0.60182  0.77019  Biso   1.000  Cu
  Cu2      1.0000 0.23541  0.39818  0.72981  Biso   1.000  Cu
  Cu3      1.0000 0.16277  0.39818  0.22981  Biso   1.000  Cu
  Cu4      1.0000 0.76459  0.60182  0.27019  Biso   1.000  Cu
  H1       1.0000 0.89350  0.53780  0.57780  Biso   1.000  H
  H2       1.0000 0.12180  0.65060  0.78480  Biso   1.000  H
  H3       1.0000 0.33040  0.66400  0.72600  Biso   1.000  H
  H4       1.0000 0.30730  0.59040  0.62970  Biso   1.000  H
  H5       1.0000 0.22420  0.80280  0.68660  Biso   1.000  H
  H6       1.0000 0.32970  0.94840  0.66550  Biso   1.000  H
  H7       1.0000 0.59810  0.84740  0.58500  Biso   1.000  H
  H8       1.0000 0.49360  0.70280  0.60730  Biso   1.000  H
  H9       1.0000 0.40720  0.05320  0.60770  Biso   1.000  H
  H10      1.0000 0.52150  0.20000  0.58780  Biso   1.000  H
  H11      1.0000 0.83290  0.15020  0.59840  Biso   1.000  H
  H12      1.0000 0.72190  0.00920  0.62170  Biso   1.000  H
  H13      1.0000 0.73900  0.34240  0.61340  Biso   1.000  H
  H14      1.0000 0.72790  0.26900  0.51840  Biso   1.000  H
  H15      1.0000 0.95420  0.38060  0.71300  Biso   1.000  H
  H16      1.0000 0.14770  0.32560  0.53460  Biso   1.000  H
  H17      1.0000 0.71130  0.61360  0.54030  Biso   1.000  H
  H18      1.0000 0.35570  0.46220  0.92220  Biso   1.000  H
  H19      1.0000 0.47120  0.34940  0.71520  Biso   1.000  H
  H20      1.0000 0.66640  0.33600  0.77400  Biso   1.000  H
  H21      1.0000 0.71690  0.40960  0.87030  Biso   1.000  H
  H22      1.0000 0.42140  0.19720  0.81340  Biso   1.000  H
  H23      1.0000 0.38130  0.05160  0.83450  Biso   1.000  H
  H24      1.0000 0.75070  0.15260  0.91500  Biso   1.000  H
  H25      1.0000 0.79080  0.29720  0.89270  Biso   1.000  H
  H26      1.0000 0.35400  0.94680  0.89230  Biso   1.000  H
  H27      1.0000 0.32150  0.80000  0.91220  Biso   1.000  H
  H28      1.0000 0.68270  0.84980  0.90160  Biso   1.000  H
  H29      1.0000 0.71270  0.99080  0.87830  Biso   1.000  H
  H30      1.0000 0.39660  0.65760  0.88660  Biso   1.000  H
  H31      1.0000 0.45890  0.73100  0.98160  Biso   1.000  H
  H32      1.0000 0.57360  0.61940  0.78700  Biso   1.000  H
  H33      1.0000 0.82210  0.67440  0.96540  Biso   1.000  H
  H34      1.0000 0.09770  0.38640  0.95970  Biso   1.000  H
  H35      1.0000 0.10650  0.46220  0.42220  Biso   1.000  H
  H36      1.0000 0.87820  0.34940  0.21520  Biso   1.000  H
  H37      1.0000 0.66960  0.33600  0.27400  Biso   1.000  H
  H38      1.0000 0.69270  0.40960  0.37030  Biso   1.000  H
  H39      1.0000 0.77580  0.19720  0.31340  Biso   1.000  H
  H40      1.0000 0.67030  0.05160  0.33450  Biso   1.000  H
  H41      1.0000 0.40190  0.15260  0.41500  Biso   1.000  H
  H42      1.0000 0.50640  0.29720  0.39270  Biso   1.000  H
  H43      1.0000 0.59280  0.94680  0.39230  Biso   1.000  H
  H44      1.0000 0.47850  0.80000  0.41220  Biso   1.000  H
  H45      1.0000 0.16710  0.84980  0.40160  Biso   1.000  H
  H46      1.0000 0.27810  0.99080  0.37830  Biso   1.000  H
  H47      1.0000 0.26100  0.65760  0.38660  Biso   1.000  H
  H48      1.0000 0.27210  0.73100  0.48160  Biso   1.000  H
  H49      1.0000 0.04580  0.61940  0.28700  Biso   1.000  H
  H50      1.0000 0.85230  0.67440  0.46540  Biso   1.000  H
  H51      1.0000 0.28870  0.38640  0.45970  Biso   1.000  H
  H52      1.0000 0.64430  0.53780  0.07780  Biso   1.000  H
  H53      1.0000 0.52880  0.65060  0.28480  Biso   1.000  H
  H54      1.0000 0.33360  0.66400  0.22600  Biso   1.000  H
  H55      1.0000 0.28310  0.59040  0.12970  Biso   1.000  H
  H56      1.0000 0.57860  0.80280  0.18660  Biso   1.000  H
  H57      1.0000 0.61870  0.94840  0.16550  Biso   1.000  H
  H58      1.0000 0.24930  0.84740  0.08500  Biso   1.000  H
  H59      1.0000 0.20920  0.70280  0.10730  Biso   1.000  H
  H60      1.0000 0.64600  0.05320  0.10770  Biso   1.000  H
  H61      1.0000 0.67850  0.20000  0.08780  Biso   1.000  H
  H62      1.0000 0.31730  0.15020  0.09840  Biso   1.000  H
  H63      1.0000 0.28730  0.00920  0.12170  Biso   1.000  H
  H64      1.0000 0.60340  0.34240  0.11340  Biso   1.000  H
  H65      1.0000 0.54110  0.26900  0.01840  Biso   1.000  H
  H66      1.0000 0.42640  0.38060  0.21300  Biso   1.000  H
  H67      1.0000 0.17790  0.32560  0.03460  Biso   1.000  H
  H68      1.0000 0.90230  0.61360  0.04030  Biso   1.000  H
  C1       1.0000 0.96760  0.56500  0.61600  Biso   1.000  C
  C2       1.0000 0.08830  0.62540  0.72850  Biso   1.000  C
  C3       1.0000 0.29160  0.64800  0.67060  Biso   1.000  C
  C4       1.0000 0.35190  0.73940  0.65390  Biso   1.000  C
  C5       1.0000 0.30150  0.81280  0.66820  Biso   1.000  C
  C6       1.0000 0.36490  0.90020  0.65540  Biso   1.000  C
  C7       1.0000 0.48070  0.91760  0.62760  Biso   1.000  C
  C8       1.0000 0.52450  0.84060  0.60780  Biso   1.000  C
  C9       1.0000 0.46120  0.75320  0.62100  Biso   1.000  C
  C10      1.0000 0.55120  0.01300  0.61550  Biso   1.000  C
  C11      1.0000 0.49330  0.07220  0.60610  Biso   1.000  C
  C12      1.0000 0.56250  0.16100  0.59400  Biso   1.000  C
  C13      1.0000 0.68760  0.19080  0.59140  Biso   1.000  C
  C14      1.0000 0.74710  0.13180  0.60090  Biso   1.000  C
  C15      1.0000 0.67950  0.04640  0.61370  Biso   1.000  C
  C16      1.0000 0.75780  0.28480  0.57580  Biso   1.000  C
  C17      1.0000 0.97590  0.35760  0.65990  Biso   1.000  C
  C18      1.0000 0.08010  0.32600  0.56310  Biso   1.000  C
  C19      1.0000 0.65140  0.52640  0.64400  Biso   1.000  C
  C20      1.0000 0.57220  0.51360  0.57110  Biso   1.000  C
  C21      1.0000 0.44400  0.44620  0.54660  Biso   1.000  C
  C22      1.0000 0.62620  0.56760  0.52390  Biso   1.000  C
  C23      1.0000 0.37420  0.38980  0.59680  Biso   1.000  C
  C24      1.0000 0.40260  0.43500  0.88400  Biso   1.000  C
  C25      1.0000 0.46290  0.37460  0.77150  Biso   1.000  C
  C26      1.0000 0.64360  0.35200  0.82940  Biso   1.000  C
  C27      1.0000 0.61250  0.26060  0.84610  Biso   1.000  C
  C28      1.0000 0.48870  0.18720  0.83180  Biso   1.000  C
  C29      1.0000 0.46470  0.09980  0.84460  Biso   1.000  C
  C30      1.0000 0.56310  0.08240  0.87240  Biso   1.000  C
  C31      1.0000 0.68390  0.15940  0.89220  Biso   1.000  C
  C32      1.0000 0.70800  0.24680  0.87900  Biso   1.000  C
  C33      1.0000 0.53820  0.98700  0.88450  Biso   1.000  C
  C34      1.0000 0.42110  0.92780  0.89390  Biso   1.000  C
  C35      1.0000 0.40150  0.83900  0.90600  Biso   1.000  C
  C36      1.0000 0.49680  0.80920  0.90860  Biso   1.000  C
  C37      1.0000 0.61530  0.86820  0.89910  Biso   1.000  C
  C38      1.0000 0.63310  0.95360  0.88630  Biso   1.000  C
  C39      1.0000 0.47300  0.71520  0.92420  Biso   1.000  C
  C40      1.0000 0.61830  0.64240  0.84010  Biso   1.000  C
  C41      1.0000 0.75410  0.67400  0.93690  Biso   1.000  C
  C42      1.0000 0.12500  0.47360  0.85600  Biso   1.000  C
  C43      1.0000 0.05860  0.48640  0.92890  Biso   1.000  C
  C44      1.0000 0.99780  0.55380  0.95340  Biso   1.000  C
  C45      1.0000 0.05860  0.43240  0.97610  Biso   1.000  C
  C46      1.0000 0.98440  0.61020  0.90320  Biso   1.000  C
  C47      1.0000 0.03240  0.43500  0.38400  Biso   1.000  C
  C48      1.0000 0.91170  0.37460  0.27150  Biso   1.000  C
  C49      1.0000 0.70840  0.35200  0.32940  Biso   1.000  C
  C50      1.0000 0.64810  0.26060  0.34610  Biso   1.000  C
  C51      1.0000 0.69850  0.18720  0.33180  Biso   1.000  C
  C52      1.0000 0.63510  0.09980  0.34460  Biso   1.000  C
  C53      1.0000 0.51930  0.08240  0.37240  Biso   1.000  C
  C54      1.0000 0.47550  0.15940  0.39220  Biso   1.000  C
  C55      1.0000 0.53880  0.24680  0.37900  Biso   1.000  C
  C56      1.0000 0.44880  0.98700  0.38450  Biso   1.000  C
  C57      1.0000 0.50670  0.92780  0.39390  Biso   1.000  C
  C58      1.0000 0.43750  0.83900  0.40600  Biso   1.000  C
  C59      1.0000 0.31240  0.80920  0.40860  Biso   1.000  C
  C60      1.0000 0.25290  0.86820  0.39910  Biso   1.000  C
  C61      1.0000 0.32050  0.95360  0.38630  Biso   1.000  C
  C62      1.0000 0.24220  0.71520  0.42420  Biso   1.000  C
  C63      1.0000 0.02410  0.64240  0.34010  Biso   1.000  C
  C64      1.0000 0.91990  0.67400  0.43690  Biso   1.000  C
  C65      1.0000 0.34860  0.47360  0.35600  Biso   1.000  C
  C66      1.0000 0.42780  0.48640  0.42890  Biso   1.000  C
  C67      1.0000 0.55600  0.55380  0.45340  Biso   1.000  C
  C68      1.0000 0.37380  0.43240  0.47610  Biso   1.000  C
  C69      1.0000 0.62580  0.61020  0.40320  Biso   1.000  C
  C70      1.0000 0.59740  0.56500  0.11600  Biso   1.000  C
  C71      1.0000 0.53710  0.62540  0.22850  Biso   1.000  C
  C72      1.0000 0.35640  0.64800  0.17060  Biso   1.000  C
  C73      1.0000 0.38750  0.73940  0.15390  Biso   1.000  C
  C74      1.0000 0.51130  0.81280  0.16820  Biso   1.000  C
  C75      1.0000 0.53530  0.90020  0.15540  Biso   1.000  C
  C76      1.0000 0.43690  0.91760  0.12760  Biso   1.000  C
  C77      1.0000 0.31610  0.84060  0.10780  Biso   1.000  C
  C78      1.0000 0.29200  0.75320  0.12100  Biso   1.000  C
  C79      1.0000 0.46180  0.01300  0.11550  Biso   1.000  C
  C80      1.0000 0.57890  0.07220  0.10610  Biso   1.000  C
  C81      1.0000 0.59850  0.16100  0.09400  Biso   1.000  C
  C82      1.0000 0.50320  0.19080  0.09140  Biso   1.000  C
  C83      1.0000 0.38470  0.13180  0.10090  Biso   1.000  C
  C84      1.0000 0.36690  0.04640  0.11370  Biso   1.000  C
  C85      1.0000 0.52700  0.28480  0.07580  Biso   1.000  C
  C86      1.0000 0.38170  0.35760  0.15990  Biso   1.000  C
  C87      1.0000 0.24590  0.32600  0.06310  Biso   1.000  C
  C88      1.0000 0.87500  0.52640  0.14400  Biso   1.000  C
  C89      1.0000 0.94140  0.51360  0.07110  Biso   1.000  C
  C90      1.0000 0.00220  0.44620  0.04660  Biso   1.000  C
  C91      1.0000 0.94140  0.56760  0.02390  Biso   1.000  C
  C92      1.0000 0.01560  0.38980  0.09680  Biso   1.000  C
  N1       1.0000 0.96919  0.59478  0.69930  Biso   1.000  N
  N2       1.0000 0.07670  0.57680  0.59340  Biso   1.000  N
  N3       1.0000 0.15521  0.61582  0.66690  Biso   1.000  N
  N4       1.0000 0.08679  0.36238  0.64760  Biso   1.000  N
  N5       1.0000 0.96250  0.29220  0.52890  Biso   1.000  N
  N6       1.0000 0.89527  0.31634  0.58860  Biso   1.000  N
  N7       1.0000 0.37441  0.40522  0.80070  Biso   1.000  N
  N8       1.0000 0.49990  0.42320  0.90660  Biso   1.000  N
  N9       1.0000 0.53939  0.38418  0.83310  Biso   1.000  N
  N10      1.0000 0.72441  0.63762  0.85240  Biso   1.000  N
  N11      1.0000 0.67030  0.70780  0.97110  Biso   1.000  N
  N12      1.0000 0.57893  0.68366  0.91140  Biso   1.000  N
  N13      1.0000 0.03081  0.40522  0.30070  Biso   1.000  N
  N14      1.0000 0.92330  0.42320  0.40660  Biso   1.000  N
  N15      1.0000 0.84479  0.38418  0.33310  Biso   1.000  N
  N16      1.0000 0.91321  0.63762  0.35240  Biso   1.000  N
  N17      1.0000 0.03750  0.70780  0.47110  Biso   1.000  N
  N18      1.0000 0.10473  0.68366  0.41140  Biso   1.000  N
  N19      1.0000 0.62559  0.59478  0.19930  Biso   1.000  N
  N20      1.0000 0.50010  0.57680  0.09340  Biso   1.000  N
  N21      1.0000 0.46061  0.61582  0.16690  Biso   1.000  N
  N22      1.0000 0.27559  0.36238  0.14760  Biso   1.000  N
  N23      1.0000 0.32970  0.29220  0.02890  Biso   1.000  N
  N24      1.0000 0.42107  0.31634  0.08860  Biso   1.000  N
  O1       1.0000 0.74285  0.61690  0.68640  Biso   1.000  O
  O2       1.0000 0.63289  0.45298  0.66080  Biso   1.000  O
  O3       1.0000 0.35706  0.45152  0.66610  Biso   1.000  O
  O4       1.0000 0.33827  0.29574  0.57010  Biso   1.000  O
  O5       1.0000 0.12595  0.38310  0.81360  Biso   1.000  O
  O6       1.0000 0.17991  0.54702  0.83920  Biso   1.000  O
  O7       1.0000 0.90554  0.54848  0.83390  Biso   1.000  O
  O8       1.0000 0.04253  0.70426  0.92990  Biso   1.000  O
  O9       1.0000 0.25715  0.38310  0.31360  Biso   1.000  O
  O10      1.0000 0.36711  0.54702  0.33920  Biso   1.000  O
  O11      1.0000 0.64294  0.54848  0.33390  Biso   1.000  O
  O12      1.0000 0.66173  0.70426  0.42990  Biso   1.000  O
  O13      1.0000 0.87405  0.61690  0.18640  Biso   1.000  O
  O14      1.0000 0.82009  0.45298  0.16080  Biso   1.000  O
  O15      1.0000 0.09446  0.45152  0.16610  Biso   1.000  O
  O16      1.0000 0.95747  0.29574  0.07010  Biso   1.000  O
