data_image0
_cell_length_a       10.5305
_cell_length_b       13.842
_cell_length_c       14.1361
_cell_angle_alpha    60.6859
_cell_angle_beta     82.6052
_cell_angle_gamma    74.7589

_symmetry_space_group_name_H-M    P 1
_symmetry_int_tables_number       1

loop_
  _symmetry_equiv_pos_as_xyz
  'x, y, z'

loop_
  _atom_site_label
  _atom_site_occupancy
  _atom_site_fract_x
  _atom_site_fract_y
  _atom_site_fract_z
  _atom_site_thermal_displace_type
  _atom_site_B_iso_or_equiv
  _atom_site_type_symbol
  Co1      1.0000 0.25000  0.58283  0.83434  Biso   1.000  Co
  Co2      1.0000 0.75000  0.41717  0.16566  Biso   1.000  Co
  Co3      1.0000 0.50000  0.50000  0.00000  Biso   1.000  Co
  Co4      1.0000 0.00000  0.50000  0.00000  Biso   1.000  Co
  H1       1.0000 0.26520  0.70010  0.14000  Biso   1.000  H
  H2       1.0000 0.15090  0.82340  0.20620  Biso   1.000  H
  H3       1.0000 0.70190  0.73420  0.75300  Biso   1.000  H
  H4       1.0000 0.42010  0.81930  0.54400  Biso   1.000  H
  H5       1.0000 0.83180  0.88280  0.04140  Biso   1.000  H
  H6       1.0000 0.94440  0.75690  0.97940  Biso   1.000  H
  H7       1.0000 0.82440  0.84370  0.61420  Biso   1.000  H
  H8       1.0000 0.54220  0.92800  0.40200  Biso   1.000  H
  H9       1.0000 0.88840  0.09430  0.27260  Biso   1.000  H
  H10      1.0000 0.81890  0.12290  0.16740  Biso   1.000  H
  H11      1.0000 0.98510  0.90710  0.29400  Biso   1.000  H
  H12      1.0000 0.03460  0.00360  0.18920  Biso   1.000  H
  H13      1.0000 0.71370  0.96460  0.28540  Biso   1.000  H
  H14      1.0000 0.66050  0.07680  0.29540  Biso   1.000  H
  H15      1.0000 0.23480  0.15990  0.14000  Biso   1.000  H
  H16      1.0000 0.34910  0.97040  0.20620  Biso   1.000  H
  H17      1.0000 0.79810  0.51280  0.75300  Biso   1.000  H
  H18      1.0000 0.07990  0.63670  0.54400  Biso   1.000  H
  H19      1.0000 0.66820  0.07580  0.04140  Biso   1.000  H
  H20      1.0000 0.55560  0.26370  0.97940  Biso   1.000  H
  H21      1.0000 0.67560  0.54210  0.61420  Biso   1.000  H
  H22      1.0000 0.95780  0.67000  0.40200  Biso   1.000  H
  H23      1.0000 0.61160  0.63310  0.27260  Biso   1.000  H
  H24      1.0000 0.68110  0.70970  0.16740  Biso   1.000  H
  H25      1.0000 0.51490  0.79890  0.29400  Biso   1.000  H
  H26      1.0000 0.46540  0.80720  0.18920  Biso   1.000  H
  H27      1.0000 0.78630  0.75000  0.28540  Biso   1.000  H
  H28      1.0000 0.83950  0.62780  0.29540  Biso   1.000  H
  H29      1.0000 0.73480  0.29990  0.86000  Biso   1.000  H
  H30      1.0000 0.84910  0.17660  0.79380  Biso   1.000  H
  H31      1.0000 0.29810  0.26580  0.24700  Biso   1.000  H
  H32      1.0000 0.57990  0.18070  0.45600  Biso   1.000  H
  H33      1.0000 0.16820  0.11720  0.95860  Biso   1.000  H
  H34      1.0000 0.05560  0.24310  0.02060  Biso   1.000  H
  H35      1.0000 0.17560  0.15630  0.38580  Biso   1.000  H
  H36      1.0000 0.45780  0.07200  0.59800  Biso   1.000  H
  H37      1.0000 0.11160  0.90570  0.72740  Biso   1.000  H
  H38      1.0000 0.18110  0.87710  0.83260  Biso   1.000  H
  H39      1.0000 0.01490  0.09290  0.70600  Biso   1.000  H
  H40      1.0000 0.96540  0.99640  0.81080  Biso   1.000  H
  H41      1.0000 0.28630  0.03540  0.71460  Biso   1.000  H
  H42      1.0000 0.33950  0.92320  0.70460  Biso   1.000  H
  H43      1.0000 0.76520  0.84010  0.86000  Biso   1.000  H
  H44      1.0000 0.65090  0.02960  0.79380  Biso   1.000  H
  H45      1.0000 0.20190  0.48720  0.24700  Biso   1.000  H
  H46      1.0000 0.92010  0.36330  0.45600  Biso   1.000  H
  H47      1.0000 0.33180  0.92420  0.95860  Biso   1.000  H
  H48      1.0000 0.44440  0.73630  0.02060  Biso   1.000  H
  H49      1.0000 0.32440  0.45790  0.38580  Biso   1.000  H
  H50      1.0000 0.04220  0.33000  0.59800  Biso   1.000  H
  H51      1.0000 0.38840  0.36690  0.72740  Biso   1.000  H
  H52      1.0000 0.31890  0.29030  0.83260  Biso   1.000  H
  H53      1.0000 0.48510  0.20110  0.70600  Biso   1.000  H
  H54      1.0000 0.53460  0.19280  0.81080  Biso   1.000  H
  H55      1.0000 0.21370  0.25000  0.71460  Biso   1.000  H
  H56      1.0000 0.16050  0.37220  0.70460  Biso   1.000  H
  C1       1.0000 0.11850  0.71784  0.05112  Biso   1.000  C
  C2       1.0000 0.98020  0.86690  0.12720  Biso   1.000  C
  C3       1.0000 0.47410  0.68869  0.75282  Biso   1.000  C
  C4       1.0000 0.17800  0.73724  0.11972  Biso   1.000  C
  C5       1.0000 0.11020  0.81148  0.15944  Biso   1.000  C
  C6       1.0000 0.69560  0.89563  0.49234  Biso   1.000  C
  C7       1.0000 0.54810  0.76513  0.66274  Biso   1.000  C
  C8       1.0000 0.66990  0.77329  0.68242  Biso   1.000  C
  C9       1.0000 0.19310  0.64579  0.00302  Biso   1.000  C
  C10      1.0000 0.50190  0.82360  0.55780  Biso   1.000  C
  C11      1.0000 0.91920  0.84628  0.06104  Biso   1.000  C
  C12      1.0000 0.98690  0.77138  0.02324  Biso   1.000  C
  C13      1.0000 0.74380  0.83793  0.59974  Biso   1.000  C
  C14      1.0000 0.57490  0.88894  0.47232  Biso   1.000  C
  C15      1.0000 0.85120  0.06194  0.23832  Biso   1.000  C
  C16      1.0000 0.95840  0.97291  0.22418  Biso   1.000  C
  C17      1.0000 0.73680  0.01527  0.30586  Biso   1.000  C
  C18      1.0000 0.38150  0.23104  0.05112  Biso   1.000  C
  C19      1.0000 0.51980  0.00590  0.12720  Biso   1.000  C
  C20      1.0000 0.02590  0.55849  0.75282  Biso   1.000  C
  C21      1.0000 0.32200  0.14304  0.11972  Biso   1.000  C
  C22      1.0000 0.38980  0.02908  0.15944  Biso   1.000  C
  C23      1.0000 0.80440  0.61203  0.49234  Biso   1.000  C
  C24      1.0000 0.95190  0.57213  0.66274  Biso   1.000  C
  C25      1.0000 0.83010  0.54429  0.68242  Biso   1.000  C
  C26      1.0000 0.30690  0.35119  0.00302  Biso   1.000  C
  C27      1.0000 0.99810  0.61860  0.55780  Biso   1.000  C
  C28      1.0000 0.58080  0.09268  0.06104  Biso   1.000  C
  C29      1.0000 0.51310  0.20538  0.02324  Biso   1.000  C
  C30      1.0000 0.75620  0.56233  0.59974  Biso   1.000  C
  C31      1.0000 0.92510  0.63874  0.47232  Biso   1.000  C
  C32      1.0000 0.64880  0.69974  0.23832  Biso   1.000  C
  C33      1.0000 0.54160  0.80291  0.22418  Biso   1.000  C
  C34      1.0000 0.76320  0.67887  0.30586  Biso   1.000  C
  C35      1.0000 0.88150  0.28216  0.94888  Biso   1.000  C
  C36      1.0000 0.01980  0.13310  0.87280  Biso   1.000  C
  C37      1.0000 0.52590  0.31131  0.24718  Biso   1.000  C
  C38      1.0000 0.82200  0.26276  0.88028  Biso   1.000  C
  C39      1.0000 0.88980  0.18852  0.84056  Biso   1.000  C
  C40      1.0000 0.30440  0.10437  0.50766  Biso   1.000  C
  C41      1.0000 0.45190  0.23487  0.33726  Biso   1.000  C
  C42      1.0000 0.33010  0.22671  0.31758  Biso   1.000  C
  C43      1.0000 0.80690  0.35421  0.99698  Biso   1.000  C
  C44      1.0000 0.49810  0.17640  0.44220  Biso   1.000  C
  C45      1.0000 0.08080  0.15372  0.93896  Biso   1.000  C
  C46      1.0000 0.01310  0.22862  0.97676  Biso   1.000  C
  C47      1.0000 0.25620  0.16207  0.40026  Biso   1.000  C
  C48      1.0000 0.42510  0.11106  0.52768  Biso   1.000  C
  C49      1.0000 0.14880  0.93806  0.76168  Biso   1.000  C
  C50      1.0000 0.04160  0.02709  0.77582  Biso   1.000  C
  C51      1.0000 0.26320  0.98473  0.69414  Biso   1.000  C
  C52      1.0000 0.61850  0.76896  0.94888  Biso   1.000  C
  C53      1.0000 0.48020  0.99410  0.87280  Biso   1.000  C
  C54      1.0000 0.97410  0.44151  0.24718  Biso   1.000  C
  C55      1.0000 0.67800  0.85696  0.88028  Biso   1.000  C
  C56      1.0000 0.61020  0.97092  0.84056  Biso   1.000  C
  C57      1.0000 0.19560  0.38797  0.50766  Biso   1.000  C
  C58      1.0000 0.04810  0.42787  0.33726  Biso   1.000  C
  C59      1.0000 0.16990  0.45571  0.31758  Biso   1.000  C
  C60      1.0000 0.69310  0.64881  0.99698  Biso   1.000  C
  C61      1.0000 0.00190  0.38140  0.44220  Biso   1.000  C
  C62      1.0000 0.41920  0.90732  0.93896  Biso   1.000  C
  C63      1.0000 0.48690  0.79462  0.97676  Biso   1.000  C
  C64      1.0000 0.24380  0.43767  0.40026  Biso   1.000  C
  C65      1.0000 0.07490  0.36126  0.52768  Biso   1.000  C
  C66      1.0000 0.35120  0.30026  0.76168  Biso   1.000  C
  C67      1.0000 0.45840  0.19709  0.77582  Biso   1.000  C
  C68      1.0000 0.23680  0.32113  0.69414  Biso   1.000  C
  O1       1.0000 0.52730  0.62413  0.84354  Biso   1.000  O
  O2       1.0000 0.13010  0.62900  0.94188  Biso   1.000  O
  O3       1.0000 0.31440  0.60827  0.01810  Biso   1.000  O
  O4       1.0000 0.36010  0.69137  0.73206  Biso   1.000  O
  O5       1.0000 0.90450  0.94225  0.15870  Biso   1.000  O
  O6       1.0000 0.77900  0.95452  0.41636  Biso   1.000  O
  O7       1.0000 0.97270  0.53233  0.84354  Biso   1.000  O
  O8       1.0000 0.36990  0.42912  0.94188  Biso   1.000  O
  O9       1.0000 0.18560  0.37363  0.01810  Biso   1.000  O
  O10      1.0000 0.13990  0.57657  0.73206  Biso   1.000  O
  O11      1.0000 0.59550  0.89905  0.15870  Biso   1.000  O
  O12      1.0000 0.72100  0.62912  0.41636  Biso   1.000  O
  O13      1.0000 0.47270  0.37587  0.15646  Biso   1.000  O
  O14      1.0000 0.86990  0.37100  0.05812  Biso   1.000  O
  O15      1.0000 0.68560  0.39173  0.98190  Biso   1.000  O
  O16      1.0000 0.63990  0.30863  0.26794  Biso   1.000  O
  O17      1.0000 0.09550  0.05775  0.84130  Biso   1.000  O
  O18      1.0000 0.22100  0.04548  0.58364  Biso   1.000  O
  O19      1.0000 0.02730  0.46767  0.15646  Biso   1.000  O
  O20      1.0000 0.63010  0.57088  0.05812  Biso   1.000  O
  O21      1.0000 0.81440  0.62637  0.98190  Biso   1.000  O
  O22      1.0000 0.86010  0.42343  0.26794  Biso   1.000  O
  O23      1.0000 0.40450  0.10095  0.84130  Biso   1.000  O
  O24      1.0000 0.27900  0.37088  0.58364  Biso   1.000  O
