data_image0
_cell_length_a       15.2806
_cell_length_b       15.2806
_cell_length_c       15.393
_cell_angle_alpha    90
_cell_angle_beta     90
_cell_angle_gamma    120

_symmetry_space_group_name_H-M    P 1
_symmetry_int_tables_number       1

loop_
  _symmetry_equiv_pos_as_xyz
  'x, y, z'

loop_
  _atom_site_label
  _atom_site_occupancy
  _atom_site_fract_x
  _atom_site_fract_y
  _atom_site_fract_z
  _atom_site_thermal_displace_type
  _atom_site_B_iso_or_equiv
  _atom_site_type_symbol
  Eu1      1.0000 0.66667  0.33334  0.75000  Biso   1.000  Eu
  Eu2      1.0000 0.33333  0.66666  0.75000  Biso   1.000  Eu
  Eu3      1.0000 0.33333  0.66666  0.25000  Biso   1.000  Eu
  Eu4      1.0000 0.66667  0.33334  0.25000  Biso   1.000  Eu
  Co1      1.0000 0.50000  0.50000  0.00000  Biso   1.000  Co
  Co2      1.0000 0.00000  0.50000  0.00000  Biso   1.000  Co
  Co3      1.0000 0.50000  0.00000  0.00000  Biso   1.000  Co
  Co4      1.0000 0.00000  0.50000  0.50000  Biso   1.000  Co
  Co5      1.0000 0.50000  0.50000  0.50000  Biso   1.000  Co
  Co6      1.0000 0.50000  0.00000  0.50000  Biso   1.000  Co
  H1       1.0000 0.52040  0.35140  0.04300  Biso   1.000  H
  H2       1.0000 0.76620  0.71230  0.84540  Biso   1.000  H
  H3       1.0000 0.83100  0.47960  0.04300  Biso   1.000  H
  H4       1.0000 0.94610  0.23380  0.84540  Biso   1.000  H
  H5       1.0000 0.64860  0.16900  0.04300  Biso   1.000  H
  H6       1.0000 0.28770  0.05390  0.84540  Biso   1.000  H
  H7       1.0000 0.47960  0.64860  0.04300  Biso   1.000  H
  H8       1.0000 0.23380  0.28770  0.84540  Biso   1.000  H
  H9       1.0000 0.16900  0.52040  0.04300  Biso   1.000  H
  H10      1.0000 0.05390  0.76620  0.84540  Biso   1.000  H
  H11      1.0000 0.35140  0.83100  0.04300  Biso   1.000  H
  H12      1.0000 0.71230  0.94610  0.84540  Biso   1.000  H
  H13      1.0000 0.16900  0.64860  0.45700  Biso   1.000  H
  H14      1.0000 0.05390  0.28770  0.65460  Biso   1.000  H
  H15      1.0000 0.35140  0.52040  0.45700  Biso   1.000  H
  H16      1.0000 0.71230  0.76620  0.65460  Biso   1.000  H
  H17      1.0000 0.47960  0.83100  0.45700  Biso   1.000  H
  H18      1.0000 0.23380  0.94610  0.65460  Biso   1.000  H
  H19      1.0000 0.83100  0.35140  0.45700  Biso   1.000  H
  H20      1.0000 0.94610  0.71230  0.65460  Biso   1.000  H
  H21      1.0000 0.64860  0.47960  0.45700  Biso   1.000  H
  H22      1.0000 0.28770  0.23380  0.65460  Biso   1.000  H
  H23      1.0000 0.52040  0.16900  0.45700  Biso   1.000  H
  H24      1.0000 0.76620  0.05390  0.65460  Biso   1.000  H
  H25      1.0000 0.47960  0.64860  0.95700  Biso   1.000  H
  H26      1.0000 0.23380  0.28770  0.15460  Biso   1.000  H
  H27      1.0000 0.16900  0.52040  0.95700  Biso   1.000  H
  H28      1.0000 0.05390  0.76620  0.15460  Biso   1.000  H
  H29      1.0000 0.35140  0.83100  0.95700  Biso   1.000  H
  H30      1.0000 0.71230  0.94610  0.15460  Biso   1.000  H
  H31      1.0000 0.52040  0.35140  0.95700  Biso   1.000  H
  H32      1.0000 0.76620  0.71230  0.15460  Biso   1.000  H
  H33      1.0000 0.83100  0.47960  0.95700  Biso   1.000  H
  H34      1.0000 0.94610  0.23380  0.15460  Biso   1.000  H
  H35      1.0000 0.64860  0.16900  0.95700  Biso   1.000  H
  H36      1.0000 0.28770  0.05390  0.15460  Biso   1.000  H
  H37      1.0000 0.83100  0.35140  0.54300  Biso   1.000  H
  H38      1.0000 0.94610  0.71230  0.34540  Biso   1.000  H
  H39      1.0000 0.64860  0.47960  0.54300  Biso   1.000  H
  H40      1.0000 0.28770  0.23380  0.34540  Biso   1.000  H
  H41      1.0000 0.52040  0.16900  0.54300  Biso   1.000  H
  H42      1.0000 0.76620  0.05390  0.34540  Biso   1.000  H
  H43      1.0000 0.16900  0.64860  0.54300  Biso   1.000  H
  H44      1.0000 0.05390  0.28770  0.34540  Biso   1.000  H
  H45      1.0000 0.35140  0.52040  0.54300  Biso   1.000  H
  H46      1.0000 0.71230  0.76620  0.34540  Biso   1.000  H
  H47      1.0000 0.47960  0.83100  0.54300  Biso   1.000  H
  H48      1.0000 0.23380  0.94610  0.34540  Biso   1.000  H
  H49      1.0000 0.90040  0.80080  0.75000  Biso   1.000  H
  H50      1.0000 0.90040  0.09960  0.75000  Biso   1.000  H
  H51      1.0000 0.19920  0.09960  0.75000  Biso   1.000  H
  H52      1.0000 0.09960  0.19920  0.75000  Biso   1.000  H
  H53      1.0000 0.09960  0.90040  0.75000  Biso   1.000  H
  H54      1.0000 0.80080  0.90040  0.75000  Biso   1.000  H
  H55      1.0000 0.09960  0.19920  0.25000  Biso   1.000  H
  H56      1.0000 0.09960  0.90040  0.25000  Biso   1.000  H
  H57      1.0000 0.80080  0.90040  0.25000  Biso   1.000  H
  H58      1.0000 0.90040  0.80080  0.25000  Biso   1.000  H
  H59      1.0000 0.90040  0.09960  0.25000  Biso   1.000  H
  H60      1.0000 0.19920  0.09960  0.25000  Biso   1.000  H
  C1       1.0000 0.64610  0.50960  0.86150  Biso   1.000  C
  C2       1.0000 0.73510  0.57470  0.80400  Biso   1.000  C
  C3       1.0000 0.78530  0.67820  0.80660  Biso   1.000  C
  C4       1.0000 0.86350  0.35390  0.86150  Biso   1.000  C
  C5       1.0000 0.83960  0.26490  0.80400  Biso   1.000  C
  C6       1.0000 0.89290  0.21470  0.80660  Biso   1.000  C
  C7       1.0000 0.49040  0.13650  0.86150  Biso   1.000  C
  C8       1.0000 0.42530  0.16040  0.80400  Biso   1.000  C
  C9       1.0000 0.32180  0.10710  0.80660  Biso   1.000  C
  C10      1.0000 0.35390  0.49040  0.86150  Biso   1.000  C
  C11      1.0000 0.26490  0.42530  0.80400  Biso   1.000  C
  C12      1.0000 0.21470  0.32180  0.80660  Biso   1.000  C
  C13      1.0000 0.13650  0.64610  0.86150  Biso   1.000  C
  C14      1.0000 0.16040  0.73510  0.80400  Biso   1.000  C
  C15      1.0000 0.10710  0.78530  0.80660  Biso   1.000  C
  C16      1.0000 0.50960  0.86350  0.86150  Biso   1.000  C
  C17      1.0000 0.57470  0.83960  0.80400  Biso   1.000  C
  C18      1.0000 0.67820  0.89290  0.80660  Biso   1.000  C
  C19      1.0000 0.13650  0.49040  0.63850  Biso   1.000  C
  C20      1.0000 0.16040  0.42530  0.69600  Biso   1.000  C
  C21      1.0000 0.10710  0.32180  0.69340  Biso   1.000  C
  C22      1.0000 0.50960  0.64610  0.63850  Biso   1.000  C
  C23      1.0000 0.57470  0.73510  0.69600  Biso   1.000  C
  C24      1.0000 0.67820  0.78530  0.69340  Biso   1.000  C
  C25      1.0000 0.35390  0.86350  0.63850  Biso   1.000  C
  C26      1.0000 0.26490  0.83960  0.69600  Biso   1.000  C
  C27      1.0000 0.21470  0.89290  0.69340  Biso   1.000  C
  C28      1.0000 0.86350  0.50960  0.63850  Biso   1.000  C
  C29      1.0000 0.83960  0.57470  0.69600  Biso   1.000  C
  C30      1.0000 0.89290  0.67820  0.69340  Biso   1.000  C
  C31      1.0000 0.49040  0.35390  0.63850  Biso   1.000  C
  C32      1.0000 0.42530  0.26490  0.69600  Biso   1.000  C
  C33      1.0000 0.32180  0.21470  0.69340  Biso   1.000  C
  C34      1.0000 0.64610  0.13650  0.63850  Biso   1.000  C
  C35      1.0000 0.73510  0.16040  0.69600  Biso   1.000  C
  C36      1.0000 0.78530  0.10710  0.69340  Biso   1.000  C
  C37      1.0000 0.35390  0.49040  0.13850  Biso   1.000  C
  C38      1.0000 0.26490  0.42530  0.19600  Biso   1.000  C
  C39      1.0000 0.21470  0.32180  0.19340  Biso   1.000  C
  C40      1.0000 0.13650  0.64610  0.13850  Biso   1.000  C
  C41      1.0000 0.16040  0.73510  0.19600  Biso   1.000  C
  C42      1.0000 0.10710  0.78530  0.19340  Biso   1.000  C
  C43      1.0000 0.50960  0.86350  0.13850  Biso   1.000  C
  C44      1.0000 0.57470  0.83960  0.19600  Biso   1.000  C
  C45      1.0000 0.67820  0.89290  0.19340  Biso   1.000  C
  C46      1.0000 0.64610  0.50960  0.13850  Biso   1.000  C
  C47      1.0000 0.73510  0.57470  0.19600  Biso   1.000  C
  C48      1.0000 0.78530  0.67820  0.19340  Biso   1.000  C
  C49      1.0000 0.86350  0.35390  0.13850  Biso   1.000  C
  C50      1.0000 0.83960  0.26490  0.19600  Biso   1.000  C
  C51      1.0000 0.89290  0.21470  0.19340  Biso   1.000  C
  C52      1.0000 0.49040  0.13650  0.13850  Biso   1.000  C
  C53      1.0000 0.42530  0.16040  0.19600  Biso   1.000  C
  C54      1.0000 0.32180  0.10710  0.19340  Biso   1.000  C
  C55      1.0000 0.86350  0.50960  0.36150  Biso   1.000  C
  C56      1.0000 0.83960  0.57470  0.30400  Biso   1.000  C
  C57      1.0000 0.89290  0.67820  0.30660  Biso   1.000  C
  C58      1.0000 0.49040  0.35390  0.36150  Biso   1.000  C
  C59      1.0000 0.42530  0.26490  0.30400  Biso   1.000  C
  C60      1.0000 0.32180  0.21470  0.30660  Biso   1.000  C
  C61      1.0000 0.64610  0.13650  0.36150  Biso   1.000  C
  C62      1.0000 0.73510  0.16040  0.30400  Biso   1.000  C
  C63      1.0000 0.78530  0.10710  0.30660  Biso   1.000  C
  C64      1.0000 0.13650  0.49040  0.36150  Biso   1.000  C
  C65      1.0000 0.16040  0.42530  0.30400  Biso   1.000  C
  C66      1.0000 0.10710  0.32180  0.30660  Biso   1.000  C
  C67      1.0000 0.50960  0.64610  0.36150  Biso   1.000  C
  C68      1.0000 0.57470  0.73510  0.30400  Biso   1.000  C
  C69      1.0000 0.67820  0.78530  0.30660  Biso   1.000  C
  C70      1.0000 0.35390  0.86350  0.36150  Biso   1.000  C
  C71      1.0000 0.26490  0.83960  0.30400  Biso   1.000  C
  C72      1.0000 0.21470  0.89290  0.30660  Biso   1.000  C
  C73      1.0000 0.86520  0.73040  0.75000  Biso   1.000  C
  C74      1.0000 0.86520  0.13480  0.75000  Biso   1.000  C
  C75      1.0000 0.26960  0.13480  0.75000  Biso   1.000  C
  C76      1.0000 0.13480  0.26960  0.75000  Biso   1.000  C
  C77      1.0000 0.13480  0.86520  0.75000  Biso   1.000  C
  C78      1.0000 0.73040  0.86520  0.75000  Biso   1.000  C
  C79      1.0000 0.13480  0.26960  0.25000  Biso   1.000  C
  C80      1.0000 0.13480  0.86520  0.25000  Biso   1.000  C
  C81      1.0000 0.73040  0.86520  0.25000  Biso   1.000  C
  C82      1.0000 0.86520  0.73040  0.25000  Biso   1.000  C
  C83      1.0000 0.86520  0.13480  0.25000  Biso   1.000  C
  C84      1.0000 0.26960  0.13480  0.25000  Biso   1.000  C
  N1       1.0000 0.76168  0.52336  0.75000  Biso   1.000  N
  N2       1.0000 0.76168  0.23832  0.75000  Biso   1.000  N
  N3       1.0000 0.47664  0.23832  0.75000  Biso   1.000  N
  N4       1.0000 0.23832  0.47664  0.75000  Biso   1.000  N
  N5       1.0000 0.23832  0.76168  0.75000  Biso   1.000  N
  N6       1.0000 0.52336  0.76168  0.75000  Biso   1.000  N
  N7       1.0000 0.23832  0.47664  0.25000  Biso   1.000  N
  N8       1.0000 0.23832  0.76168  0.25000  Biso   1.000  N
  N9       1.0000 0.52336  0.76168  0.25000  Biso   1.000  N
  N10      1.0000 0.76168  0.52336  0.25000  Biso   1.000  N
  N11      1.0000 0.76168  0.23832  0.25000  Biso   1.000  N
  N12      1.0000 0.47664  0.23832  0.25000  Biso   1.000  N
  O1       1.0000 0.61180  0.41420  0.85735  Biso   1.000  O
  O2       1.0000 0.61330  0.55330  0.90720  Biso   1.000  O
  O3       1.0000 0.80240  0.38820  0.85735  Biso   1.000  O
  O4       1.0000 0.94000  0.38670  0.90720  Biso   1.000  O
  O5       1.0000 0.58580  0.19760  0.85735  Biso   1.000  O
  O6       1.0000 0.44670  0.06000  0.90720  Biso   1.000  O
  O7       1.0000 0.38820  0.58580  0.85735  Biso   1.000  O
  O8       1.0000 0.38670  0.44670  0.90720  Biso   1.000  O
  O9       1.0000 0.19760  0.61180  0.85735  Biso   1.000  O
  O10      1.0000 0.06000  0.61330  0.90720  Biso   1.000  O
  O11      1.0000 0.41420  0.80240  0.85735  Biso   1.000  O
  O12      1.0000 0.55330  0.94000  0.90720  Biso   1.000  O
  O13      1.0000 0.19760  0.58580  0.64265  Biso   1.000  O
  O14      1.0000 0.06000  0.44670  0.59280  Biso   1.000  O
  O15      1.0000 0.41420  0.61180  0.64265  Biso   1.000  O
  O16      1.0000 0.55330  0.61330  0.59280  Biso   1.000  O
  O17      1.0000 0.38820  0.80240  0.64265  Biso   1.000  O
  O18      1.0000 0.38670  0.94000  0.59280  Biso   1.000  O
  O19      1.0000 0.80240  0.41420  0.64265  Biso   1.000  O
  O20      1.0000 0.94000  0.55330  0.59280  Biso   1.000  O
  O21      1.0000 0.58580  0.38820  0.64265  Biso   1.000  O
  O22      1.0000 0.44670  0.38670  0.59280  Biso   1.000  O
  O23      1.0000 0.61180  0.19760  0.64265  Biso   1.000  O
  O24      1.0000 0.61330  0.06000  0.59280  Biso   1.000  O
  O25      1.0000 0.38820  0.58580  0.14265  Biso   1.000  O
  O26      1.0000 0.38670  0.44670  0.09280  Biso   1.000  O
  O27      1.0000 0.19760  0.61180  0.14265  Biso   1.000  O
  O28      1.0000 0.06000  0.61330  0.09280  Biso   1.000  O
  O29      1.0000 0.41420  0.80240  0.14265  Biso   1.000  O
  O30      1.0000 0.55330  0.94000  0.09280  Biso   1.000  O
  O31      1.0000 0.61180  0.41420  0.14265  Biso   1.000  O
  O32      1.0000 0.61330  0.55330  0.09280  Biso   1.000  O
  O33      1.0000 0.80240  0.38820  0.14265  Biso   1.000  O
  O34      1.0000 0.94000  0.38670  0.09280  Biso   1.000  O
  O35      1.0000 0.58580  0.19760  0.14265  Biso   1.000  O
  O36      1.0000 0.44670  0.06000  0.09280  Biso   1.000  O
  O37      1.0000 0.80240  0.41420  0.35735  Biso   1.000  O
  O38      1.0000 0.94000  0.55330  0.40720  Biso   1.000  O
  O39      1.0000 0.58580  0.38820  0.35735  Biso   1.000  O
  O40      1.0000 0.44670  0.38670  0.40720  Biso   1.000  O
  O41      1.0000 0.61180  0.19760  0.35735  Biso   1.000  O
  O42      1.0000 0.61330  0.06000  0.40720  Biso   1.000  O
  O43      1.0000 0.19760  0.58580  0.35735  Biso   1.000  O
  O44      1.0000 0.06000  0.44670  0.40720  Biso   1.000  O
  O45      1.0000 0.41420  0.61180  0.35735  Biso   1.000  O
  O46      1.0000 0.55330  0.61330  0.40720  Biso   1.000  O
  O47      1.0000 0.38820  0.80240  0.35735  Biso   1.000  O
  O48      1.0000 0.38670  0.94000  0.40720  Biso   1.000  O
  O49      1.0000 0.48650  0.35270  0.00000  Biso   1.000  O
  O50      1.0000 0.86620  0.51350  0.00000  Biso   1.000  O
  O51      1.0000 0.64730  0.13380  0.00000  Biso   1.000  O
  O52      1.0000 0.51350  0.64730  0.00000  Biso   1.000  O
  O53      1.0000 0.13380  0.48650  0.00000  Biso   1.000  O
  O54      1.0000 0.35270  0.86620  0.00000  Biso   1.000  O
  O55      1.0000 0.13380  0.64730  0.50000  Biso   1.000  O
  O56      1.0000 0.35270  0.48650  0.50000  Biso   1.000  O
  O57      1.0000 0.51350  0.86620  0.50000  Biso   1.000  O
  O58      1.0000 0.86620  0.35270  0.50000  Biso   1.000  O
  O59      1.0000 0.64730  0.51350  0.50000  Biso   1.000  O
  O60      1.0000 0.48650  0.13380  0.50000  Biso   1.000  O
