data_image0
_cell_length_a       15.288
_cell_length_b       15.288
_cell_length_c       15.571
_cell_angle_alpha    90
_cell_angle_beta     90
_cell_angle_gamma    120

_symmetry_space_group_name_H-M    P 1
_symmetry_int_tables_number       1

loop_
  _symmetry_equiv_pos_as_xyz
  'x, y, z'

loop_
  _atom_site_label
  _atom_site_occupancy
  _atom_site_fract_x
  _atom_site_fract_y
  _atom_site_fract_z
  _atom_site_thermal_displace_type
  _atom_site_B_iso_or_equiv
  _atom_site_type_symbol
  Tb1      1.0000 0.33333  0.66666  0.75000  Biso   1.000  Tb
  Tb2      1.0000 0.66667  0.33334  0.75000  Biso   1.000  Tb
  Tb3      1.0000 0.66667  0.33334  0.25000  Biso   1.000  Tb
  Tb4      1.0000 0.33333  0.66666  0.25000  Biso   1.000  Tb
  Co1      1.0000 0.50000  0.50000  0.50000  Biso   1.000  Co
  Co2      1.0000 0.00000  0.50000  0.50000  Biso   1.000  Co
  Co3      1.0000 0.50000  0.00000  0.50000  Biso   1.000  Co
  Co4      1.0000 0.00000  0.50000  0.00000  Biso   1.000  Co
  Co5      1.0000 0.50000  0.50000  0.00000  Biso   1.000  Co
  Co6      1.0000 0.50000  0.00000  0.00000  Biso   1.000  Co
  H1       1.0000 0.23280  0.28700  0.65490  Biso   1.000  H
  H2       1.0000 0.05420  0.76720  0.65490  Biso   1.000  H
  H3       1.0000 0.71300  0.94580  0.65490  Biso   1.000  H
  H4       1.0000 0.76720  0.71300  0.65490  Biso   1.000  H
  H5       1.0000 0.94580  0.23280  0.65490  Biso   1.000  H
  H6       1.0000 0.28700  0.05420  0.65490  Biso   1.000  H
  H7       1.0000 0.94580  0.71300  0.84510  Biso   1.000  H
  H8       1.0000 0.28700  0.23280  0.84510  Biso   1.000  H
  H9       1.0000 0.76720  0.05420  0.84510  Biso   1.000  H
  H10      1.0000 0.05420  0.28700  0.84510  Biso   1.000  H
  H11      1.0000 0.71300  0.76720  0.84510  Biso   1.000  H
  H12      1.0000 0.23280  0.94580  0.84510  Biso   1.000  H
  H13      1.0000 0.76720  0.71300  0.34510  Biso   1.000  H
  H14      1.0000 0.94580  0.23280  0.34510  Biso   1.000  H
  H15      1.0000 0.28700  0.05420  0.34510  Biso   1.000  H
  H16      1.0000 0.23280  0.28700  0.34510  Biso   1.000  H
  H17      1.0000 0.05420  0.76720  0.34510  Biso   1.000  H
  H18      1.0000 0.71300  0.94580  0.34510  Biso   1.000  H
  H19      1.0000 0.05420  0.28700  0.15490  Biso   1.000  H
  H20      1.0000 0.71300  0.76720  0.15490  Biso   1.000  H
  H21      1.0000 0.23280  0.94580  0.15490  Biso   1.000  H
  H22      1.0000 0.94580  0.71300  0.15490  Biso   1.000  H
  H23      1.0000 0.28700  0.23280  0.15490  Biso   1.000  H
  H24      1.0000 0.76720  0.05420  0.15490  Biso   1.000  H
  H25      1.0000 0.09935  0.19870  0.75000  Biso   1.000  H
  H26      1.0000 0.09935  0.90065  0.75000  Biso   1.000  H
  H27      1.0000 0.80130  0.90065  0.75000  Biso   1.000  H
  H28      1.0000 0.90065  0.80130  0.75000  Biso   1.000  H
  H29      1.0000 0.90065  0.09935  0.75000  Biso   1.000  H
  H30      1.0000 0.19870  0.09935  0.75000  Biso   1.000  H
  H31      1.0000 0.90065  0.80130  0.25000  Biso   1.000  H
  H32      1.0000 0.90065  0.09935  0.25000  Biso   1.000  H
  H33      1.0000 0.19870  0.09935  0.25000  Biso   1.000  H
  H34      1.0000 0.09935  0.19870  0.25000  Biso   1.000  H
  H35      1.0000 0.09935  0.90065  0.25000  Biso   1.000  H
  H36      1.0000 0.80130  0.90065  0.25000  Biso   1.000  H
  C1       1.0000 0.35410  0.49120  0.63870  Biso   1.000  C
  C2       1.0000 0.26510  0.42610  0.69620  Biso   1.000  C
  C3       1.0000 0.21400  0.32110  0.69350  Biso   1.000  C
  C4       1.0000 0.13710  0.64590  0.63870  Biso   1.000  C
  C5       1.0000 0.16100  0.73490  0.69620  Biso   1.000  C
  C6       1.0000 0.10710  0.78600  0.69350  Biso   1.000  C
  C7       1.0000 0.50880  0.86290  0.63870  Biso   1.000  C
  C8       1.0000 0.57390  0.83900  0.69620  Biso   1.000  C
  C9       1.0000 0.67890  0.89290  0.69350  Biso   1.000  C
  C10      1.0000 0.64590  0.50880  0.63870  Biso   1.000  C
  C11      1.0000 0.73490  0.57390  0.69620  Biso   1.000  C
  C12      1.0000 0.78600  0.67890  0.69350  Biso   1.000  C
  C13      1.0000 0.86290  0.35410  0.63870  Biso   1.000  C
  C14      1.0000 0.83900  0.26510  0.69620  Biso   1.000  C
  C15      1.0000 0.89290  0.21400  0.69350  Biso   1.000  C
  C16      1.0000 0.49120  0.13710  0.63870  Biso   1.000  C
  C17      1.0000 0.42610  0.16100  0.69620  Biso   1.000  C
  C18      1.0000 0.32110  0.10710  0.69350  Biso   1.000  C
  C19      1.0000 0.86290  0.50880  0.86130  Biso   1.000  C
  C20      1.0000 0.83900  0.57390  0.80380  Biso   1.000  C
  C21      1.0000 0.89290  0.67890  0.80650  Biso   1.000  C
  C22      1.0000 0.49120  0.35410  0.86130  Biso   1.000  C
  C23      1.0000 0.42610  0.26510  0.80380  Biso   1.000  C
  C24      1.0000 0.32110  0.21400  0.80650  Biso   1.000  C
  C25      1.0000 0.64590  0.13710  0.86130  Biso   1.000  C
  C26      1.0000 0.73490  0.16100  0.80380  Biso   1.000  C
  C27      1.0000 0.78600  0.10710  0.80650  Biso   1.000  C
  C28      1.0000 0.13710  0.49120  0.86130  Biso   1.000  C
  C29      1.0000 0.16100  0.42610  0.80380  Biso   1.000  C
  C30      1.0000 0.10710  0.32110  0.80650  Biso   1.000  C
  C31      1.0000 0.50880  0.64590  0.86130  Biso   1.000  C
  C32      1.0000 0.57390  0.73490  0.80380  Biso   1.000  C
  C33      1.0000 0.67890  0.78600  0.80650  Biso   1.000  C
  C34      1.0000 0.35410  0.86290  0.86130  Biso   1.000  C
  C35      1.0000 0.26510  0.83900  0.80380  Biso   1.000  C
  C36      1.0000 0.21400  0.89290  0.80650  Biso   1.000  C
  C37      1.0000 0.64590  0.50880  0.36130  Biso   1.000  C
  C38      1.0000 0.73490  0.57390  0.30380  Biso   1.000  C
  C39      1.0000 0.78600  0.67890  0.30650  Biso   1.000  C
  C40      1.0000 0.86290  0.35410  0.36130  Biso   1.000  C
  C41      1.0000 0.83900  0.26510  0.30380  Biso   1.000  C
  C42      1.0000 0.89290  0.21400  0.30650  Biso   1.000  C
  C43      1.0000 0.49120  0.13710  0.36130  Biso   1.000  C
  C44      1.0000 0.42610  0.16100  0.30380  Biso   1.000  C
  C45      1.0000 0.32110  0.10710  0.30650  Biso   1.000  C
  C46      1.0000 0.35410  0.49120  0.36130  Biso   1.000  C
  C47      1.0000 0.26510  0.42610  0.30380  Biso   1.000  C
  C48      1.0000 0.21400  0.32110  0.30650  Biso   1.000  C
  C49      1.0000 0.13710  0.64590  0.36130  Biso   1.000  C
  C50      1.0000 0.16100  0.73490  0.30380  Biso   1.000  C
  C51      1.0000 0.10710  0.78600  0.30650  Biso   1.000  C
  C52      1.0000 0.50880  0.86290  0.36130  Biso   1.000  C
  C53      1.0000 0.57390  0.83900  0.30380  Biso   1.000  C
  C54      1.0000 0.67890  0.89290  0.30650  Biso   1.000  C
  C55      1.0000 0.13710  0.49120  0.13870  Biso   1.000  C
  C56      1.0000 0.16100  0.42610  0.19620  Biso   1.000  C
  C57      1.0000 0.10710  0.32110  0.19350  Biso   1.000  C
  C58      1.0000 0.50880  0.64590  0.13870  Biso   1.000  C
  C59      1.0000 0.57390  0.73490  0.19620  Biso   1.000  C
  C60      1.0000 0.67890  0.78600  0.19350  Biso   1.000  C
  C61      1.0000 0.35410  0.86290  0.13870  Biso   1.000  C
  C62      1.0000 0.26510  0.83900  0.19620  Biso   1.000  C
  C63      1.0000 0.21400  0.89290  0.19350  Biso   1.000  C
  C64      1.0000 0.86290  0.50880  0.13870  Biso   1.000  C
  C65      1.0000 0.83900  0.57390  0.19620  Biso   1.000  C
  C66      1.0000 0.89290  0.67890  0.19350  Biso   1.000  C
  C67      1.0000 0.49120  0.35410  0.13870  Biso   1.000  C
  C68      1.0000 0.42610  0.26510  0.19620  Biso   1.000  C
  C69      1.0000 0.32110  0.21400  0.19350  Biso   1.000  C
  C70      1.0000 0.64590  0.13710  0.13870  Biso   1.000  C
  C71      1.0000 0.73490  0.16100  0.19620  Biso   1.000  C
  C72      1.0000 0.78600  0.10710  0.19350  Biso   1.000  C
  C73      1.0000 0.13445  0.26890  0.75000  Biso   1.000  C
  C74      1.0000 0.13445  0.86555  0.75000  Biso   1.000  C
  C75      1.0000 0.73110  0.86555  0.75000  Biso   1.000  C
  C76      1.0000 0.86555  0.73110  0.75000  Biso   1.000  C
  C77      1.0000 0.86555  0.13445  0.75000  Biso   1.000  C
  C78      1.0000 0.26890  0.13445  0.75000  Biso   1.000  C
  C79      1.0000 0.86555  0.73110  0.25000  Biso   1.000  C
  C80      1.0000 0.86555  0.13445  0.25000  Biso   1.000  C
  C81      1.0000 0.26890  0.13445  0.25000  Biso   1.000  C
  C82      1.0000 0.13445  0.26890  0.25000  Biso   1.000  C
  C83      1.0000 0.13445  0.86555  0.25000  Biso   1.000  C
  C84      1.0000 0.73110  0.86555  0.25000  Biso   1.000  C
  N1       1.0000 0.23881  0.47762  0.75000  Biso   1.000  N
  N2       1.0000 0.23881  0.76119  0.75000  Biso   1.000  N
  N3       1.0000 0.52238  0.76119  0.75000  Biso   1.000  N
  N4       1.0000 0.76119  0.52238  0.75000  Biso   1.000  N
  N5       1.0000 0.76119  0.23881  0.75000  Biso   1.000  N
  N6       1.0000 0.47762  0.23881  0.75000  Biso   1.000  N
  N7       1.0000 0.76119  0.52238  0.25000  Biso   1.000  N
  N8       1.0000 0.76119  0.23881  0.25000  Biso   1.000  N
  N9       1.0000 0.47762  0.23881  0.25000  Biso   1.000  N
  N10      1.0000 0.23881  0.47762  0.25000  Biso   1.000  N
  N11      1.0000 0.23881  0.76119  0.25000  Biso   1.000  N
  N12      1.0000 0.52238  0.76119  0.25000  Biso   1.000  N
  O1       1.0000 0.38880  0.58710  0.64337  Biso   1.000  O
  O2       1.0000 0.38660  0.44710  0.59240  Biso   1.000  O
  O3       1.0000 0.19830  0.61120  0.64337  Biso   1.000  O
  O4       1.0000 0.06050  0.61340  0.59240  Biso   1.000  O
  O5       1.0000 0.41290  0.80170  0.64337  Biso   1.000  O
  O6       1.0000 0.55290  0.93950  0.59240  Biso   1.000  O
  O7       1.0000 0.61120  0.41290  0.64337  Biso   1.000  O
  O8       1.0000 0.61340  0.55290  0.59240  Biso   1.000  O
  O9       1.0000 0.80170  0.38880  0.64337  Biso   1.000  O
  O10      1.0000 0.93950  0.38660  0.59240  Biso   1.000  O
  O11      1.0000 0.58710  0.19830  0.64337  Biso   1.000  O
  O12      1.0000 0.44710  0.06050  0.59240  Biso   1.000  O
  O13      1.0000 0.80170  0.41290  0.85663  Biso   1.000  O
  O14      1.0000 0.93950  0.55290  0.90760  Biso   1.000  O
  O15      1.0000 0.58710  0.38880  0.85663  Biso   1.000  O
  O16      1.0000 0.44710  0.38660  0.90760  Biso   1.000  O
  O17      1.0000 0.61120  0.19830  0.85663  Biso   1.000  O
  O18      1.0000 0.61340  0.06050  0.90760  Biso   1.000  O
  O19      1.0000 0.19830  0.58710  0.85663  Biso   1.000  O
  O20      1.0000 0.06050  0.44710  0.90760  Biso   1.000  O
  O21      1.0000 0.41290  0.61120  0.85663  Biso   1.000  O
  O22      1.0000 0.55290  0.61340  0.90760  Biso   1.000  O
  O23      1.0000 0.38880  0.80170  0.85663  Biso   1.000  O
  O24      1.0000 0.38660  0.93950  0.90760  Biso   1.000  O
  O25      1.0000 0.61120  0.41290  0.35663  Biso   1.000  O
  O26      1.0000 0.61340  0.55290  0.40760  Biso   1.000  O
  O27      1.0000 0.80170  0.38880  0.35663  Biso   1.000  O
  O28      1.0000 0.93950  0.38660  0.40760  Biso   1.000  O
  O29      1.0000 0.58710  0.19830  0.35663  Biso   1.000  O
  O30      1.0000 0.44710  0.06050  0.40760  Biso   1.000  O
  O31      1.0000 0.38880  0.58710  0.35663  Biso   1.000  O
  O32      1.0000 0.38660  0.44710  0.40760  Biso   1.000  O
  O33      1.0000 0.19830  0.61120  0.35663  Biso   1.000  O
  O34      1.0000 0.06050  0.61340  0.40760  Biso   1.000  O
  O35      1.0000 0.41290  0.80170  0.35663  Biso   1.000  O
  O36      1.0000 0.55290  0.93950  0.40760  Biso   1.000  O
  O37      1.0000 0.19830  0.58710  0.14337  Biso   1.000  O
  O38      1.0000 0.06050  0.44710  0.09240  Biso   1.000  O
  O39      1.0000 0.41290  0.61120  0.14337  Biso   1.000  O
  O40      1.0000 0.55290  0.61340  0.09240  Biso   1.000  O
  O41      1.0000 0.38880  0.80170  0.14337  Biso   1.000  O
  O42      1.0000 0.38660  0.93950  0.09240  Biso   1.000  O
  O43      1.0000 0.80170  0.41290  0.14337  Biso   1.000  O
  O44      1.0000 0.93950  0.55290  0.09240  Biso   1.000  O
  O45      1.0000 0.58710  0.38880  0.14337  Biso   1.000  O
  O46      1.0000 0.44710  0.38660  0.09240  Biso   1.000  O
  O47      1.0000 0.61120  0.19830  0.14337  Biso   1.000  O
  O48      1.0000 0.61340  0.06050  0.09240  Biso   1.000  O
  O49      1.0000 0.48670  0.35170  0.50000  Biso   1.000  O
  O50      1.0000 0.86500  0.51330  0.50000  Biso   1.000  O
  O51      1.0000 0.64830  0.13500  0.50000  Biso   1.000  O
  O52      1.0000 0.51330  0.64830  0.50000  Biso   1.000  O
  O53      1.0000 0.13500  0.48670  0.50000  Biso   1.000  O
  O54      1.0000 0.35170  0.86500  0.50000  Biso   1.000  O
  O55      1.0000 0.13500  0.64830  0.00000  Biso   1.000  O
  O56      1.0000 0.35170  0.48670  0.00000  Biso   1.000  O
  O57      1.0000 0.51330  0.86500  0.00000  Biso   1.000  O
  O58      1.0000 0.86500  0.35170  0.00000  Biso   1.000  O
  O59      1.0000 0.64830  0.51330  0.00000  Biso   1.000  O
  O60      1.0000 0.48670  0.13500  0.00000  Biso   1.000  O
