data_image0
_cell_length_a       15.2196
_cell_length_b       15.2196
_cell_length_c       15.4737
_cell_angle_alpha    90
_cell_angle_beta     90
_cell_angle_gamma    120

_symmetry_space_group_name_H-M    P 1
_symmetry_int_tables_number       1

loop_
  _symmetry_equiv_pos_as_xyz
  'x, y, z'

loop_
  _atom_site_label
  _atom_site_occupancy
  _atom_site_fract_x
  _atom_site_fract_y
  _atom_site_fract_z
  _atom_site_thermal_displace_type
  _atom_site_B_iso_or_equiv
  _atom_site_type_symbol
  Dy1      1.0000 0.66667  0.33334  0.75000  Biso   1.000  Dy
  Dy2      1.0000 0.33333  0.66666  0.75000  Biso   1.000  Dy
  Dy3      1.0000 0.33333  0.66666  0.25000  Biso   1.000  Dy
  Dy4      1.0000 0.66667  0.33334  0.25000  Biso   1.000  Dy
  Co1      1.0000 0.50000  0.00000  0.50000  Biso   1.000  Co
  Co2      1.0000 0.50000  0.50000  0.50000  Biso   1.000  Co
  Co3      1.0000 0.00000  0.50000  0.50000  Biso   1.000  Co
  Co4      1.0000 0.50000  0.00000  0.00000  Biso   1.000  Co
  Co5      1.0000 0.00000  0.50000  0.00000  Biso   1.000  Co
  Co6      1.0000 0.50000  0.50000  0.00000  Biso   1.000  Co
  H1       1.0000 0.48710  0.83610  0.45310  Biso   1.000  H
  H2       1.0000 0.76610  0.05450  0.65510  Biso   1.000  H
  H3       1.0000 0.34900  0.51290  0.45310  Biso   1.000  H
  H4       1.0000 0.28840  0.23390  0.65510  Biso   1.000  H
  H5       1.0000 0.16390  0.65100  0.45310  Biso   1.000  H
  H6       1.0000 0.94550  0.71160  0.65510  Biso   1.000  H
  H7       1.0000 0.51290  0.16390  0.45310  Biso   1.000  H
  H8       1.0000 0.23390  0.94550  0.65510  Biso   1.000  H
  H9       1.0000 0.65100  0.48710  0.45310  Biso   1.000  H
  H10      1.0000 0.71160  0.76610  0.65510  Biso   1.000  H
  H11      1.0000 0.83610  0.34900  0.45310  Biso   1.000  H
  H12      1.0000 0.05450  0.28840  0.65510  Biso   1.000  H
  H13      1.0000 0.65100  0.16390  0.04690  Biso   1.000  H
  H14      1.0000 0.71160  0.94550  0.84490  Biso   1.000  H
  H15      1.0000 0.83610  0.48710  0.04690  Biso   1.000  H
  H16      1.0000 0.05450  0.76610  0.84490  Biso   1.000  H
  H17      1.0000 0.51290  0.34900  0.04690  Biso   1.000  H
  H18      1.0000 0.23390  0.28840  0.84490  Biso   1.000  H
  H19      1.0000 0.34900  0.83610  0.04690  Biso   1.000  H
  H20      1.0000 0.28840  0.05450  0.84490  Biso   1.000  H
  H21      1.0000 0.16390  0.51290  0.04690  Biso   1.000  H
  H22      1.0000 0.94550  0.23390  0.84490  Biso   1.000  H
  H23      1.0000 0.48710  0.65100  0.04690  Biso   1.000  H
  H24      1.0000 0.76610  0.71160  0.84490  Biso   1.000  H
  H25      1.0000 0.51290  0.16390  0.54690  Biso   1.000  H
  H26      1.0000 0.23390  0.94550  0.34490  Biso   1.000  H
  H27      1.0000 0.65100  0.48710  0.54690  Biso   1.000  H
  H28      1.0000 0.71160  0.76610  0.34490  Biso   1.000  H
  H29      1.0000 0.83610  0.34900  0.54690  Biso   1.000  H
  H30      1.0000 0.05450  0.28840  0.34490  Biso   1.000  H
  H31      1.0000 0.48710  0.83610  0.54690  Biso   1.000  H
  H32      1.0000 0.76610  0.05450  0.34490  Biso   1.000  H
  H33      1.0000 0.34900  0.51290  0.54690  Biso   1.000  H
  H34      1.0000 0.28840  0.23390  0.34490  Biso   1.000  H
  H35      1.0000 0.16390  0.65100  0.54690  Biso   1.000  H
  H36      1.0000 0.94550  0.71160  0.34490  Biso   1.000  H
  H37      1.0000 0.34900  0.83610  0.95310  Biso   1.000  H
  H38      1.0000 0.28840  0.05450  0.15510  Biso   1.000  H
  H39      1.0000 0.16390  0.51290  0.95310  Biso   1.000  H
  H40      1.0000 0.94550  0.23390  0.15510  Biso   1.000  H
  H41      1.0000 0.48710  0.65100  0.95310  Biso   1.000  H
  H42      1.0000 0.76610  0.71160  0.15510  Biso   1.000  H
  H43      1.0000 0.65100  0.16390  0.95310  Biso   1.000  H
  H44      1.0000 0.71160  0.94550  0.15510  Biso   1.000  H
  H45      1.0000 0.83610  0.48710  0.95310  Biso   1.000  H
  H46      1.0000 0.05450  0.76610  0.15510  Biso   1.000  H
  H47      1.0000 0.51290  0.34900  0.95310  Biso   1.000  H
  H48      1.0000 0.23390  0.28840  0.15510  Biso   1.000  H
  H49      1.0000 0.90050  0.09950  0.75000  Biso   1.000  H
  H50      1.0000 0.19900  0.09950  0.75000  Biso   1.000  H
  H51      1.0000 0.90050  0.80100  0.75000  Biso   1.000  H
  H52      1.0000 0.09950  0.90050  0.75000  Biso   1.000  H
  H53      1.0000 0.80100  0.90050  0.75000  Biso   1.000  H
  H54      1.0000 0.09950  0.19900  0.75000  Biso   1.000  H
  H55      1.0000 0.09950  0.90050  0.25000  Biso   1.000  H
  H56      1.0000 0.80100  0.90050  0.25000  Biso   1.000  H
  H57      1.0000 0.09950  0.19900  0.25000  Biso   1.000  H
  H58      1.0000 0.90050  0.09950  0.25000  Biso   1.000  H
  H59      1.0000 0.19900  0.09950  0.25000  Biso   1.000  H
  H60      1.0000 0.90050  0.80100  0.25000  Biso   1.000  H
  C1       1.0000 0.64530  0.13800  0.63920  Biso   1.000  C
  C2       1.0000 0.73390  0.16130  0.69640  Biso   1.000  C
  C3       1.0000 0.78520  0.10780  0.69380  Biso   1.000  C
  C4       1.0000 0.49270  0.35470  0.63920  Biso   1.000  C
  C5       1.0000 0.42740  0.26610  0.69640  Biso   1.000  C
  C6       1.0000 0.32260  0.21480  0.69380  Biso   1.000  C
  C7       1.0000 0.86200  0.50730  0.63920  Biso   1.000  C
  C8       1.0000 0.83870  0.57260  0.69640  Biso   1.000  C
  C9       1.0000 0.89220  0.67740  0.69380  Biso   1.000  C
  C10      1.0000 0.35470  0.86200  0.63920  Biso   1.000  C
  C11      1.0000 0.26610  0.83870  0.69640  Biso   1.000  C
  C12      1.0000 0.21480  0.89220  0.69380  Biso   1.000  C
  C13      1.0000 0.50730  0.64530  0.63920  Biso   1.000  C
  C14      1.0000 0.57260  0.73390  0.69640  Biso   1.000  C
  C15      1.0000 0.67740  0.78520  0.69380  Biso   1.000  C
  C16      1.0000 0.13800  0.49270  0.63920  Biso   1.000  C
  C17      1.0000 0.16130  0.42740  0.69640  Biso   1.000  C
  C18      1.0000 0.10780  0.32260  0.69380  Biso   1.000  C
  C19      1.0000 0.50730  0.86200  0.86080  Biso   1.000  C
  C20      1.0000 0.57260  0.83870  0.80360  Biso   1.000  C
  C21      1.0000 0.67740  0.89220  0.80620  Biso   1.000  C
  C22      1.0000 0.13800  0.64530  0.86080  Biso   1.000  C
  C23      1.0000 0.16130  0.73390  0.80360  Biso   1.000  C
  C24      1.0000 0.10780  0.78520  0.80620  Biso   1.000  C
  C25      1.0000 0.35470  0.49270  0.86080  Biso   1.000  C
  C26      1.0000 0.26610  0.42740  0.80360  Biso   1.000  C
  C27      1.0000 0.21480  0.32260  0.80620  Biso   1.000  C
  C28      1.0000 0.49270  0.13800  0.86080  Biso   1.000  C
  C29      1.0000 0.42740  0.16130  0.80360  Biso   1.000  C
  C30      1.0000 0.32260  0.10780  0.80620  Biso   1.000  C
  C31      1.0000 0.86200  0.35470  0.86080  Biso   1.000  C
  C32      1.0000 0.83870  0.26610  0.80360  Biso   1.000  C
  C33      1.0000 0.89220  0.21480  0.80620  Biso   1.000  C
  C34      1.0000 0.64530  0.50730  0.86080  Biso   1.000  C
  C35      1.0000 0.73390  0.57260  0.80360  Biso   1.000  C
  C36      1.0000 0.78520  0.67740  0.80620  Biso   1.000  C
  C37      1.0000 0.35470  0.86200  0.36080  Biso   1.000  C
  C38      1.0000 0.26610  0.83870  0.30360  Biso   1.000  C
  C39      1.0000 0.21480  0.89220  0.30620  Biso   1.000  C
  C40      1.0000 0.50730  0.64530  0.36080  Biso   1.000  C
  C41      1.0000 0.57260  0.73390  0.30360  Biso   1.000  C
  C42      1.0000 0.67740  0.78520  0.30620  Biso   1.000  C
  C43      1.0000 0.13800  0.49270  0.36080  Biso   1.000  C
  C44      1.0000 0.16130  0.42740  0.30360  Biso   1.000  C
  C45      1.0000 0.10780  0.32260  0.30620  Biso   1.000  C
  C46      1.0000 0.64530  0.13800  0.36080  Biso   1.000  C
  C47      1.0000 0.73390  0.16130  0.30360  Biso   1.000  C
  C48      1.0000 0.78520  0.10780  0.30620  Biso   1.000  C
  C49      1.0000 0.49270  0.35470  0.36080  Biso   1.000  C
  C50      1.0000 0.42740  0.26610  0.30360  Biso   1.000  C
  C51      1.0000 0.32260  0.21480  0.30620  Biso   1.000  C
  C52      1.0000 0.86200  0.50730  0.36080  Biso   1.000  C
  C53      1.0000 0.83870  0.57260  0.30360  Biso   1.000  C
  C54      1.0000 0.89220  0.67740  0.30620  Biso   1.000  C
  C55      1.0000 0.49270  0.13800  0.13920  Biso   1.000  C
  C56      1.0000 0.42740  0.16130  0.19640  Biso   1.000  C
  C57      1.0000 0.32260  0.10780  0.19380  Biso   1.000  C
  C58      1.0000 0.86200  0.35470  0.13920  Biso   1.000  C
  C59      1.0000 0.83870  0.26610  0.19640  Biso   1.000  C
  C60      1.0000 0.89220  0.21480  0.19380  Biso   1.000  C
  C61      1.0000 0.64530  0.50730  0.13920  Biso   1.000  C
  C62      1.0000 0.73390  0.57260  0.19640  Biso   1.000  C
  C63      1.0000 0.78520  0.67740  0.19380  Biso   1.000  C
  C64      1.0000 0.50730  0.86200  0.13920  Biso   1.000  C
  C65      1.0000 0.57260  0.83870  0.19640  Biso   1.000  C
  C66      1.0000 0.67740  0.89220  0.19380  Biso   1.000  C
  C67      1.0000 0.13800  0.64530  0.13920  Biso   1.000  C
  C68      1.0000 0.16130  0.73390  0.19640  Biso   1.000  C
  C69      1.0000 0.10780  0.78520  0.19380  Biso   1.000  C
  C70      1.0000 0.35470  0.49270  0.13920  Biso   1.000  C
  C71      1.0000 0.26610  0.42740  0.19640  Biso   1.000  C
  C72      1.0000 0.21480  0.32260  0.19380  Biso   1.000  C
  C73      1.0000 0.86525  0.13475  0.75000  Biso   1.000  C
  C74      1.0000 0.26950  0.13475  0.75000  Biso   1.000  C
  C75      1.0000 0.86525  0.73050  0.75000  Biso   1.000  C
  C76      1.0000 0.13475  0.86525  0.75000  Biso   1.000  C
  C77      1.0000 0.73050  0.86525  0.75000  Biso   1.000  C
  C78      1.0000 0.13475  0.26950  0.75000  Biso   1.000  C
  C79      1.0000 0.13475  0.86525  0.25000  Biso   1.000  C
  C80      1.0000 0.73050  0.86525  0.25000  Biso   1.000  C
  C81      1.0000 0.13475  0.26950  0.25000  Biso   1.000  C
  C82      1.0000 0.86525  0.13475  0.25000  Biso   1.000  C
  C83      1.0000 0.26950  0.13475  0.25000  Biso   1.000  C
  C84      1.0000 0.86525  0.73050  0.25000  Biso   1.000  C
  N1       1.0000 0.76060  0.23940  0.75000  Biso   1.000  N
  N2       1.0000 0.47880  0.23940  0.75000  Biso   1.000  N
  N3       1.0000 0.76060  0.52120  0.75000  Biso   1.000  N
  N4       1.0000 0.23940  0.76060  0.75000  Biso   1.000  N
  N5       1.0000 0.52120  0.76060  0.75000  Biso   1.000  N
  N6       1.0000 0.23940  0.47880  0.75000  Biso   1.000  N
  N7       1.0000 0.23940  0.76060  0.25000  Biso   1.000  N
  N8       1.0000 0.52120  0.76060  0.25000  Biso   1.000  N
  N9       1.0000 0.23940  0.47880  0.25000  Biso   1.000  N
  N10      1.0000 0.76060  0.23940  0.25000  Biso   1.000  N
  N11      1.0000 0.47880  0.23940  0.25000  Biso   1.000  N
  N12      1.0000 0.76060  0.52120  0.25000  Biso   1.000  N
  O1       1.0000 0.61290  0.06160  0.59250  Biso   1.000  O
  O2       1.0000 0.61120  0.19900  0.64338  Biso   1.000  O
  O3       1.0000 0.44870  0.38710  0.59250  Biso   1.000  O
  O4       1.0000 0.58780  0.38880  0.64338  Biso   1.000  O
  O5       1.0000 0.93840  0.55130  0.59250  Biso   1.000  O
  O6       1.0000 0.80100  0.41220  0.64338  Biso   1.000  O
  O7       1.0000 0.38710  0.93840  0.59250  Biso   1.000  O
  O8       1.0000 0.38880  0.80100  0.64338  Biso   1.000  O
  O9       1.0000 0.55130  0.61290  0.59250  Biso   1.000  O
  O10      1.0000 0.41220  0.61120  0.64338  Biso   1.000  O
  O11      1.0000 0.06160  0.44870  0.59250  Biso   1.000  O
  O12      1.0000 0.19900  0.58780  0.64338  Biso   1.000  O
  O13      1.0000 0.55130  0.93840  0.90750  Biso   1.000  O
  O14      1.0000 0.41220  0.80100  0.85662  Biso   1.000  O
  O15      1.0000 0.06160  0.61290  0.90750  Biso   1.000  O
  O16      1.0000 0.19900  0.61120  0.85662  Biso   1.000  O
  O17      1.0000 0.38710  0.44870  0.90750  Biso   1.000  O
  O18      1.0000 0.38880  0.58780  0.85662  Biso   1.000  O
  O19      1.0000 0.44870  0.06160  0.90750  Biso   1.000  O
  O20      1.0000 0.58780  0.19900  0.85662  Biso   1.000  O
  O21      1.0000 0.93840  0.38710  0.90750  Biso   1.000  O
  O22      1.0000 0.80100  0.38880  0.85662  Biso   1.000  O
  O23      1.0000 0.61290  0.55130  0.90750  Biso   1.000  O
  O24      1.0000 0.61120  0.41220  0.85662  Biso   1.000  O
  O25      1.0000 0.38710  0.93840  0.40750  Biso   1.000  O
  O26      1.0000 0.38880  0.80100  0.35662  Biso   1.000  O
  O27      1.0000 0.55130  0.61290  0.40750  Biso   1.000  O
  O28      1.0000 0.41220  0.61120  0.35662  Biso   1.000  O
  O29      1.0000 0.06160  0.44870  0.40750  Biso   1.000  O
  O30      1.0000 0.19900  0.58780  0.35662  Biso   1.000  O
  O31      1.0000 0.61290  0.06160  0.40750  Biso   1.000  O
  O32      1.0000 0.61120  0.19900  0.35662  Biso   1.000  O
  O33      1.0000 0.44870  0.38710  0.40750  Biso   1.000  O
  O34      1.0000 0.58780  0.38880  0.35662  Biso   1.000  O
  O35      1.0000 0.93840  0.55130  0.40750  Biso   1.000  O
  O36      1.0000 0.80100  0.41220  0.35662  Biso   1.000  O
  O37      1.0000 0.44870  0.06160  0.09250  Biso   1.000  O
  O38      1.0000 0.58780  0.19900  0.14338  Biso   1.000  O
  O39      1.0000 0.93840  0.38710  0.09250  Biso   1.000  O
  O40      1.0000 0.80100  0.38880  0.14338  Biso   1.000  O
  O41      1.0000 0.61290  0.55130  0.09250  Biso   1.000  O
  O42      1.0000 0.61120  0.41220  0.14338  Biso   1.000  O
  O43      1.0000 0.55130  0.93840  0.09250  Biso   1.000  O
  O44      1.0000 0.41220  0.80100  0.14338  Biso   1.000  O
  O45      1.0000 0.06160  0.61290  0.09250  Biso   1.000  O
  O46      1.0000 0.19900  0.61120  0.14338  Biso   1.000  O
  O47      1.0000 0.38710  0.44870  0.09250  Biso   1.000  O
  O48      1.0000 0.38880  0.58780  0.14338  Biso   1.000  O
  O49      1.0000 0.51440  0.86510  0.50000  Biso   1.000  O
  O50      1.0000 0.35070  0.48560  0.50000  Biso   1.000  O
  O51      1.0000 0.13490  0.64930  0.50000  Biso   1.000  O
  O52      1.0000 0.48560  0.13490  0.50000  Biso   1.000  O
  O53      1.0000 0.64930  0.51440  0.50000  Biso   1.000  O
  O54      1.0000 0.86510  0.35070  0.50000  Biso   1.000  O
  O55      1.0000 0.64930  0.13490  0.00000  Biso   1.000  O
  O56      1.0000 0.86510  0.51440  0.00000  Biso   1.000  O
  O57      1.0000 0.48560  0.35070  0.00000  Biso   1.000  O
  O58      1.0000 0.35070  0.86510  0.00000  Biso   1.000  O
  O59      1.0000 0.13490  0.48560  0.00000  Biso   1.000  O
  O60      1.0000 0.51440  0.64930  0.00000  Biso   1.000  O
