data_image0
_cell_length_a       15.165
_cell_length_b       15.165
_cell_length_c       15.713
_cell_angle_alpha    90
_cell_angle_beta     90
_cell_angle_gamma    120

_symmetry_space_group_name_H-M    P 1
_symmetry_int_tables_number       1

loop_
  _symmetry_equiv_pos_as_xyz
  'x, y, z'

loop_
  _atom_site_label
  _atom_site_occupancy
  _atom_site_fract_x
  _atom_site_fract_y
  _atom_site_fract_z
  _atom_site_thermal_displace_type
  _atom_site_B_iso_or_equiv
  _atom_site_type_symbol
  Er1      1.0000 0.66667  0.33334  0.75000  Biso   1.000  Er
  Er2      1.0000 0.33333  0.66666  0.75000  Biso   1.000  Er
  Er3      1.0000 0.33333  0.66666  0.25000  Biso   1.000  Er
  Er4      1.0000 0.66667  0.33334  0.25000  Biso   1.000  Er
  Fe1      1.0000 0.50000  0.00000  0.00000  Biso   1.000  Fe
  Fe2      1.0000 0.50000  0.50000  0.00000  Biso   1.000  Fe
  Fe3      1.0000 0.00000  0.50000  0.00000  Biso   1.000  Fe
  Fe4      1.0000 0.50000  0.00000  0.50000  Biso   1.000  Fe
  Fe5      1.0000 0.00000  0.50000  0.50000  Biso   1.000  Fe
  Fe6      1.0000 0.50000  0.50000  0.50000  Biso   1.000  Fe
  H1       1.0000 0.28850  0.05650  0.84560  Biso   1.000  H
  H2       1.0000 0.76800  0.71150  0.84560  Biso   1.000  H
  H3       1.0000 0.94350  0.23200  0.84560  Biso   1.000  H
  H4       1.0000 0.71150  0.94350  0.84560  Biso   1.000  H
  H5       1.0000 0.23200  0.28850  0.84560  Biso   1.000  H
  H6       1.0000 0.05650  0.76800  0.84560  Biso   1.000  H
  H7       1.0000 0.23200  0.94350  0.65440  Biso   1.000  H
  H8       1.0000 0.05650  0.28850  0.65440  Biso   1.000  H
  H9       1.0000 0.71150  0.76800  0.65440  Biso   1.000  H
  H10      1.0000 0.76800  0.05650  0.65440  Biso   1.000  H
  H11      1.0000 0.94350  0.71150  0.65440  Biso   1.000  H
  H12      1.0000 0.28850  0.23200  0.65440  Biso   1.000  H
  H13      1.0000 0.71150  0.94350  0.15440  Biso   1.000  H
  H14      1.0000 0.23200  0.28850  0.15440  Biso   1.000  H
  H15      1.0000 0.05650  0.76800  0.15440  Biso   1.000  H
  H16      1.0000 0.28850  0.05650  0.15440  Biso   1.000  H
  H17      1.0000 0.76800  0.71150  0.15440  Biso   1.000  H
  H18      1.0000 0.94350  0.23200  0.15440  Biso   1.000  H
  H19      1.0000 0.76800  0.05650  0.34560  Biso   1.000  H
  H20      1.0000 0.94350  0.71150  0.34560  Biso   1.000  H
  H21      1.0000 0.28850  0.23200  0.34560  Biso   1.000  H
  H22      1.0000 0.23200  0.94350  0.34560  Biso   1.000  H
  H23      1.0000 0.05650  0.28850  0.34560  Biso   1.000  H
  H24      1.0000 0.71150  0.76800  0.34560  Biso   1.000  H
  H25      1.0000 0.19990  0.09995  0.75000  Biso   1.000  H
  H26      1.0000 0.90005  0.80010  0.75000  Biso   1.000  H
  H27      1.0000 0.90005  0.09995  0.75000  Biso   1.000  H
  H28      1.0000 0.80010  0.90005  0.75000  Biso   1.000  H
  H29      1.0000 0.09995  0.19990  0.75000  Biso   1.000  H
  H30      1.0000 0.09995  0.90005  0.75000  Biso   1.000  H
  H31      1.0000 0.80010  0.90005  0.25000  Biso   1.000  H
  H32      1.0000 0.09995  0.19990  0.25000  Biso   1.000  H
  H33      1.0000 0.09995  0.90005  0.25000  Biso   1.000  H
  H34      1.0000 0.19990  0.09995  0.25000  Biso   1.000  H
  H35      1.0000 0.90005  0.80010  0.25000  Biso   1.000  H
  H36      1.0000 0.90005  0.09995  0.25000  Biso   1.000  H
  C1       1.0000 0.32290  0.10890  0.80660  Biso   1.000  C
  C2       1.0000 0.42730  0.16240  0.80360  Biso   1.000  C
  C3       1.0000 0.49340  0.14000  0.86070  Biso   1.000  C
  C4       1.0000 0.78600  0.67710  0.80660  Biso   1.000  C
  C5       1.0000 0.73510  0.57270  0.80360  Biso   1.000  C
  C6       1.0000 0.64660  0.50660  0.86070  Biso   1.000  C
  C7       1.0000 0.89110  0.21400  0.80660  Biso   1.000  C
  C8       1.0000 0.83760  0.26490  0.80360  Biso   1.000  C
  C9       1.0000 0.86000  0.35340  0.86070  Biso   1.000  C
  C10      1.0000 0.67710  0.89110  0.80660  Biso   1.000  C
  C11      1.0000 0.57270  0.83760  0.80360  Biso   1.000  C
  C12      1.0000 0.50660  0.86000  0.86070  Biso   1.000  C
  C13      1.0000 0.21400  0.32290  0.80660  Biso   1.000  C
  C14      1.0000 0.26490  0.42730  0.80360  Biso   1.000  C
  C15      1.0000 0.35340  0.49340  0.86070  Biso   1.000  C
  C16      1.0000 0.10890  0.78600  0.80660  Biso   1.000  C
  C17      1.0000 0.16240  0.73510  0.80360  Biso   1.000  C
  C18      1.0000 0.14000  0.64660  0.86070  Biso   1.000  C
  C19      1.0000 0.21400  0.89110  0.69340  Biso   1.000  C
  C20      1.0000 0.26490  0.83760  0.69640  Biso   1.000  C
  C21      1.0000 0.35340  0.86000  0.63930  Biso   1.000  C
  C22      1.0000 0.10890  0.32290  0.69340  Biso   1.000  C
  C23      1.0000 0.16240  0.42730  0.69640  Biso   1.000  C
  C24      1.0000 0.14000  0.49340  0.63930  Biso   1.000  C
  C25      1.0000 0.67710  0.78600  0.69340  Biso   1.000  C
  C26      1.0000 0.57270  0.73510  0.69640  Biso   1.000  C
  C27      1.0000 0.50660  0.64660  0.63930  Biso   1.000  C
  C28      1.0000 0.78600  0.10890  0.69340  Biso   1.000  C
  C29      1.0000 0.73510  0.16240  0.69640  Biso   1.000  C
  C30      1.0000 0.64660  0.14000  0.63930  Biso   1.000  C
  C31      1.0000 0.89110  0.67710  0.69340  Biso   1.000  C
  C32      1.0000 0.83760  0.57270  0.69640  Biso   1.000  C
  C33      1.0000 0.86000  0.50660  0.63930  Biso   1.000  C
  C34      1.0000 0.32290  0.21400  0.69340  Biso   1.000  C
  C35      1.0000 0.42730  0.26490  0.69640  Biso   1.000  C
  C36      1.0000 0.49340  0.35340  0.63930  Biso   1.000  C
  C37      1.0000 0.67710  0.89110  0.19340  Biso   1.000  C
  C38      1.0000 0.57270  0.83760  0.19640  Biso   1.000  C
  C39      1.0000 0.50660  0.86000  0.13930  Biso   1.000  C
  C40      1.0000 0.21400  0.32290  0.19340  Biso   1.000  C
  C41      1.0000 0.26490  0.42730  0.19640  Biso   1.000  C
  C42      1.0000 0.35340  0.49340  0.13930  Biso   1.000  C
  C43      1.0000 0.10890  0.78600  0.19340  Biso   1.000  C
  C44      1.0000 0.16240  0.73510  0.19640  Biso   1.000  C
  C45      1.0000 0.14000  0.64660  0.13930  Biso   1.000  C
  C46      1.0000 0.32290  0.10890  0.19340  Biso   1.000  C
  C47      1.0000 0.42730  0.16240  0.19640  Biso   1.000  C
  C48      1.0000 0.49340  0.14000  0.13930  Biso   1.000  C
  C49      1.0000 0.78600  0.67710  0.19340  Biso   1.000  C
  C50      1.0000 0.73510  0.57270  0.19640  Biso   1.000  C
  C51      1.0000 0.64660  0.50660  0.13930  Biso   1.000  C
  C52      1.0000 0.89110  0.21400  0.19340  Biso   1.000  C
  C53      1.0000 0.83760  0.26490  0.19640  Biso   1.000  C
  C54      1.0000 0.86000  0.35340  0.13930  Biso   1.000  C
  C55      1.0000 0.78600  0.10890  0.30660  Biso   1.000  C
  C56      1.0000 0.73510  0.16240  0.30360  Biso   1.000  C
  C57      1.0000 0.64660  0.14000  0.36070  Biso   1.000  C
  C58      1.0000 0.89110  0.67710  0.30660  Biso   1.000  C
  C59      1.0000 0.83760  0.57270  0.30360  Biso   1.000  C
  C60      1.0000 0.86000  0.50660  0.36070  Biso   1.000  C
  C61      1.0000 0.32290  0.21400  0.30660  Biso   1.000  C
  C62      1.0000 0.42730  0.26490  0.30360  Biso   1.000  C
  C63      1.0000 0.49340  0.35340  0.36070  Biso   1.000  C
  C64      1.0000 0.21400  0.89110  0.30660  Biso   1.000  C
  C65      1.0000 0.26490  0.83760  0.30360  Biso   1.000  C
  C66      1.0000 0.35340  0.86000  0.36070  Biso   1.000  C
  C67      1.0000 0.10890  0.32290  0.30660  Biso   1.000  C
  C68      1.0000 0.16240  0.42730  0.30360  Biso   1.000  C
  C69      1.0000 0.14000  0.49340  0.36070  Biso   1.000  C
  C70      1.0000 0.67710  0.78600  0.30660  Biso   1.000  C
  C71      1.0000 0.57270  0.73510  0.30360  Biso   1.000  C
  C72      1.0000 0.50660  0.64660  0.36070  Biso   1.000  C
  C73      1.0000 0.27070  0.13535  0.75000  Biso   1.000  C
  C74      1.0000 0.86465  0.72930  0.75000  Biso   1.000  C
  C75      1.0000 0.86465  0.13535  0.75000  Biso   1.000  C
  C76      1.0000 0.72930  0.86465  0.75000  Biso   1.000  C
  C77      1.0000 0.13535  0.27070  0.75000  Biso   1.000  C
  C78      1.0000 0.13535  0.86465  0.75000  Biso   1.000  C
  C79      1.0000 0.72930  0.86465  0.25000  Biso   1.000  C
  C80      1.0000 0.13535  0.27070  0.25000  Biso   1.000  C
  C81      1.0000 0.13535  0.86465  0.25000  Biso   1.000  C
  C82      1.0000 0.27070  0.13535  0.25000  Biso   1.000  C
  C83      1.0000 0.86465  0.72930  0.25000  Biso   1.000  C
  C84      1.0000 0.86465  0.13535  0.25000  Biso   1.000  C
  N1       1.0000 0.47910  0.23955  0.75000  Biso   1.000  N
  N2       1.0000 0.76045  0.52090  0.75000  Biso   1.000  N
  N3       1.0000 0.76045  0.23955  0.75000  Biso   1.000  N
  N4       1.0000 0.52090  0.76045  0.75000  Biso   1.000  N
  N5       1.0000 0.23955  0.47910  0.75000  Biso   1.000  N
  N6       1.0000 0.23955  0.76045  0.75000  Biso   1.000  N
  N7       1.0000 0.52090  0.76045  0.25000  Biso   1.000  N
  N8       1.0000 0.23955  0.47910  0.25000  Biso   1.000  N
  N9       1.0000 0.23955  0.76045  0.25000  Biso   1.000  N
  N10      1.0000 0.47910  0.23955  0.25000  Biso   1.000  N
  N11      1.0000 0.76045  0.52090  0.25000  Biso   1.000  N
  N12      1.0000 0.76045  0.23955  0.25000  Biso   1.000  N
  O1       1.0000 0.58930  0.19970  0.85550  Biso   1.000  O
  O2       1.0000 0.44920  0.06490  0.90880  Biso   1.000  O
  O3       1.0000 0.61040  0.41070  0.85550  Biso   1.000  O
  O4       1.0000 0.61570  0.55080  0.90880  Biso   1.000  O
  O5       1.0000 0.80030  0.38960  0.85550  Biso   1.000  O
  O6       1.0000 0.93510  0.38430  0.90880  Biso   1.000  O
  O7       1.0000 0.41070  0.80030  0.85550  Biso   1.000  O
  O8       1.0000 0.55080  0.93510  0.90880  Biso   1.000  O
  O9       1.0000 0.38960  0.58930  0.85550  Biso   1.000  O
  O10      1.0000 0.38430  0.44920  0.90880  Biso   1.000  O
  O11      1.0000 0.19970  0.61040  0.85550  Biso   1.000  O
  O12      1.0000 0.06490  0.61570  0.90880  Biso   1.000  O
  O13      1.0000 0.38960  0.80030  0.64450  Biso   1.000  O
  O14      1.0000 0.38430  0.93510  0.59120  Biso   1.000  O
  O15      1.0000 0.19970  0.58930  0.64450  Biso   1.000  O
  O16      1.0000 0.06490  0.44920  0.59120  Biso   1.000  O
  O17      1.0000 0.41070  0.61040  0.64450  Biso   1.000  O
  O18      1.0000 0.55080  0.61570  0.59120  Biso   1.000  O
  O19      1.0000 0.61040  0.19970  0.64450  Biso   1.000  O
  O20      1.0000 0.61570  0.06490  0.59120  Biso   1.000  O
  O21      1.0000 0.80030  0.41070  0.64450  Biso   1.000  O
  O22      1.0000 0.93510  0.55080  0.59120  Biso   1.000  O
  O23      1.0000 0.58930  0.38960  0.64450  Biso   1.000  O
  O24      1.0000 0.44920  0.38430  0.59120  Biso   1.000  O
  O25      1.0000 0.41070  0.80030  0.14450  Biso   1.000  O
  O26      1.0000 0.55080  0.93510  0.09120  Biso   1.000  O
  O27      1.0000 0.38960  0.58930  0.14450  Biso   1.000  O
  O28      1.0000 0.38430  0.44920  0.09120  Biso   1.000  O
  O29      1.0000 0.19970  0.61040  0.14450  Biso   1.000  O
  O30      1.0000 0.06490  0.61570  0.09120  Biso   1.000  O
  O31      1.0000 0.58930  0.19970  0.14450  Biso   1.000  O
  O32      1.0000 0.44920  0.06490  0.09120  Biso   1.000  O
  O33      1.0000 0.61040  0.41070  0.14450  Biso   1.000  O
  O34      1.0000 0.61570  0.55080  0.09120  Biso   1.000  O
  O35      1.0000 0.80030  0.38960  0.14450  Biso   1.000  O
  O36      1.0000 0.93510  0.38430  0.09120  Biso   1.000  O
  O37      1.0000 0.61040  0.19970  0.35550  Biso   1.000  O
  O38      1.0000 0.61570  0.06490  0.40880  Biso   1.000  O
  O39      1.0000 0.80030  0.41070  0.35550  Biso   1.000  O
  O40      1.0000 0.93510  0.55080  0.40880  Biso   1.000  O
  O41      1.0000 0.58930  0.38960  0.35550  Biso   1.000  O
  O42      1.0000 0.44920  0.38430  0.40880  Biso   1.000  O
  O43      1.0000 0.38960  0.80030  0.35550  Biso   1.000  O
  O44      1.0000 0.38430  0.93510  0.40880  Biso   1.000  O
  O45      1.0000 0.19970  0.58930  0.35550  Biso   1.000  O
  O46      1.0000 0.06490  0.44920  0.40880  Biso   1.000  O
  O47      1.0000 0.41070  0.61040  0.35550  Biso   1.000  O
  O48      1.0000 0.55080  0.61570  0.40880  Biso   1.000  O
  O49      1.0000 0.34760  0.86010  0.00000  Biso   1.000  O
  O50      1.0000 0.51250  0.65240  0.00000  Biso   1.000  O
  O51      1.0000 0.13990  0.48750  0.00000  Biso   1.000  O
  O52      1.0000 0.65240  0.13990  0.00000  Biso   1.000  O
  O53      1.0000 0.48750  0.34760  0.00000  Biso   1.000  O
  O54      1.0000 0.86010  0.51250  0.00000  Biso   1.000  O
  O55      1.0000 0.48750  0.13990  0.50000  Biso   1.000  O
  O56      1.0000 0.86010  0.34760  0.50000  Biso   1.000  O
  O57      1.0000 0.65240  0.51250  0.50000  Biso   1.000  O
  O58      1.0000 0.51250  0.86010  0.50000  Biso   1.000  O
  O59      1.0000 0.13990  0.65240  0.50000  Biso   1.000  O
  O60      1.0000 0.34760  0.48750  0.50000  Biso   1.000  O
