data_image0
_cell_length_a       15.0144
_cell_length_b       15.0144
_cell_length_c       15.6165
_cell_angle_alpha    90
_cell_angle_beta     90
_cell_angle_gamma    120

_symmetry_space_group_name_H-M    P 1
_symmetry_int_tables_number       1

loop_
  _symmetry_equiv_pos_as_xyz
  'x, y, z'

loop_
  _atom_site_label
  _atom_site_occupancy
  _atom_site_fract_x
  _atom_site_fract_y
  _atom_site_fract_z
  _atom_site_thermal_displace_type
  _atom_site_B_iso_or_equiv
  _atom_site_type_symbol
  Yb1      1.0000 0.66667  0.33334  0.25000  Biso   1.000  Yb
  Yb2      1.0000 0.33333  0.66666  0.25000  Biso   1.000  Yb
  Yb3      1.0000 0.33333  0.66666  0.75000  Biso   1.000  Yb
  Yb4      1.0000 0.66667  0.33334  0.75000  Biso   1.000  Yb
  Co1      1.0000 0.50000  0.00000  0.50000  Biso   1.000  Co
  Co2      1.0000 0.50000  0.50000  0.50000  Biso   1.000  Co
  Co3      1.0000 0.00000  0.50000  0.50000  Biso   1.000  Co
  Co4      1.0000 0.50000  0.00000  0.00000  Biso   1.000  Co
  Co5      1.0000 0.00000  0.50000  0.00000  Biso   1.000  Co
  Co6      1.0000 0.50000  0.50000  0.00000  Biso   1.000  Co
  H1       1.0000 0.76780  0.05500  0.34680  Biso   1.000  H
  H2       1.0000 0.28720  0.23220  0.34680  Biso   1.000  H
  H3       1.0000 0.94500  0.71280  0.34680  Biso   1.000  H
  H4       1.0000 0.23220  0.94500  0.34680  Biso   1.000  H
  H5       1.0000 0.71280  0.76780  0.34680  Biso   1.000  H
  H6       1.0000 0.05500  0.28720  0.34680  Biso   1.000  H
  H7       1.0000 0.71280  0.94500  0.15320  Biso   1.000  H
  H8       1.0000 0.05500  0.76780  0.15320  Biso   1.000  H
  H9       1.0000 0.23220  0.28720  0.15320  Biso   1.000  H
  H10      1.0000 0.28720  0.05500  0.15320  Biso   1.000  H
  H11      1.0000 0.94500  0.23220  0.15320  Biso   1.000  H
  H12      1.0000 0.76780  0.71280  0.15320  Biso   1.000  H
  H13      1.0000 0.23220  0.94500  0.65320  Biso   1.000  H
  H14      1.0000 0.71280  0.76780  0.65320  Biso   1.000  H
  H15      1.0000 0.05500  0.28720  0.65320  Biso   1.000  H
  H16      1.0000 0.76780  0.05500  0.65320  Biso   1.000  H
  H17      1.0000 0.28720  0.23220  0.65320  Biso   1.000  H
  H18      1.0000 0.94500  0.71280  0.65320  Biso   1.000  H
  H19      1.0000 0.28720  0.05500  0.84680  Biso   1.000  H
  H20      1.0000 0.94500  0.23220  0.84680  Biso   1.000  H
  H21      1.0000 0.76780  0.71280  0.84680  Biso   1.000  H
  H22      1.0000 0.71280  0.94500  0.84680  Biso   1.000  H
  H23      1.0000 0.05500  0.76780  0.84680  Biso   1.000  H
  H24      1.0000 0.23220  0.28720  0.84680  Biso   1.000  H
  H25      1.0000 0.90160  0.09840  0.25000  Biso   1.000  H
  H26      1.0000 0.19680  0.09840  0.25000  Biso   1.000  H
  H27      1.0000 0.90160  0.80320  0.25000  Biso   1.000  H
  H28      1.0000 0.09840  0.90160  0.25000  Biso   1.000  H
  H29      1.0000 0.80320  0.90160  0.25000  Biso   1.000  H
  H30      1.0000 0.09840  0.19680  0.25000  Biso   1.000  H
  H31      1.0000 0.09840  0.90160  0.75000  Biso   1.000  H
  H32      1.0000 0.80320  0.90160  0.75000  Biso   1.000  H
  H33      1.0000 0.09840  0.19680  0.75000  Biso   1.000  H
  H34      1.0000 0.90160  0.09840  0.75000  Biso   1.000  H
  H35      1.0000 0.19680  0.09840  0.75000  Biso   1.000  H
  H36      1.0000 0.90160  0.80320  0.75000  Biso   1.000  H
  C1       1.0000 0.78580  0.10760  0.30730  Biso   1.000  C
  C2       1.0000 0.73400  0.16160  0.30390  Biso   1.000  C
  C3       1.0000 0.64440  0.13850  0.36130  Biso   1.000  C
  C4       1.0000 0.32180  0.21420  0.30730  Biso   1.000  C
  C5       1.0000 0.42760  0.26600  0.30390  Biso   1.000  C
  C6       1.0000 0.49410  0.35560  0.36130  Biso   1.000  C
  C7       1.0000 0.89240  0.67820  0.30730  Biso   1.000  C
  C8       1.0000 0.83840  0.57240  0.30390  Biso   1.000  C
  C9       1.0000 0.86150  0.50590  0.36130  Biso   1.000  C
  C10      1.0000 0.21420  0.89240  0.30730  Biso   1.000  C
  C11      1.0000 0.26600  0.83840  0.30390  Biso   1.000  C
  C12      1.0000 0.35560  0.86150  0.36130  Biso   1.000  C
  C13      1.0000 0.67820  0.78580  0.30730  Biso   1.000  C
  C14      1.0000 0.57240  0.73400  0.30390  Biso   1.000  C
  C15      1.0000 0.50590  0.64440  0.36130  Biso   1.000  C
  C16      1.0000 0.10760  0.32180  0.30730  Biso   1.000  C
  C17      1.0000 0.16160  0.42760  0.30390  Biso   1.000  C
  C18      1.0000 0.13850  0.49410  0.36130  Biso   1.000  C
  C19      1.0000 0.67820  0.89240  0.19270  Biso   1.000  C
  C20      1.0000 0.57240  0.83840  0.19610  Biso   1.000  C
  C21      1.0000 0.50590  0.86150  0.13870  Biso   1.000  C
  C22      1.0000 0.10760  0.78580  0.19270  Biso   1.000  C
  C23      1.0000 0.16160  0.73400  0.19610  Biso   1.000  C
  C24      1.0000 0.13850  0.64440  0.13870  Biso   1.000  C
  C25      1.0000 0.21420  0.32180  0.19270  Biso   1.000  C
  C26      1.0000 0.26600  0.42760  0.19610  Biso   1.000  C
  C27      1.0000 0.35560  0.49410  0.13870  Biso   1.000  C
  C28      1.0000 0.32180  0.10760  0.19270  Biso   1.000  C
  C29      1.0000 0.42760  0.16160  0.19610  Biso   1.000  C
  C30      1.0000 0.49410  0.13850  0.13870  Biso   1.000  C
  C31      1.0000 0.89240  0.21420  0.19270  Biso   1.000  C
  C32      1.0000 0.83840  0.26600  0.19610  Biso   1.000  C
  C33      1.0000 0.86150  0.35560  0.13870  Biso   1.000  C
  C34      1.0000 0.78580  0.67820  0.19270  Biso   1.000  C
  C35      1.0000 0.73400  0.57240  0.19610  Biso   1.000  C
  C36      1.0000 0.64440  0.50590  0.13870  Biso   1.000  C
  C37      1.0000 0.21420  0.89240  0.69270  Biso   1.000  C
  C38      1.0000 0.26600  0.83840  0.69610  Biso   1.000  C
  C39      1.0000 0.35560  0.86150  0.63870  Biso   1.000  C
  C40      1.0000 0.67820  0.78580  0.69270  Biso   1.000  C
  C41      1.0000 0.57240  0.73400  0.69610  Biso   1.000  C
  C42      1.0000 0.50590  0.64440  0.63870  Biso   1.000  C
  C43      1.0000 0.10760  0.32180  0.69270  Biso   1.000  C
  C44      1.0000 0.16160  0.42760  0.69610  Biso   1.000  C
  C45      1.0000 0.13850  0.49410  0.63870  Biso   1.000  C
  C46      1.0000 0.78580  0.10760  0.69270  Biso   1.000  C
  C47      1.0000 0.73400  0.16160  0.69610  Biso   1.000  C
  C48      1.0000 0.64440  0.13850  0.63870  Biso   1.000  C
  C49      1.0000 0.32180  0.21420  0.69270  Biso   1.000  C
  C50      1.0000 0.42760  0.26600  0.69610  Biso   1.000  C
  C51      1.0000 0.49410  0.35560  0.63870  Biso   1.000  C
  C52      1.0000 0.89240  0.67820  0.69270  Biso   1.000  C
  C53      1.0000 0.83840  0.57240  0.69610  Biso   1.000  C
  C54      1.0000 0.86150  0.50590  0.63870  Biso   1.000  C
  C55      1.0000 0.32180  0.10760  0.80730  Biso   1.000  C
  C56      1.0000 0.42760  0.16160  0.80390  Biso   1.000  C
  C57      1.0000 0.49410  0.13850  0.86130  Biso   1.000  C
  C58      1.0000 0.89240  0.21420  0.80730  Biso   1.000  C
  C59      1.0000 0.83840  0.26600  0.80390  Biso   1.000  C
  C60      1.0000 0.86150  0.35560  0.86130  Biso   1.000  C
  C61      1.0000 0.78580  0.67820  0.80730  Biso   1.000  C
  C62      1.0000 0.73400  0.57240  0.80390  Biso   1.000  C
  C63      1.0000 0.64440  0.50590  0.86130  Biso   1.000  C
  C64      1.0000 0.67820  0.89240  0.80730  Biso   1.000  C
  C65      1.0000 0.57240  0.83840  0.80390  Biso   1.000  C
  C66      1.0000 0.50590  0.86150  0.86130  Biso   1.000  C
  C67      1.0000 0.10760  0.78580  0.80730  Biso   1.000  C
  C68      1.0000 0.16160  0.73400  0.80390  Biso   1.000  C
  C69      1.0000 0.13850  0.64440  0.86130  Biso   1.000  C
  C70      1.0000 0.21420  0.32180  0.80730  Biso   1.000  C
  C71      1.0000 0.26600  0.42760  0.80390  Biso   1.000  C
  C72      1.0000 0.35560  0.49410  0.86130  Biso   1.000  C
  C73      1.0000 0.86580  0.13420  0.25000  Biso   1.000  C
  C74      1.0000 0.26840  0.13420  0.25000  Biso   1.000  C
  C75      1.0000 0.86580  0.73160  0.25000  Biso   1.000  C
  C76      1.0000 0.13420  0.86580  0.25000  Biso   1.000  C
  C77      1.0000 0.73160  0.86580  0.25000  Biso   1.000  C
  C78      1.0000 0.13420  0.26840  0.25000  Biso   1.000  C
  C79      1.0000 0.13420  0.86580  0.75000  Biso   1.000  C
  C80      1.0000 0.73160  0.86580  0.75000  Biso   1.000  C
  C81      1.0000 0.13420  0.26840  0.75000  Biso   1.000  C
  C82      1.0000 0.86580  0.13420  0.75000  Biso   1.000  C
  C83      1.0000 0.26840  0.13420  0.75000  Biso   1.000  C
  C84      1.0000 0.86580  0.73160  0.75000  Biso   1.000  C
  N1       1.0000 0.76000  0.24000  0.25000  Biso   1.000  N
  N2       1.0000 0.48000  0.24000  0.25000  Biso   1.000  N
  N3       1.0000 0.76000  0.52000  0.25000  Biso   1.000  N
  N4       1.0000 0.24000  0.76000  0.25000  Biso   1.000  N
  N5       1.0000 0.52000  0.76000  0.25000  Biso   1.000  N
  N6       1.0000 0.24000  0.48000  0.25000  Biso   1.000  N
  N7       1.0000 0.24000  0.76000  0.75000  Biso   1.000  N
  N8       1.0000 0.52000  0.76000  0.75000  Biso   1.000  N
  N9       1.0000 0.24000  0.48000  0.75000  Biso   1.000  N
  N10      1.0000 0.76000  0.24000  0.75000  Biso   1.000  N
  N11      1.0000 0.48000  0.24000  0.75000  Biso   1.000  N
  N12      1.0000 0.76000  0.52000  0.75000  Biso   1.000  N
  O1       1.0000 0.60920  0.19960  0.35540  Biso   1.000  O
  O2       1.0000 0.61300  0.06250  0.40840  Biso   1.000  O
  O3       1.0000 0.59040  0.39080  0.35540  Biso   1.000  O
  O4       1.0000 0.44950  0.38700  0.40840  Biso   1.000  O
  O5       1.0000 0.80040  0.40960  0.35540  Biso   1.000  O
  O6       1.0000 0.93750  0.55050  0.40840  Biso   1.000  O
  O7       1.0000 0.39080  0.80040  0.35540  Biso   1.000  O
  O8       1.0000 0.38700  0.93750  0.40840  Biso   1.000  O
  O9       1.0000 0.40960  0.60920  0.35540  Biso   1.000  O
  O10      1.0000 0.55050  0.61300  0.40840  Biso   1.000  O
  O11      1.0000 0.19960  0.59040  0.35540  Biso   1.000  O
  O12      1.0000 0.06250  0.44950  0.40840  Biso   1.000  O
  O13      1.0000 0.40960  0.80040  0.14460  Biso   1.000  O
  O14      1.0000 0.55050  0.93750  0.09160  Biso   1.000  O
  O15      1.0000 0.19960  0.60920  0.14460  Biso   1.000  O
  O16      1.0000 0.06250  0.61300  0.09160  Biso   1.000  O
  O17      1.0000 0.39080  0.59040  0.14460  Biso   1.000  O
  O18      1.0000 0.38700  0.44950  0.09160  Biso   1.000  O
  O19      1.0000 0.59040  0.19960  0.14460  Biso   1.000  O
  O20      1.0000 0.44950  0.06250  0.09160  Biso   1.000  O
  O21      1.0000 0.80040  0.39080  0.14460  Biso   1.000  O
  O22      1.0000 0.93750  0.38700  0.09160  Biso   1.000  O
  O23      1.0000 0.60920  0.40960  0.14460  Biso   1.000  O
  O24      1.0000 0.61300  0.55050  0.09160  Biso   1.000  O
  O25      1.0000 0.39080  0.80040  0.64460  Biso   1.000  O
  O26      1.0000 0.38700  0.93750  0.59160  Biso   1.000  O
  O27      1.0000 0.40960  0.60920  0.64460  Biso   1.000  O
  O28      1.0000 0.55050  0.61300  0.59160  Biso   1.000  O
  O29      1.0000 0.19960  0.59040  0.64460  Biso   1.000  O
  O30      1.0000 0.06250  0.44950  0.59160  Biso   1.000  O
  O31      1.0000 0.60920  0.19960  0.64460  Biso   1.000  O
  O32      1.0000 0.61300  0.06250  0.59160  Biso   1.000  O
  O33      1.0000 0.59040  0.39080  0.64460  Biso   1.000  O
  O34      1.0000 0.44950  0.38700  0.59160  Biso   1.000  O
  O35      1.0000 0.80040  0.40960  0.64460  Biso   1.000  O
  O36      1.0000 0.93750  0.55050  0.59160  Biso   1.000  O
  O37      1.0000 0.59040  0.19960  0.85540  Biso   1.000  O
  O38      1.0000 0.44950  0.06250  0.90840  Biso   1.000  O
  O39      1.0000 0.80040  0.39080  0.85540  Biso   1.000  O
  O40      1.0000 0.93750  0.38700  0.90840  Biso   1.000  O
  O41      1.0000 0.60920  0.40960  0.85540  Biso   1.000  O
  O42      1.0000 0.61300  0.55050  0.90840  Biso   1.000  O
  O43      1.0000 0.40960  0.80040  0.85540  Biso   1.000  O
  O44      1.0000 0.55050  0.93750  0.90840  Biso   1.000  O
  O45      1.0000 0.19960  0.60920  0.85540  Biso   1.000  O
  O46      1.0000 0.06250  0.61300  0.90840  Biso   1.000  O
  O47      1.0000 0.39080  0.59040  0.85540  Biso   1.000  O
  O48      1.0000 0.38700  0.44950  0.90840  Biso   1.000  O
  O49      1.0000 0.48560  0.13630  0.50000  Biso   1.000  O
  O50      1.0000 0.65070  0.51440  0.50000  Biso   1.000  O
  O51      1.0000 0.86370  0.34930  0.50000  Biso   1.000  O
  O52      1.0000 0.51440  0.86370  0.50000  Biso   1.000  O
  O53      1.0000 0.34930  0.48560  0.50000  Biso   1.000  O
  O54      1.0000 0.13630  0.65070  0.50000  Biso   1.000  O
  O55      1.0000 0.34930  0.86370  0.00000  Biso   1.000  O
  O56      1.0000 0.13630  0.48560  0.00000  Biso   1.000  O
  O57      1.0000 0.51440  0.65070  0.00000  Biso   1.000  O
  O58      1.0000 0.65070  0.13630  0.00000  Biso   1.000  O
  O59      1.0000 0.86370  0.51440  0.00000  Biso   1.000  O
  O60      1.0000 0.48560  0.34930  0.00000  Biso   1.000  O
