data_image0
_cell_length_a       15.187
_cell_length_b       15.187
_cell_length_c       15.616
_cell_angle_alpha    90
_cell_angle_beta     90
_cell_angle_gamma    120

_symmetry_space_group_name_H-M    P 1
_symmetry_int_tables_number       1

loop_
  _symmetry_equiv_pos_as_xyz
  'x, y, z'

loop_
  _atom_site_label
  _atom_site_occupancy
  _atom_site_fract_x
  _atom_site_fract_y
  _atom_site_fract_z
  _atom_site_thermal_displace_type
  _atom_site_B_iso_or_equiv
  _atom_site_type_symbol
  Ho1      1.0000 0.66667  0.33334  0.25000  Biso   1.000  Ho
  Ho2      1.0000 0.33333  0.66666  0.25000  Biso   1.000  Ho
  Ho3      1.0000 0.33333  0.66666  0.75000  Biso   1.000  Ho
  Ho4      1.0000 0.66667  0.33334  0.75000  Biso   1.000  Ho
  Fe1      1.0000 0.50000  0.50000  0.50000  Biso   1.000  Fe
  Fe2      1.0000 1.00000  0.50000  0.50000  Biso   1.000  Fe
  Fe3      1.0000 0.50000  0.00000  0.50000  Biso   1.000  Fe
  Fe4      1.0000 1.00000  0.50000  0.00000  Biso   1.000  Fe
  Fe5      1.0000 0.50000  0.50000  0.00000  Biso   1.000  Fe
  Fe6      1.0000 0.50000  0.00000  0.00000  Biso   1.000  Fe
  H1       1.0000 0.65630  0.48280  0.45850  Biso   1.000  H
  H2       1.0000 0.28930  0.23370  0.34470  Biso   1.000  H
  H3       1.0000 0.82650  0.34370  0.45850  Biso   1.000  H
  H4       1.0000 0.94440  0.71070  0.34470  Biso   1.000  H
  H5       1.0000 0.51720  0.17350  0.45850  Biso   1.000  H
  H6       1.0000 0.76630  0.05560  0.34470  Biso   1.000  H
  H7       1.0000 0.34370  0.51720  0.45850  Biso   1.000  H
  H8       1.0000 0.71070  0.76630  0.34470  Biso   1.000  H
  H9       1.0000 0.17350  0.65630  0.45850  Biso   1.000  H
  H10      1.0000 0.05560  0.28930  0.34470  Biso   1.000  H
  H11      1.0000 0.48280  0.82650  0.45850  Biso   1.000  H
  H12      1.0000 0.23370  0.94440  0.34470  Biso   1.000  H
  H13      1.0000 0.17350  0.51720  0.04150  Biso   1.000  H
  H14      1.0000 0.05560  0.76630  0.15530  Biso   1.000  H
  H15      1.0000 0.48280  0.65630  0.04150  Biso   1.000  H
  H16      1.0000 0.23370  0.28930  0.15530  Biso   1.000  H
  H17      1.0000 0.34370  0.82650  0.04150  Biso   1.000  H
  H18      1.0000 0.71070  0.94440  0.15530  Biso   1.000  H
  H19      1.0000 0.82650  0.48280  0.04150  Biso   1.000  H
  H20      1.0000 0.94440  0.23370  0.15530  Biso   1.000  H
  H21      1.0000 0.51720  0.34370  0.04150  Biso   1.000  H
  H22      1.0000 0.76630  0.71070  0.15530  Biso   1.000  H
  H23      1.0000 0.65630  0.17350  0.04150  Biso   1.000  H
  H24      1.0000 0.28930  0.05560  0.15530  Biso   1.000  H
  H25      1.0000 0.34370  0.51720  0.54150  Biso   1.000  H
  H26      1.0000 0.71070  0.76630  0.65530  Biso   1.000  H
  H27      1.0000 0.17350  0.65630  0.54150  Biso   1.000  H
  H28      1.0000 0.05560  0.28930  0.65530  Biso   1.000  H
  H29      1.0000 0.48280  0.82650  0.54150  Biso   1.000  H
  H30      1.0000 0.23370  0.94440  0.65530  Biso   1.000  H
  H31      1.0000 0.65630  0.48280  0.54150  Biso   1.000  H
  H32      1.0000 0.28930  0.23370  0.65530  Biso   1.000  H
  H33      1.0000 0.82650  0.34370  0.54150  Biso   1.000  H
  H34      1.0000 0.94440  0.71070  0.65530  Biso   1.000  H
  H35      1.0000 0.51720  0.17350  0.54150  Biso   1.000  H
  H36      1.0000 0.76630  0.05560  0.65530  Biso   1.000  H
  H37      1.0000 0.82650  0.48280  0.95850  Biso   1.000  H
  H38      1.0000 0.94440  0.23370  0.84470  Biso   1.000  H
  H39      1.0000 0.51720  0.34370  0.95850  Biso   1.000  H
  H40      1.0000 0.76630  0.71070  0.84470  Biso   1.000  H
  H41      1.0000 0.65630  0.17350  0.95850  Biso   1.000  H
  H42      1.0000 0.28930  0.05560  0.84470  Biso   1.000  H
  H43      1.0000 0.17350  0.51720  0.95850  Biso   1.000  H
  H44      1.0000 0.05560  0.76630  0.84470  Biso   1.000  H
  H45      1.0000 0.48280  0.65630  0.95850  Biso   1.000  H
  H46      1.0000 0.23370  0.28930  0.84470  Biso   1.000  H
  H47      1.0000 0.34370  0.82650  0.95850  Biso   1.000  H
  H48      1.0000 0.71070  0.94440  0.84470  Biso   1.000  H
  H49      1.0000 0.19920  0.09960  0.25000  Biso   1.000  H
  H50      1.0000 0.90040  0.80080  0.25000  Biso   1.000  H
  H51      1.0000 0.90040  0.09960  0.25000  Biso   1.000  H
  H52      1.0000 0.80080  0.90040  0.25000  Biso   1.000  H
  H53      1.0000 0.09960  0.19920  0.25000  Biso   1.000  H
  H54      1.0000 0.09960  0.90040  0.25000  Biso   1.000  H
  H55      1.0000 0.80080  0.90040  0.75000  Biso   1.000  H
  H56      1.0000 0.09960  0.19920  0.75000  Biso   1.000  H
  H57      1.0000 0.09960  0.90040  0.75000  Biso   1.000  H
  H58      1.0000 0.19920  0.09960  0.75000  Biso   1.000  H
  H59      1.0000 0.90040  0.80080  0.75000  Biso   1.000  H
  H60      1.0000 0.90040  0.09960  0.75000  Biso   1.000  H
  C1       1.0000 0.49370  0.35410  0.36100  Biso   1.000  C
  C2       1.0000 0.42770  0.26620  0.30390  Biso   1.000  C
  C3       1.0000 0.32360  0.21500  0.30610  Biso   1.000  C
  C4       1.0000 0.86040  0.50630  0.36100  Biso   1.000  C
  C5       1.0000 0.83850  0.57230  0.30390  Biso   1.000  C
  C6       1.0000 0.89140  0.67640  0.30610  Biso   1.000  C
  C7       1.0000 0.64590  0.13960  0.36100  Biso   1.000  C
  C8       1.0000 0.73380  0.16150  0.30390  Biso   1.000  C
  C9       1.0000 0.78500  0.10860  0.30610  Biso   1.000  C
  C10      1.0000 0.50630  0.64590  0.36100  Biso   1.000  C
  C11      1.0000 0.57230  0.73380  0.30390  Biso   1.000  C
  C12      1.0000 0.67640  0.78500  0.30610  Biso   1.000  C
  C13      1.0000 0.13960  0.49370  0.36100  Biso   1.000  C
  C14      1.0000 0.16150  0.42770  0.30390  Biso   1.000  C
  C15      1.0000 0.10860  0.32360  0.30610  Biso   1.000  C
  C16      1.0000 0.35410  0.86040  0.36100  Biso   1.000  C
  C17      1.0000 0.26620  0.83850  0.30390  Biso   1.000  C
  C18      1.0000 0.21500  0.89140  0.30610  Biso   1.000  C
  C19      1.0000 0.13960  0.64590  0.13900  Biso   1.000  C
  C20      1.0000 0.16150  0.73380  0.19610  Biso   1.000  C
  C21      1.0000 0.10860  0.78500  0.19390  Biso   1.000  C
  C22      1.0000 0.35410  0.49370  0.13900  Biso   1.000  C
  C23      1.0000 0.26620  0.42770  0.19610  Biso   1.000  C
  C24      1.0000 0.21500  0.32360  0.19390  Biso   1.000  C
  C25      1.0000 0.50630  0.86040  0.13900  Biso   1.000  C
  C26      1.0000 0.57230  0.83850  0.19610  Biso   1.000  C
  C27      1.0000 0.67640  0.89140  0.19390  Biso   1.000  C
  C28      1.0000 0.86040  0.35410  0.13900  Biso   1.000  C
  C29      1.0000 0.83850  0.26620  0.19610  Biso   1.000  C
  C30      1.0000 0.89140  0.21500  0.19390  Biso   1.000  C
  C31      1.0000 0.64590  0.50630  0.13900  Biso   1.000  C
  C32      1.0000 0.73380  0.57230  0.19610  Biso   1.000  C
  C33      1.0000 0.78500  0.67640  0.19390  Biso   1.000  C
  C34      1.0000 0.49370  0.13960  0.13900  Biso   1.000  C
  C35      1.0000 0.42770  0.16150  0.19610  Biso   1.000  C
  C36      1.0000 0.32360  0.10860  0.19390  Biso   1.000  C
  C37      1.0000 0.50630  0.64590  0.63900  Biso   1.000  C
  C38      1.0000 0.57230  0.73380  0.69610  Biso   1.000  C
  C39      1.0000 0.67640  0.78500  0.69390  Biso   1.000  C
  C40      1.0000 0.13960  0.49370  0.63900  Biso   1.000  C
  C41      1.0000 0.16150  0.42770  0.69610  Biso   1.000  C
  C42      1.0000 0.10860  0.32360  0.69390  Biso   1.000  C
  C43      1.0000 0.35410  0.86040  0.63900  Biso   1.000  C
  C44      1.0000 0.26620  0.83850  0.69610  Biso   1.000  C
  C45      1.0000 0.21500  0.89140  0.69390  Biso   1.000  C
  C46      1.0000 0.49370  0.35410  0.63900  Biso   1.000  C
  C47      1.0000 0.42770  0.26620  0.69610  Biso   1.000  C
  C48      1.0000 0.32360  0.21500  0.69390  Biso   1.000  C
  C49      1.0000 0.86040  0.50630  0.63900  Biso   1.000  C
  C50      1.0000 0.83850  0.57230  0.69610  Biso   1.000  C
  C51      1.0000 0.89140  0.67640  0.69390  Biso   1.000  C
  C52      1.0000 0.64590  0.13960  0.63900  Biso   1.000  C
  C53      1.0000 0.73380  0.16150  0.69610  Biso   1.000  C
  C54      1.0000 0.78500  0.10860  0.69390  Biso   1.000  C
  C55      1.0000 0.86040  0.35410  0.86100  Biso   1.000  C
  C56      1.0000 0.83850  0.26620  0.80390  Biso   1.000  C
  C57      1.0000 0.89140  0.21500  0.80610  Biso   1.000  C
  C58      1.0000 0.64590  0.50630  0.86100  Biso   1.000  C
  C59      1.0000 0.73380  0.57230  0.80390  Biso   1.000  C
  C60      1.0000 0.78500  0.67640  0.80610  Biso   1.000  C
  C61      1.0000 0.49370  0.13960  0.86100  Biso   1.000  C
  C62      1.0000 0.42770  0.16150  0.80390  Biso   1.000  C
  C63      1.0000 0.32360  0.10860  0.80610  Biso   1.000  C
  C64      1.0000 0.13960  0.64590  0.86100  Biso   1.000  C
  C65      1.0000 0.16150  0.73380  0.80390  Biso   1.000  C
  C66      1.0000 0.10860  0.78500  0.80610  Biso   1.000  C
  C67      1.0000 0.35410  0.49370  0.86100  Biso   1.000  C
  C68      1.0000 0.26620  0.42770  0.80390  Biso   1.000  C
  C69      1.0000 0.21500  0.32360  0.80610  Biso   1.000  C
  C70      1.0000 0.50630  0.86040  0.86100  Biso   1.000  C
  C71      1.0000 0.57230  0.83850  0.80390  Biso   1.000  C
  C72      1.0000 0.67640  0.89140  0.80610  Biso   1.000  C
  C73      1.0000 0.26980  0.13490  0.25000  Biso   1.000  C
  C74      1.0000 0.86510  0.73020  0.25000  Biso   1.000  C
  C75      1.0000 0.86510  0.13490  0.25000  Biso   1.000  C
  C76      1.0000 0.73020  0.86510  0.25000  Biso   1.000  C
  C77      1.0000 0.13490  0.26980  0.25000  Biso   1.000  C
  C78      1.0000 0.13490  0.86510  0.25000  Biso   1.000  C
  C79      1.0000 0.73020  0.86510  0.75000  Biso   1.000  C
  C80      1.0000 0.13490  0.26980  0.75000  Biso   1.000  C
  C81      1.0000 0.13490  0.86510  0.75000  Biso   1.000  C
  C82      1.0000 0.26980  0.13490  0.75000  Biso   1.000  C
  C83      1.0000 0.86510  0.73020  0.75000  Biso   1.000  C
  C84      1.0000 0.86510  0.13490  0.75000  Biso   1.000  C
  N1       1.0000 0.47938  0.23969  0.25000  Biso   1.000  N
  N2       1.0000 0.76031  0.52062  0.25000  Biso   1.000  N
  N3       1.0000 0.76031  0.23969  0.25000  Biso   1.000  N
  N4       1.0000 0.52062  0.76031  0.25000  Biso   1.000  N
  N5       1.0000 0.23969  0.47938  0.25000  Biso   1.000  N
  N6       1.0000 0.23969  0.76031  0.25000  Biso   1.000  N
  N7       1.0000 0.52062  0.76031  0.75000  Biso   1.000  N
  N8       1.0000 0.23969  0.47938  0.75000  Biso   1.000  N
  N9       1.0000 0.23969  0.76031  0.75000  Biso   1.000  N
  N10      1.0000 0.47938  0.23969  0.75000  Biso   1.000  N
  N11      1.0000 0.76031  0.52062  0.75000  Biso   1.000  N
  N12      1.0000 0.76031  0.23969  0.75000  Biso   1.000  N
  O1       1.0000 0.58810  0.38830  0.35573  Biso   1.000  O
  O2       1.0000 0.44950  0.38510  0.40840  Biso   1.000  O
  O3       1.0000 0.80020  0.41190  0.35573  Biso   1.000  O
  O4       1.0000 0.93560  0.55050  0.40840  Biso   1.000  O
  O5       1.0000 0.61170  0.19980  0.35573  Biso   1.000  O
  O6       1.0000 0.61490  0.06440  0.40840  Biso   1.000  O
  O7       1.0000 0.41190  0.61170  0.35573  Biso   1.000  O
  O8       1.0000 0.55050  0.61490  0.40840  Biso   1.000  O
  O9       1.0000 0.19980  0.58810  0.35573  Biso   1.000  O
  O10      1.0000 0.06440  0.44950  0.40840  Biso   1.000  O
  O11      1.0000 0.38830  0.80020  0.35573  Biso   1.000  O
  O12      1.0000 0.38510  0.93560  0.40840  Biso   1.000  O
  O13      1.0000 0.19980  0.61170  0.14427  Biso   1.000  O
  O14      1.0000 0.06440  0.61490  0.09160  Biso   1.000  O
  O15      1.0000 0.38830  0.58810  0.14427  Biso   1.000  O
  O16      1.0000 0.38510  0.44950  0.09160  Biso   1.000  O
  O17      1.0000 0.41190  0.80020  0.14427  Biso   1.000  O
  O18      1.0000 0.55050  0.93560  0.09160  Biso   1.000  O
  O19      1.0000 0.80020  0.38830  0.14427  Biso   1.000  O
  O20      1.0000 0.93560  0.38510  0.09160  Biso   1.000  O
  O21      1.0000 0.61170  0.41190  0.14427  Biso   1.000  O
  O22      1.0000 0.61490  0.55050  0.09160  Biso   1.000  O
  O23      1.0000 0.58810  0.19980  0.14427  Biso   1.000  O
  O24      1.0000 0.44950  0.06440  0.09160  Biso   1.000  O
  O25      1.0000 0.41190  0.61170  0.64427  Biso   1.000  O
  O26      1.0000 0.55050  0.61490  0.59160  Biso   1.000  O
  O27      1.0000 0.19980  0.58810  0.64427  Biso   1.000  O
  O28      1.0000 0.06440  0.44950  0.59160  Biso   1.000  O
  O29      1.0000 0.38830  0.80020  0.64427  Biso   1.000  O
  O30      1.0000 0.38510  0.93560  0.59160  Biso   1.000  O
  O31      1.0000 0.58810  0.38830  0.64427  Biso   1.000  O
  O32      1.0000 0.44950  0.38510  0.59160  Biso   1.000  O
  O33      1.0000 0.80020  0.41190  0.64427  Biso   1.000  O
  O34      1.0000 0.93560  0.55050  0.59160  Biso   1.000  O
  O35      1.0000 0.61170  0.19980  0.64427  Biso   1.000  O
  O36      1.0000 0.61490  0.06440  0.59160  Biso   1.000  O
  O37      1.0000 0.80020  0.38830  0.85573  Biso   1.000  O
  O38      1.0000 0.93560  0.38510  0.90840  Biso   1.000  O
  O39      1.0000 0.61170  0.41190  0.85573  Biso   1.000  O
  O40      1.0000 0.61490  0.55050  0.90840  Biso   1.000  O
  O41      1.0000 0.58810  0.19980  0.85573  Biso   1.000  O
  O42      1.0000 0.44950  0.06440  0.90840  Biso   1.000  O
  O43      1.0000 0.19980  0.61170  0.85573  Biso   1.000  O
  O44      1.0000 0.06440  0.61490  0.90840  Biso   1.000  O
  O45      1.0000 0.38830  0.58810  0.85573  Biso   1.000  O
  O46      1.0000 0.38510  0.44950  0.90840  Biso   1.000  O
  O47      1.0000 0.41190  0.80020  0.85573  Biso   1.000  O
  O48      1.0000 0.55050  0.93560  0.90840  Biso   1.000  O
  O49      1.0000 0.65130  0.51320  0.50000  Biso   1.000  O
  O50      1.0000 0.86190  0.34870  0.50000  Biso   1.000  O
  O51      1.0000 0.48680  0.13810  0.50000  Biso   1.000  O
  O52      1.0000 0.34870  0.48680  0.50000  Biso   1.000  O
  O53      1.0000 0.13810  0.65130  0.50000  Biso   1.000  O
  O54      1.0000 0.51320  0.86190  0.50000  Biso   1.000  O
  O55      1.0000 0.13810  0.48680  0.00000  Biso   1.000  O
  O56      1.0000 0.51320  0.65130  0.00000  Biso   1.000  O
  O57      1.0000 0.34870  0.86190  0.00000  Biso   1.000  O
  O58      1.0000 0.86190  0.51320  0.00000  Biso   1.000  O
  O59      1.0000 0.48680  0.34870  0.00000  Biso   1.000  O
  O60      1.0000 0.65130  0.13810  0.00000  Biso   1.000  O
