data_image0
_cell_length_a       15.329
_cell_length_b       15.329
_cell_length_c       15.403
_cell_angle_alpha    90
_cell_angle_beta     90
_cell_angle_gamma    120

_symmetry_space_group_name_H-M    P 1
_symmetry_int_tables_number       1

loop_
  _symmetry_equiv_pos_as_xyz
  'x, y, z'

loop_
  _atom_site_label
  _atom_site_occupancy
  _atom_site_fract_x
  _atom_site_fract_y
  _atom_site_fract_z
  _atom_site_thermal_displace_type
  _atom_site_B_iso_or_equiv
  _atom_site_type_symbol
  Nd1      1.0000 0.33333  0.66666  0.75000  Biso   1.000  Nd
  Nd2      1.0000 0.66667  0.33334  0.75000  Biso   1.000  Nd
  Nd3      1.0000 0.66667  0.33334  0.25000  Biso   1.000  Nd
  Nd4      1.0000 0.33333  0.66666  0.25000  Biso   1.000  Nd
  Fe1      1.0000 0.00000  0.50000  0.00000  Biso   1.000  Fe
  Fe2      1.0000 0.50000  0.00000  0.00000  Biso   1.000  Fe
  Fe3      1.0000 0.50000  0.50000  0.00000  Biso   1.000  Fe
  Fe4      1.0000 0.50000  0.50000  0.50000  Biso   1.000  Fe
  Fe5      1.0000 0.50000  0.00000  0.50000  Biso   1.000  Fe
  Fe6      1.0000 0.00000  0.50000  0.50000  Biso   1.000  Fe
  H1       1.0000 0.05400  0.76770  0.84450  Biso   1.000  H
  H2       1.0000 0.71370  0.94600  0.84450  Biso   1.000  H
  H3       1.0000 0.23230  0.28630  0.84450  Biso   1.000  H
  H4       1.0000 0.94600  0.23230  0.84450  Biso   1.000  H
  H5       1.0000 0.28630  0.05400  0.84450  Biso   1.000  H
  H6       1.0000 0.76770  0.71370  0.84450  Biso   1.000  H
  H7       1.0000 0.28630  0.23230  0.65550  Biso   1.000  H
  H8       1.0000 0.76770  0.05400  0.65550  Biso   1.000  H
  H9       1.0000 0.94600  0.71370  0.65550  Biso   1.000  H
  H10      1.0000 0.71370  0.76770  0.65550  Biso   1.000  H
  H11      1.0000 0.23230  0.94600  0.65550  Biso   1.000  H
  H12      1.0000 0.05400  0.28630  0.65550  Biso   1.000  H
  H13      1.0000 0.94600  0.23230  0.15550  Biso   1.000  H
  H14      1.0000 0.28630  0.05400  0.15550  Biso   1.000  H
  H15      1.0000 0.76770  0.71370  0.15550  Biso   1.000  H
  H16      1.0000 0.05400  0.76770  0.15550  Biso   1.000  H
  H17      1.0000 0.71370  0.94600  0.15550  Biso   1.000  H
  H18      1.0000 0.23230  0.28630  0.15550  Biso   1.000  H
  H19      1.0000 0.71370  0.76770  0.34450  Biso   1.000  H
  H20      1.0000 0.23230  0.94600  0.34450  Biso   1.000  H
  H21      1.0000 0.05400  0.28630  0.34450  Biso   1.000  H
  H22      1.0000 0.28630  0.23230  0.34450  Biso   1.000  H
  H23      1.0000 0.76770  0.05400  0.34450  Biso   1.000  H
  H24      1.0000 0.94600  0.71370  0.34450  Biso   1.000  H
  H25      1.0000 0.09925  0.90075  0.75000  Biso   1.000  H
  H26      1.0000 0.80150  0.90075  0.75000  Biso   1.000  H
  H27      1.0000 0.09925  0.19850  0.75000  Biso   1.000  H
  H28      1.0000 0.90075  0.09925  0.75000  Biso   1.000  H
  H29      1.0000 0.19850  0.09925  0.75000  Biso   1.000  H
  H30      1.0000 0.90075  0.80150  0.75000  Biso   1.000  H
  H31      1.0000 0.90075  0.09925  0.25000  Biso   1.000  H
  H32      1.0000 0.19850  0.09925  0.25000  Biso   1.000  H
  H33      1.0000 0.90075  0.80150  0.25000  Biso   1.000  H
  H34      1.0000 0.09925  0.90075  0.25000  Biso   1.000  H
  H35      1.0000 0.80150  0.90075  0.25000  Biso   1.000  H
  H36      1.0000 0.09925  0.19850  0.25000  Biso   1.000  H
  C1       1.0000 0.13650  0.64880  0.86130  Biso   1.000  C
  C2       1.0000 0.16000  0.73690  0.80390  Biso   1.000  C
  C3       1.0000 0.10720  0.78680  0.80590  Biso   1.000  C
  C4       1.0000 0.51230  0.86350  0.86130  Biso   1.000  C
  C5       1.0000 0.57690  0.84000  0.80390  Biso   1.000  C
  C6       1.0000 0.67960  0.89280  0.80590  Biso   1.000  C
  C7       1.0000 0.35120  0.48770  0.86130  Biso   1.000  C
  C8       1.0000 0.26310  0.42310  0.80390  Biso   1.000  C
  C9       1.0000 0.21320  0.32040  0.80590  Biso   1.000  C
  C10      1.0000 0.86350  0.35120  0.86130  Biso   1.000  C
  C11      1.0000 0.84000  0.26310  0.80390  Biso   1.000  C
  C12      1.0000 0.89280  0.21320  0.80590  Biso   1.000  C
  C13      1.0000 0.48770  0.13650  0.86130  Biso   1.000  C
  C14      1.0000 0.42310  0.16000  0.80390  Biso   1.000  C
  C15      1.0000 0.32040  0.10720  0.80590  Biso   1.000  C
  C16      1.0000 0.64880  0.51230  0.86130  Biso   1.000  C
  C17      1.0000 0.73690  0.57690  0.80390  Biso   1.000  C
  C18      1.0000 0.78680  0.67960  0.80590  Biso   1.000  C
  C19      1.0000 0.48770  0.35120  0.63870  Biso   1.000  C
  C20      1.0000 0.42310  0.26310  0.69610  Biso   1.000  C
  C21      1.0000 0.32040  0.21320  0.69410  Biso   1.000  C
  C22      1.0000 0.64880  0.13650  0.63870  Biso   1.000  C
  C23      1.0000 0.73690  0.16000  0.69610  Biso   1.000  C
  C24      1.0000 0.78680  0.10720  0.69410  Biso   1.000  C
  C25      1.0000 0.86350  0.51230  0.63870  Biso   1.000  C
  C26      1.0000 0.84000  0.57690  0.69610  Biso   1.000  C
  C27      1.0000 0.89280  0.67960  0.69410  Biso   1.000  C
  C28      1.0000 0.51230  0.64880  0.63870  Biso   1.000  C
  C29      1.0000 0.57690  0.73690  0.69610  Biso   1.000  C
  C30      1.0000 0.67960  0.78680  0.69410  Biso   1.000  C
  C31      1.0000 0.35120  0.86350  0.63870  Biso   1.000  C
  C32      1.0000 0.26310  0.84000  0.69610  Biso   1.000  C
  C33      1.0000 0.21320  0.89280  0.69410  Biso   1.000  C
  C34      1.0000 0.13650  0.48770  0.63870  Biso   1.000  C
  C35      1.0000 0.16000  0.42310  0.69610  Biso   1.000  C
  C36      1.0000 0.10720  0.32040  0.69410  Biso   1.000  C
  C37      1.0000 0.86350  0.35120  0.13870  Biso   1.000  C
  C38      1.0000 0.84000  0.26310  0.19610  Biso   1.000  C
  C39      1.0000 0.89280  0.21320  0.19410  Biso   1.000  C
  C40      1.0000 0.48770  0.13650  0.13870  Biso   1.000  C
  C41      1.0000 0.42310  0.16000  0.19610  Biso   1.000  C
  C42      1.0000 0.32040  0.10720  0.19410  Biso   1.000  C
  C43      1.0000 0.64880  0.51230  0.13870  Biso   1.000  C
  C44      1.0000 0.73690  0.57690  0.19610  Biso   1.000  C
  C45      1.0000 0.78680  0.67960  0.19410  Biso   1.000  C
  C46      1.0000 0.13650  0.64880  0.13870  Biso   1.000  C
  C47      1.0000 0.16000  0.73690  0.19610  Biso   1.000  C
  C48      1.0000 0.10720  0.78680  0.19410  Biso   1.000  C
  C49      1.0000 0.51230  0.86350  0.13870  Biso   1.000  C
  C50      1.0000 0.57690  0.84000  0.19610  Biso   1.000  C
  C51      1.0000 0.67960  0.89280  0.19410  Biso   1.000  C
  C52      1.0000 0.35120  0.48770  0.13870  Biso   1.000  C
  C53      1.0000 0.26310  0.42310  0.19610  Biso   1.000  C
  C54      1.0000 0.21320  0.32040  0.19410  Biso   1.000  C
  C55      1.0000 0.51230  0.64880  0.36130  Biso   1.000  C
  C56      1.0000 0.57690  0.73690  0.30390  Biso   1.000  C
  C57      1.0000 0.67960  0.78680  0.30590  Biso   1.000  C
  C58      1.0000 0.35120  0.86350  0.36130  Biso   1.000  C
  C59      1.0000 0.26310  0.84000  0.30390  Biso   1.000  C
  C60      1.0000 0.21320  0.89280  0.30590  Biso   1.000  C
  C61      1.0000 0.13650  0.48770  0.36130  Biso   1.000  C
  C62      1.0000 0.16000  0.42310  0.30390  Biso   1.000  C
  C63      1.0000 0.10720  0.32040  0.30590  Biso   1.000  C
  C64      1.0000 0.48770  0.35120  0.36130  Biso   1.000  C
  C65      1.0000 0.42310  0.26310  0.30390  Biso   1.000  C
  C66      1.0000 0.32040  0.21320  0.30590  Biso   1.000  C
  C67      1.0000 0.64880  0.13650  0.36130  Biso   1.000  C
  C68      1.0000 0.73690  0.16000  0.30390  Biso   1.000  C
  C69      1.0000 0.78680  0.10720  0.30590  Biso   1.000  C
  C70      1.0000 0.86350  0.51230  0.36130  Biso   1.000  C
  C71      1.0000 0.84000  0.57690  0.30390  Biso   1.000  C
  C72      1.0000 0.89280  0.67960  0.30590  Biso   1.000  C
  C73      1.0000 0.13425  0.86575  0.75000  Biso   1.000  C
  C74      1.0000 0.73150  0.86575  0.75000  Biso   1.000  C
  C75      1.0000 0.13425  0.26850  0.75000  Biso   1.000  C
  C76      1.0000 0.86575  0.13425  0.75000  Biso   1.000  C
  C77      1.0000 0.26850  0.13425  0.75000  Biso   1.000  C
  C78      1.0000 0.86575  0.73150  0.75000  Biso   1.000  C
  C79      1.0000 0.86575  0.13425  0.25000  Biso   1.000  C
  C80      1.0000 0.26850  0.13425  0.25000  Biso   1.000  C
  C81      1.0000 0.86575  0.73150  0.25000  Biso   1.000  C
  C82      1.0000 0.13425  0.86575  0.25000  Biso   1.000  C
  C83      1.0000 0.73150  0.86575  0.25000  Biso   1.000  C
  C84      1.0000 0.13425  0.26850  0.25000  Biso   1.000  C
  N1       1.0000 0.23720  0.76280  0.75000  Biso   1.000  N
  N2       1.0000 0.52560  0.76280  0.75000  Biso   1.000  N
  N3       1.0000 0.23720  0.47440  0.75000  Biso   1.000  N
  N4       1.0000 0.76280  0.23720  0.75000  Biso   1.000  N
  N5       1.0000 0.47440  0.23720  0.75000  Biso   1.000  N
  N6       1.0000 0.76280  0.52560  0.75000  Biso   1.000  N
  N7       1.0000 0.76280  0.23720  0.25000  Biso   1.000  N
  N8       1.0000 0.47440  0.23720  0.25000  Biso   1.000  N
  N9       1.0000 0.76280  0.52560  0.25000  Biso   1.000  N
  N10      1.0000 0.23720  0.76280  0.25000  Biso   1.000  N
  N11      1.0000 0.52560  0.76280  0.25000  Biso   1.000  N
  N12      1.0000 0.23720  0.47440  0.25000  Biso   1.000  N
  O1       1.0000 0.19630  0.61460  0.85810  Biso   1.000  O
  O2       1.0000 0.06030  0.61610  0.90730  Biso   1.000  O
  O3       1.0000 0.41830  0.80370  0.85810  Biso   1.000  O
  O4       1.0000 0.55580  0.93970  0.90730  Biso   1.000  O
  O5       1.0000 0.38540  0.58170  0.85810  Biso   1.000  O
  O6       1.0000 0.38390  0.44420  0.90730  Biso   1.000  O
  O7       1.0000 0.80370  0.38540  0.85810  Biso   1.000  O
  O8       1.0000 0.93970  0.38390  0.90730  Biso   1.000  O
  O9       1.0000 0.58170  0.19630  0.85810  Biso   1.000  O
  O10      1.0000 0.44420  0.06030  0.90730  Biso   1.000  O
  O11      1.0000 0.61460  0.41830  0.85810  Biso   1.000  O
  O12      1.0000 0.61610  0.55580  0.90730  Biso   1.000  O
  O13      1.0000 0.58170  0.38540  0.64190  Biso   1.000  O
  O14      1.0000 0.44420  0.38390  0.59270  Biso   1.000  O
  O15      1.0000 0.61460  0.19630  0.64190  Biso   1.000  O
  O16      1.0000 0.61610  0.06030  0.59270  Biso   1.000  O
  O17      1.0000 0.80370  0.41830  0.64190  Biso   1.000  O
  O18      1.0000 0.93970  0.55580  0.59270  Biso   1.000  O
  O19      1.0000 0.41830  0.61460  0.64190  Biso   1.000  O
  O20      1.0000 0.55580  0.61610  0.59270  Biso   1.000  O
  O21      1.0000 0.38540  0.80370  0.64190  Biso   1.000  O
  O22      1.0000 0.38390  0.93970  0.59270  Biso   1.000  O
  O23      1.0000 0.19630  0.58170  0.64190  Biso   1.000  O
  O24      1.0000 0.06030  0.44420  0.59270  Biso   1.000  O
  O25      1.0000 0.80370  0.38540  0.14190  Biso   1.000  O
  O26      1.0000 0.93970  0.38390  0.09270  Biso   1.000  O
  O27      1.0000 0.58170  0.19630  0.14190  Biso   1.000  O
  O28      1.0000 0.44420  0.06030  0.09270  Biso   1.000  O
  O29      1.0000 0.61460  0.41830  0.14190  Biso   1.000  O
  O30      1.0000 0.61610  0.55580  0.09270  Biso   1.000  O
  O31      1.0000 0.19630  0.61460  0.14190  Biso   1.000  O
  O32      1.0000 0.06030  0.61610  0.09270  Biso   1.000  O
  O33      1.0000 0.41830  0.80370  0.14190  Biso   1.000  O
  O34      1.0000 0.55580  0.93970  0.09270  Biso   1.000  O
  O35      1.0000 0.38540  0.58170  0.14190  Biso   1.000  O
  O36      1.0000 0.38390  0.44420  0.09270  Biso   1.000  O
  O37      1.0000 0.41830  0.61460  0.35810  Biso   1.000  O
  O38      1.0000 0.55580  0.61610  0.40730  Biso   1.000  O
  O39      1.0000 0.38540  0.80370  0.35810  Biso   1.000  O
  O40      1.0000 0.38390  0.93970  0.40730  Biso   1.000  O
  O41      1.0000 0.19630  0.58170  0.35810  Biso   1.000  O
  O42      1.0000 0.06030  0.44420  0.40730  Biso   1.000  O
  O43      1.0000 0.58170  0.38540  0.35810  Biso   1.000  O
  O44      1.0000 0.44420  0.38390  0.40730  Biso   1.000  O
  O45      1.0000 0.61460  0.19630  0.35810  Biso   1.000  O
  O46      1.0000 0.61610  0.06030  0.40730  Biso   1.000  O
  O47      1.0000 0.80370  0.41830  0.35810  Biso   1.000  O
  O48      1.0000 0.93970  0.55580  0.40730  Biso   1.000  O
  O49      1.0000 0.86220  0.51030  0.00000  Biso   1.000  O
  O50      1.0000 0.64810  0.13780  0.00000  Biso   1.000  O
  O51      1.0000 0.48970  0.35190  0.00000  Biso   1.000  O
  O52      1.0000 0.13780  0.48970  0.00000  Biso   1.000  O
  O53      1.0000 0.35190  0.86220  0.00000  Biso   1.000  O
  O54      1.0000 0.51030  0.64810  0.00000  Biso   1.000  O
  O55      1.0000 0.35190  0.48970  0.50000  Biso   1.000  O
  O56      1.0000 0.51030  0.86220  0.50000  Biso   1.000  O
  O57      1.0000 0.13780  0.64810  0.50000  Biso   1.000  O
  O58      1.0000 0.64810  0.51030  0.50000  Biso   1.000  O
  O59      1.0000 0.48970  0.13780  0.50000  Biso   1.000  O
  O60      1.0000 0.86220  0.35190  0.50000  Biso   1.000  O
