data_image0
_cell_length_a       15.405
_cell_length_b       15.405
_cell_length_c       15.456
_cell_angle_alpha    90
_cell_angle_beta     90
_cell_angle_gamma    120

_symmetry_space_group_name_H-M    P 1
_symmetry_int_tables_number       1

loop_
  _symmetry_equiv_pos_as_xyz
  'x, y, z'

loop_
  _atom_site_label
  _atom_site_occupancy
  _atom_site_fract_x
  _atom_site_fract_y
  _atom_site_fract_z
  _atom_site_thermal_displace_type
  _atom_site_B_iso_or_equiv
  _atom_site_type_symbol
  Sm1      1.0000 0.33333  0.66666  0.75000  Biso   1.000  Sm
  Sm2      1.0000 0.66667  0.33334  0.75000  Biso   1.000  Sm
  Sm3      1.0000 0.66667  0.33334  0.25000  Biso   1.000  Sm
  Sm4      1.0000 0.33333  0.66666  0.25000  Biso   1.000  Sm
  Fe1      1.0000 0.50000  0.00000  0.00000  Biso   1.000  Fe
  Fe2      1.0000 0.50000  0.50000  0.00000  Biso   1.000  Fe
  Fe3      1.0000 0.00000  0.50000  0.00000  Biso   1.000  Fe
  Fe4      1.0000 0.50000  0.00000  0.50000  Biso   1.000  Fe
  Fe5      1.0000 0.00000  0.50000  0.50000  Biso   1.000  Fe
  Fe6      1.0000 0.50000  0.50000  0.50000  Biso   1.000  Fe
  H1       1.0000 0.71280  0.94630  0.84450  Biso   1.000  H
  H2       1.0000 0.23350  0.28720  0.84450  Biso   1.000  H
  H3       1.0000 0.05370  0.76650  0.84450  Biso   1.000  H
  H4       1.0000 0.28720  0.05370  0.84450  Biso   1.000  H
  H5       1.0000 0.76650  0.71280  0.84450  Biso   1.000  H
  H6       1.0000 0.94630  0.23350  0.84450  Biso   1.000  H
  H7       1.0000 0.76650  0.05370  0.65550  Biso   1.000  H
  H8       1.0000 0.94630  0.71280  0.65550  Biso   1.000  H
  H9       1.0000 0.28720  0.23350  0.65550  Biso   1.000  H
  H10      1.0000 0.23350  0.94630  0.65550  Biso   1.000  H
  H11      1.0000 0.05370  0.28720  0.65550  Biso   1.000  H
  H12      1.0000 0.71280  0.76650  0.65550  Biso   1.000  H
  H13      1.0000 0.28720  0.05370  0.15550  Biso   1.000  H
  H14      1.0000 0.76650  0.71280  0.15550  Biso   1.000  H
  H15      1.0000 0.94630  0.23350  0.15550  Biso   1.000  H
  H16      1.0000 0.71280  0.94630  0.15550  Biso   1.000  H
  H17      1.0000 0.23350  0.28720  0.15550  Biso   1.000  H
  H18      1.0000 0.05370  0.76650  0.15550  Biso   1.000  H
  H19      1.0000 0.23350  0.94630  0.34450  Biso   1.000  H
  H20      1.0000 0.05370  0.28720  0.34450  Biso   1.000  H
  H21      1.0000 0.71280  0.76650  0.34450  Biso   1.000  H
  H22      1.0000 0.76650  0.05370  0.34450  Biso   1.000  H
  H23      1.0000 0.94630  0.71280  0.34450  Biso   1.000  H
  H24      1.0000 0.28720  0.23350  0.34450  Biso   1.000  H
  H25      1.0000 0.80010  0.90005  0.75000  Biso   1.000  H
  H26      1.0000 0.09995  0.19990  0.75000  Biso   1.000  H
  H27      1.0000 0.09995  0.90005  0.75000  Biso   1.000  H
  H28      1.0000 0.19990  0.09995  0.75000  Biso   1.000  H
  H29      1.0000 0.90005  0.80010  0.75000  Biso   1.000  H
  H30      1.0000 0.90005  0.09995  0.75000  Biso   1.000  H
  H31      1.0000 0.19990  0.09995  0.25000  Biso   1.000  H
  H32      1.0000 0.90005  0.80010  0.25000  Biso   1.000  H
  H33      1.0000 0.90005  0.09995  0.25000  Biso   1.000  H
  H34      1.0000 0.80010  0.90005  0.25000  Biso   1.000  H
  H35      1.0000 0.09995  0.19990  0.25000  Biso   1.000  H
  H36      1.0000 0.09995  0.90005  0.25000  Biso   1.000  H
  C1       1.0000 0.51000  0.86400  0.86160  Biso   1.000  C
  C2       1.0000 0.57530  0.84010  0.80350  Biso   1.000  C
  C3       1.0000 0.67880  0.89320  0.80620  Biso   1.000  C
  C4       1.0000 0.35400  0.49000  0.86160  Biso   1.000  C
  C5       1.0000 0.26480  0.42470  0.80350  Biso   1.000  C
  C6       1.0000 0.21440  0.32120  0.80620  Biso   1.000  C
  C7       1.0000 0.13600  0.64600  0.86160  Biso   1.000  C
  C8       1.0000 0.15990  0.73520  0.80350  Biso   1.000  C
  C9       1.0000 0.10680  0.78560  0.80620  Biso   1.000  C
  C10      1.0000 0.49000  0.13600  0.86160  Biso   1.000  C
  C11      1.0000 0.42470  0.15990  0.80350  Biso   1.000  C
  C12      1.0000 0.32120  0.10680  0.80620  Biso   1.000  C
  C13      1.0000 0.64600  0.51000  0.86160  Biso   1.000  C
  C14      1.0000 0.73520  0.57530  0.80350  Biso   1.000  C
  C15      1.0000 0.78560  0.67880  0.80620  Biso   1.000  C
  C16      1.0000 0.86400  0.35400  0.86160  Biso   1.000  C
  C17      1.0000 0.84010  0.26480  0.80350  Biso   1.000  C
  C18      1.0000 0.89320  0.21440  0.80620  Biso   1.000  C
  C19      1.0000 0.64600  0.13600  0.63840  Biso   1.000  C
  C20      1.0000 0.73520  0.15990  0.69650  Biso   1.000  C
  C21      1.0000 0.78560  0.10680  0.69380  Biso   1.000  C
  C22      1.0000 0.86400  0.51000  0.63840  Biso   1.000  C
  C23      1.0000 0.84010  0.57530  0.69650  Biso   1.000  C
  C24      1.0000 0.89320  0.67880  0.69380  Biso   1.000  C
  C25      1.0000 0.49000  0.35400  0.63840  Biso   1.000  C
  C26      1.0000 0.42470  0.26480  0.69650  Biso   1.000  C
  C27      1.0000 0.32120  0.21440  0.69380  Biso   1.000  C
  C28      1.0000 0.35400  0.86400  0.63840  Biso   1.000  C
  C29      1.0000 0.26480  0.84010  0.69650  Biso   1.000  C
  C30      1.0000 0.21440  0.89320  0.69380  Biso   1.000  C
  C31      1.0000 0.13600  0.49000  0.63840  Biso   1.000  C
  C32      1.0000 0.15990  0.42470  0.69650  Biso   1.000  C
  C33      1.0000 0.10680  0.32120  0.69380  Biso   1.000  C
  C34      1.0000 0.51000  0.64600  0.63840  Biso   1.000  C
  C35      1.0000 0.57530  0.73520  0.69650  Biso   1.000  C
  C36      1.0000 0.67880  0.78560  0.69380  Biso   1.000  C
  C37      1.0000 0.49000  0.13600  0.13840  Biso   1.000  C
  C38      1.0000 0.42470  0.15990  0.19650  Biso   1.000  C
  C39      1.0000 0.32120  0.10680  0.19380  Biso   1.000  C
  C40      1.0000 0.64600  0.51000  0.13840  Biso   1.000  C
  C41      1.0000 0.73520  0.57530  0.19650  Biso   1.000  C
  C42      1.0000 0.78560  0.67880  0.19380  Biso   1.000  C
  C43      1.0000 0.86400  0.35400  0.13840  Biso   1.000  C
  C44      1.0000 0.84010  0.26480  0.19650  Biso   1.000  C
  C45      1.0000 0.89320  0.21440  0.19380  Biso   1.000  C
  C46      1.0000 0.51000  0.86400  0.13840  Biso   1.000  C
  C47      1.0000 0.57530  0.84010  0.19650  Biso   1.000  C
  C48      1.0000 0.67880  0.89320  0.19380  Biso   1.000  C
  C49      1.0000 0.35400  0.49000  0.13840  Biso   1.000  C
  C50      1.0000 0.26480  0.42470  0.19650  Biso   1.000  C
  C51      1.0000 0.21440  0.32120  0.19380  Biso   1.000  C
  C52      1.0000 0.13600  0.64600  0.13840  Biso   1.000  C
  C53      1.0000 0.15990  0.73520  0.19650  Biso   1.000  C
  C54      1.0000 0.10680  0.78560  0.19380  Biso   1.000  C
  C55      1.0000 0.35400  0.86400  0.36160  Biso   1.000  C
  C56      1.0000 0.26480  0.84010  0.30350  Biso   1.000  C
  C57      1.0000 0.21440  0.89320  0.30620  Biso   1.000  C
  C58      1.0000 0.13600  0.49000  0.36160  Biso   1.000  C
  C59      1.0000 0.15990  0.42470  0.30350  Biso   1.000  C
  C60      1.0000 0.10680  0.32120  0.30620  Biso   1.000  C
  C61      1.0000 0.51000  0.64600  0.36160  Biso   1.000  C
  C62      1.0000 0.57530  0.73520  0.30350  Biso   1.000  C
  C63      1.0000 0.67880  0.78560  0.30620  Biso   1.000  C
  C64      1.0000 0.64600  0.13600  0.36160  Biso   1.000  C
  C65      1.0000 0.73520  0.15990  0.30350  Biso   1.000  C
  C66      1.0000 0.78560  0.10680  0.30620  Biso   1.000  C
  C67      1.0000 0.86400  0.51000  0.36160  Biso   1.000  C
  C68      1.0000 0.84010  0.57530  0.30350  Biso   1.000  C
  C69      1.0000 0.89320  0.67880  0.30620  Biso   1.000  C
  C70      1.0000 0.49000  0.35400  0.36160  Biso   1.000  C
  C71      1.0000 0.42470  0.26480  0.30350  Biso   1.000  C
  C72      1.0000 0.32120  0.21440  0.30620  Biso   1.000  C
  C73      1.0000 0.73040  0.86520  0.75000  Biso   1.000  C
  C74      1.0000 0.13480  0.26960  0.75000  Biso   1.000  C
  C75      1.0000 0.13480  0.86520  0.75000  Biso   1.000  C
  C76      1.0000 0.26960  0.13480  0.75000  Biso   1.000  C
  C77      1.0000 0.86520  0.73040  0.75000  Biso   1.000  C
  C78      1.0000 0.86520  0.13480  0.75000  Biso   1.000  C
  C79      1.0000 0.26960  0.13480  0.25000  Biso   1.000  C
  C80      1.0000 0.86520  0.73040  0.25000  Biso   1.000  C
  C81      1.0000 0.86520  0.13480  0.25000  Biso   1.000  C
  C82      1.0000 0.73040  0.86520  0.25000  Biso   1.000  C
  C83      1.0000 0.13480  0.26960  0.25000  Biso   1.000  C
  C84      1.0000 0.13480  0.86520  0.25000  Biso   1.000  C
  N1       1.0000 0.52430  0.76215  0.75000  Biso   1.000  N
  N2       1.0000 0.23785  0.47570  0.75000  Biso   1.000  N
  N3       1.0000 0.23785  0.76215  0.75000  Biso   1.000  N
  N4       1.0000 0.47570  0.23785  0.75000  Biso   1.000  N
  N5       1.0000 0.76215  0.52430  0.75000  Biso   1.000  N
  N6       1.0000 0.76215  0.23785  0.75000  Biso   1.000  N
  N7       1.0000 0.47570  0.23785  0.25000  Biso   1.000  N
  N8       1.0000 0.76215  0.52430  0.25000  Biso   1.000  N
  N9       1.0000 0.76215  0.23785  0.25000  Biso   1.000  N
  N10      1.0000 0.52430  0.76215  0.25000  Biso   1.000  N
  N11      1.0000 0.23785  0.47570  0.25000  Biso   1.000  N
  N12      1.0000 0.23785  0.76215  0.25000  Biso   1.000  N
  O1       1.0000 0.55340  0.94060  0.90660  Biso   1.000  O
  O2       1.0000 0.41540  0.80330  0.85710  Biso   1.000  O
  O3       1.0000 0.38720  0.44660  0.90660  Biso   1.000  O
  O4       1.0000 0.38790  0.58460  0.85710  Biso   1.000  O
  O5       1.0000 0.05940  0.61280  0.90660  Biso   1.000  O
  O6       1.0000 0.19670  0.61210  0.85710  Biso   1.000  O
  O7       1.0000 0.44660  0.05940  0.90660  Biso   1.000  O
  O8       1.0000 0.58460  0.19670  0.85710  Biso   1.000  O
  O9       1.0000 0.61280  0.55340  0.90660  Biso   1.000  O
  O10      1.0000 0.61210  0.41540  0.85710  Biso   1.000  O
  O11      1.0000 0.94060  0.38720  0.90660  Biso   1.000  O
  O12      1.0000 0.80330  0.38790  0.85710  Biso   1.000  O
  O13      1.0000 0.61280  0.05940  0.59340  Biso   1.000  O
  O14      1.0000 0.61210  0.19670  0.64290  Biso   1.000  O
  O15      1.0000 0.94060  0.55340  0.59340  Biso   1.000  O
  O16      1.0000 0.80330  0.41540  0.64290  Biso   1.000  O
  O17      1.0000 0.44660  0.38720  0.59340  Biso   1.000  O
  O18      1.0000 0.58460  0.38790  0.64290  Biso   1.000  O
  O19      1.0000 0.38720  0.94060  0.59340  Biso   1.000  O
  O20      1.0000 0.38790  0.80330  0.64290  Biso   1.000  O
  O21      1.0000 0.05940  0.44660  0.59340  Biso   1.000  O
  O22      1.0000 0.19670  0.58460  0.64290  Biso   1.000  O
  O23      1.0000 0.55340  0.61280  0.59340  Biso   1.000  O
  O24      1.0000 0.41540  0.61210  0.64290  Biso   1.000  O
  O25      1.0000 0.44660  0.05940  0.09340  Biso   1.000  O
  O26      1.0000 0.58460  0.19670  0.14290  Biso   1.000  O
  O27      1.0000 0.61280  0.55340  0.09340  Biso   1.000  O
  O28      1.0000 0.61210  0.41540  0.14290  Biso   1.000  O
  O29      1.0000 0.94060  0.38720  0.09340  Biso   1.000  O
  O30      1.0000 0.80330  0.38790  0.14290  Biso   1.000  O
  O31      1.0000 0.55340  0.94060  0.09340  Biso   1.000  O
  O32      1.0000 0.41540  0.80330  0.14290  Biso   1.000  O
  O33      1.0000 0.38720  0.44660  0.09340  Biso   1.000  O
  O34      1.0000 0.38790  0.58460  0.14290  Biso   1.000  O
  O35      1.0000 0.05940  0.61280  0.09340  Biso   1.000  O
  O36      1.0000 0.19670  0.61210  0.14290  Biso   1.000  O
  O37      1.0000 0.38720  0.94060  0.40660  Biso   1.000  O
  O38      1.0000 0.38790  0.80330  0.35710  Biso   1.000  O
  O39      1.0000 0.05940  0.44660  0.40660  Biso   1.000  O
  O40      1.0000 0.19670  0.58460  0.35710  Biso   1.000  O
  O41      1.0000 0.55340  0.61280  0.40660  Biso   1.000  O
  O42      1.0000 0.41540  0.61210  0.35710  Biso   1.000  O
  O43      1.0000 0.61280  0.05940  0.40660  Biso   1.000  O
  O44      1.0000 0.61210  0.19670  0.35710  Biso   1.000  O
  O45      1.0000 0.94060  0.55340  0.40660  Biso   1.000  O
  O46      1.0000 0.80330  0.41540  0.35710  Biso   1.000  O
  O47      1.0000 0.44660  0.38720  0.40660  Biso   1.000  O
  O48      1.0000 0.58460  0.38790  0.35710  Biso   1.000  O
  O49      1.0000 0.35300  0.86550  0.00000  Biso   1.000  O
  O50      1.0000 0.51250  0.64700  0.00000  Biso   1.000  O
  O51      1.0000 0.13450  0.48750  0.00000  Biso   1.000  O
  O52      1.0000 0.64700  0.13450  0.00000  Biso   1.000  O
  O53      1.0000 0.48750  0.35300  0.00000  Biso   1.000  O
  O54      1.0000 0.86550  0.51250  0.00000  Biso   1.000  O
  O55      1.0000 0.48750  0.13450  0.50000  Biso   1.000  O
  O56      1.0000 0.86550  0.35300  0.50000  Biso   1.000  O
  O57      1.0000 0.64700  0.51250  0.50000  Biso   1.000  O
  O58      1.0000 0.51250  0.86550  0.50000  Biso   1.000  O
  O59      1.0000 0.13450  0.64700  0.50000  Biso   1.000  O
  O60      1.0000 0.35300  0.48750  0.50000  Biso   1.000  O
