data_image0
_cell_length_a       15.354
_cell_length_b       15.514
_cell_length_c       15.514
_cell_angle_alpha    120
_cell_angle_beta     90
_cell_angle_gamma    90

_symmetry_space_group_name_H-M    P 1
_symmetry_int_tables_number       1

loop_
  _symmetry_equiv_pos_as_xyz
  'x, y, z'

loop_
  _atom_site_label
  _atom_site_occupancy
  _atom_site_fract_x
  _atom_site_fract_y
  _atom_site_fract_z
  _atom_site_thermal_displace_type
  _atom_site_B_iso_or_equiv
  _atom_site_type_symbol
  Pr1      1.0000 0.75000  0.66667  0.33334  Biso   1.000  Pr
  Pr2      1.0000 0.75000  0.33333  0.66666  Biso   1.000  Pr
  Pr3      1.0000 0.25000  0.33333  0.66666  Biso   1.000  Pr
  Pr4      1.0000 0.25000  0.66667  0.33334  Biso   1.000  Pr
  Fe1      1.0000 0.00000  0.50000  0.50000  Biso   1.000  Fe
  Fe2      1.0000 0.00000  0.00000  0.50000  Biso   1.000  Fe
  Fe3      1.0000 0.00000  0.50000  0.00000  Biso   1.000  Fe
  Fe4      1.0000 0.50000  0.00000  0.50000  Biso   1.000  Fe
  Fe5      1.0000 0.50000  0.50000  0.50000  Biso   1.000  Fe
  Fe6      1.0000 0.50000  0.50000  0.00000  Biso   1.000  Fe
  H1       1.0000 0.84440  0.76630  0.71280  Biso   1.000  H
  H2       1.0000 0.84440  0.94650  0.23370  Biso   1.000  H
  H3       1.0000 0.84440  0.28720  0.05350  Biso   1.000  H
  H4       1.0000 0.84440  0.23370  0.28720  Biso   1.000  H
  H5       1.0000 0.84440  0.05350  0.76630  Biso   1.000  H
  H6       1.0000 0.84440  0.71280  0.94650  Biso   1.000  H
  H7       1.0000 0.65560  0.05350  0.28720  Biso   1.000  H
  H8       1.0000 0.65560  0.71280  0.76630  Biso   1.000  H
  H9       1.0000 0.65560  0.23370  0.94650  Biso   1.000  H
  H10      1.0000 0.65560  0.94650  0.71280  Biso   1.000  H
  H11      1.0000 0.65560  0.28720  0.23370  Biso   1.000  H
  H12      1.0000 0.65560  0.76630  0.05350  Biso   1.000  H
  H13      1.0000 0.15560  0.23370  0.28720  Biso   1.000  H
  H14      1.0000 0.15560  0.05350  0.76630  Biso   1.000  H
  H15      1.0000 0.15560  0.71280  0.94650  Biso   1.000  H
  H16      1.0000 0.15560  0.76630  0.71280  Biso   1.000  H
  H17      1.0000 0.15560  0.94650  0.23370  Biso   1.000  H
  H18      1.0000 0.15560  0.28720  0.05350  Biso   1.000  H
  H19      1.0000 0.34440  0.94650  0.71280  Biso   1.000  H
  H20      1.0000 0.34440  0.28720  0.23370  Biso   1.000  H
  H21      1.0000 0.34440  0.76630  0.05350  Biso   1.000  H
  H22      1.0000 0.34440  0.05350  0.28720  Biso   1.000  H
  H23      1.0000 0.34440  0.71280  0.76630  Biso   1.000  H
  H24      1.0000 0.34440  0.23370  0.94650  Biso   1.000  H
  H25      1.0000 0.75000  0.89990  0.79980  Biso   1.000  H
  H26      1.0000 0.75000  0.89990  0.10010  Biso   1.000  H
  H27      1.0000 0.75000  0.20020  0.10010  Biso   1.000  H
  H28      1.0000 0.75000  0.10010  0.20020  Biso   1.000  H
  H29      1.0000 0.75000  0.10010  0.89990  Biso   1.000  H
  H30      1.0000 0.75000  0.79980  0.89990  Biso   1.000  H
  H31      1.0000 0.25000  0.10010  0.20020  Biso   1.000  H
  H32      1.0000 0.25000  0.10010  0.89990  Biso   1.000  H
  H33      1.0000 0.25000  0.79980  0.89990  Biso   1.000  H
  H34      1.0000 0.25000  0.89990  0.79980  Biso   1.000  H
  H35      1.0000 0.25000  0.89990  0.10010  Biso   1.000  H
  H36      1.0000 0.25000  0.20020  0.10010  Biso   1.000  H
  C1       1.0000 0.80360  0.73570  0.57650  Biso   1.000  C
  C2       1.0000 0.80610  0.78560  0.67910  Biso   1.000  C
  C3       1.0000 0.86100  0.64700  0.51240  Biso   1.000  C
  C4       1.0000 0.80360  0.84080  0.26430  Biso   1.000  C
  C5       1.0000 0.80610  0.89350  0.21440  Biso   1.000  C
  C6       1.0000 0.86100  0.86540  0.35300  Biso   1.000  C
  C7       1.0000 0.80360  0.42350  0.15920  Biso   1.000  C
  C8       1.0000 0.80610  0.32090  0.10650  Biso   1.000  C
  C9       1.0000 0.86100  0.48760  0.13460  Biso   1.000  C
  C10      1.0000 0.80360  0.26430  0.42350  Biso   1.000  C
  C11      1.0000 0.80610  0.21440  0.32090  Biso   1.000  C
  C12      1.0000 0.86100  0.35300  0.48760  Biso   1.000  C
  C13      1.0000 0.80360  0.15920  0.73570  Biso   1.000  C
  C14      1.0000 0.80610  0.10650  0.78560  Biso   1.000  C
  C15      1.0000 0.86100  0.13460  0.64700  Biso   1.000  C
  C16      1.0000 0.80360  0.57650  0.84080  Biso   1.000  C
  C17      1.0000 0.80610  0.67910  0.89350  Biso   1.000  C
  C18      1.0000 0.86100  0.51240  0.86540  Biso   1.000  C
  C19      1.0000 0.69640  0.15920  0.42350  Biso   1.000  C
  C20      1.0000 0.69390  0.10650  0.32090  Biso   1.000  C
  C21      1.0000 0.63900  0.13460  0.48760  Biso   1.000  C
  C22      1.0000 0.69640  0.57650  0.73570  Biso   1.000  C
  C23      1.0000 0.69390  0.67910  0.78560  Biso   1.000  C
  C24      1.0000 0.63900  0.51240  0.64700  Biso   1.000  C
  C25      1.0000 0.69640  0.26430  0.84080  Biso   1.000  C
  C26      1.0000 0.69390  0.21440  0.89350  Biso   1.000  C
  C27      1.0000 0.63900  0.35300  0.86540  Biso   1.000  C
  C28      1.0000 0.69640  0.84080  0.57650  Biso   1.000  C
  C29      1.0000 0.69390  0.89350  0.67910  Biso   1.000  C
  C30      1.0000 0.63900  0.86540  0.51240  Biso   1.000  C
  C31      1.0000 0.69640  0.42350  0.26430  Biso   1.000  C
  C32      1.0000 0.69390  0.32090  0.21440  Biso   1.000  C
  C33      1.0000 0.63900  0.48760  0.35300  Biso   1.000  C
  C34      1.0000 0.69640  0.73570  0.15920  Biso   1.000  C
  C35      1.0000 0.69390  0.78560  0.10650  Biso   1.000  C
  C36      1.0000 0.63900  0.64700  0.13460  Biso   1.000  C
  C37      1.0000 0.19640  0.26430  0.42350  Biso   1.000  C
  C38      1.0000 0.19390  0.21440  0.32090  Biso   1.000  C
  C39      1.0000 0.13900  0.35300  0.48760  Biso   1.000  C
  C40      1.0000 0.19640  0.15920  0.73570  Biso   1.000  C
  C41      1.0000 0.19390  0.10650  0.78560  Biso   1.000  C
  C42      1.0000 0.13900  0.13460  0.64700  Biso   1.000  C
  C43      1.0000 0.19640  0.57650  0.84080  Biso   1.000  C
  C44      1.0000 0.19390  0.67910  0.89350  Biso   1.000  C
  C45      1.0000 0.13900  0.51240  0.86540  Biso   1.000  C
  C46      1.0000 0.19640  0.73570  0.57650  Biso   1.000  C
  C47      1.0000 0.19390  0.78560  0.67910  Biso   1.000  C
  C48      1.0000 0.13900  0.64700  0.51240  Biso   1.000  C
  C49      1.0000 0.19640  0.84080  0.26430  Biso   1.000  C
  C50      1.0000 0.19390  0.89350  0.21440  Biso   1.000  C
  C51      1.0000 0.13900  0.86540  0.35300  Biso   1.000  C
  C52      1.0000 0.19640  0.42350  0.15920  Biso   1.000  C
  C53      1.0000 0.19390  0.32090  0.10650  Biso   1.000  C
  C54      1.0000 0.13900  0.48760  0.13460  Biso   1.000  C
  C55      1.0000 0.30360  0.84080  0.57650  Biso   1.000  C
  C56      1.0000 0.30610  0.89350  0.67910  Biso   1.000  C
  C57      1.0000 0.36100  0.86540  0.51240  Biso   1.000  C
  C58      1.0000 0.30360  0.42350  0.26430  Biso   1.000  C
  C59      1.0000 0.30610  0.32090  0.21440  Biso   1.000  C
  C60      1.0000 0.36100  0.48760  0.35300  Biso   1.000  C
  C61      1.0000 0.30360  0.73570  0.15920  Biso   1.000  C
  C62      1.0000 0.30610  0.78560  0.10650  Biso   1.000  C
  C63      1.0000 0.36100  0.64700  0.13460  Biso   1.000  C
  C64      1.0000 0.30360  0.15920  0.42350  Biso   1.000  C
  C65      1.0000 0.30610  0.10650  0.32090  Biso   1.000  C
  C66      1.0000 0.36100  0.13460  0.48760  Biso   1.000  C
  C67      1.0000 0.30360  0.57650  0.73570  Biso   1.000  C
  C68      1.0000 0.30610  0.67910  0.78560  Biso   1.000  C
  C69      1.0000 0.36100  0.51240  0.64700  Biso   1.000  C
  C70      1.0000 0.30360  0.26430  0.84080  Biso   1.000  C
  C71      1.0000 0.30610  0.21440  0.89350  Biso   1.000  C
  C72      1.0000 0.36100  0.35300  0.86540  Biso   1.000  C
  C73      1.0000 0.75000  0.86530  0.73060  Biso   1.000  C
  C74      1.0000 0.75000  0.86530  0.13470  Biso   1.000  C
  C75      1.0000 0.75000  0.26940  0.13470  Biso   1.000  C
  C76      1.0000 0.75000  0.13470  0.26940  Biso   1.000  C
  C77      1.0000 0.75000  0.13470  0.86530  Biso   1.000  C
  C78      1.0000 0.75000  0.73060  0.86530  Biso   1.000  C
  C79      1.0000 0.25000  0.13470  0.26940  Biso   1.000  C
  C80      1.0000 0.25000  0.13470  0.86530  Biso   1.000  C
  C81      1.0000 0.25000  0.73060  0.86530  Biso   1.000  C
  C82      1.0000 0.25000  0.86530  0.73060  Biso   1.000  C
  C83      1.0000 0.25000  0.86530  0.13470  Biso   1.000  C
  C84      1.0000 0.25000  0.26940  0.13470  Biso   1.000  C
  N1       1.0000 0.75000  0.76291  0.52582  Biso   1.000  N
  N2       1.0000 0.75000  0.76291  0.23709  Biso   1.000  N
  N3       1.0000 0.75000  0.47418  0.23709  Biso   1.000  N
  N4       1.0000 0.75000  0.23709  0.47418  Biso   1.000  N
  N5       1.0000 0.75000  0.23709  0.76291  Biso   1.000  N
  N6       1.0000 0.75000  0.52582  0.76291  Biso   1.000  N
  N7       1.0000 0.25000  0.23709  0.47418  Biso   1.000  N
  N8       1.0000 0.25000  0.23709  0.76291  Biso   1.000  N
  N9       1.0000 0.25000  0.52582  0.76291  Biso   1.000  N
  N10      1.0000 0.25000  0.76291  0.52582  Biso   1.000  N
  N11      1.0000 0.25000  0.76291  0.23709  Biso   1.000  N
  N12      1.0000 0.25000  0.47418  0.23709  Biso   1.000  N
  O1       1.0000 0.85898  0.61400  0.41860  Biso   1.000  O
  O2       1.0000 0.90570  0.61260  0.55500  Biso   1.000  O
  O3       1.0000 0.85898  0.80460  0.38600  Biso   1.000  O
  O4       1.0000 0.90570  0.94240  0.38740  Biso   1.000  O
  O5       1.0000 0.85898  0.58140  0.19540  Biso   1.000  O
  O6       1.0000 0.90570  0.44500  0.05760  Biso   1.000  O
  O7       1.0000 0.85898  0.38600  0.58140  Biso   1.000  O
  O8       1.0000 0.90570  0.38740  0.44500  Biso   1.000  O
  O9       1.0000 0.85898  0.19540  0.61400  Biso   1.000  O
  O10      1.0000 0.90570  0.05760  0.61260  Biso   1.000  O
  O11      1.0000 0.85898  0.41860  0.80460  Biso   1.000  O
  O12      1.0000 0.90570  0.55500  0.94240  Biso   1.000  O
  O13      1.0000 0.64102  0.19540  0.58140  Biso   1.000  O
  O14      1.0000 0.59430  0.05760  0.44500  Biso   1.000  O
  O15      1.0000 0.64102  0.41860  0.61400  Biso   1.000  O
  O16      1.0000 0.59430  0.55500  0.61260  Biso   1.000  O
  O17      1.0000 0.64102  0.38600  0.80460  Biso   1.000  O
  O18      1.0000 0.59430  0.38740  0.94240  Biso   1.000  O
  O19      1.0000 0.64102  0.80460  0.41860  Biso   1.000  O
  O20      1.0000 0.59430  0.94240  0.55500  Biso   1.000  O
  O21      1.0000 0.64102  0.58140  0.38600  Biso   1.000  O
  O22      1.0000 0.59430  0.44500  0.38740  Biso   1.000  O
  O23      1.0000 0.64102  0.61400  0.19540  Biso   1.000  O
  O24      1.0000 0.59430  0.61260  0.05760  Biso   1.000  O
  O25      1.0000 0.14102  0.38600  0.58140  Biso   1.000  O
  O26      1.0000 0.09430  0.38740  0.44500  Biso   1.000  O
  O27      1.0000 0.14102  0.19540  0.61400  Biso   1.000  O
  O28      1.0000 0.09430  0.05760  0.61260  Biso   1.000  O
  O29      1.0000 0.14102  0.41860  0.80460  Biso   1.000  O
  O30      1.0000 0.09430  0.55500  0.94240  Biso   1.000  O
  O31      1.0000 0.14102  0.61400  0.41860  Biso   1.000  O
  O32      1.0000 0.09430  0.61260  0.55500  Biso   1.000  O
  O33      1.0000 0.14102  0.80460  0.38600  Biso   1.000  O
  O34      1.0000 0.09430  0.94240  0.38740  Biso   1.000  O
  O35      1.0000 0.14102  0.58140  0.19540  Biso   1.000  O
  O36      1.0000 0.09430  0.44500  0.05760  Biso   1.000  O
  O37      1.0000 0.35898  0.80460  0.41860  Biso   1.000  O
  O38      1.0000 0.40570  0.94240  0.55500  Biso   1.000  O
  O39      1.0000 0.35898  0.58140  0.38600  Biso   1.000  O
  O40      1.0000 0.40570  0.44500  0.38740  Biso   1.000  O
  O41      1.0000 0.35898  0.61400  0.19540  Biso   1.000  O
  O42      1.0000 0.40570  0.61260  0.05760  Biso   1.000  O
  O43      1.0000 0.35898  0.19540  0.58140  Biso   1.000  O
  O44      1.0000 0.40570  0.05760  0.44500  Biso   1.000  O
  O45      1.0000 0.35898  0.41860  0.61400  Biso   1.000  O
  O46      1.0000 0.40570  0.55500  0.61260  Biso   1.000  O
  O47      1.0000 0.35898  0.38600  0.80460  Biso   1.000  O
  O48      1.0000 0.40570  0.38740  0.94240  Biso   1.000  O
  O49      1.0000 0.00000  0.51080  0.64470  Biso   1.000  O
  O50      1.0000 0.00000  0.13390  0.48920  Biso   1.000  O
  O51      1.0000 0.00000  0.35530  0.86610  Biso   1.000  O
  O52      1.0000 0.00000  0.48920  0.35530  Biso   1.000  O
  O53      1.0000 0.00000  0.86610  0.51080  Biso   1.000  O
  O54      1.0000 0.00000  0.64470  0.13390  Biso   1.000  O
  O55      1.0000 0.50000  0.86610  0.35530  Biso   1.000  O
  O56      1.0000 0.50000  0.64470  0.51080  Biso   1.000  O
  O57      1.0000 0.50000  0.48920  0.13390  Biso   1.000  O
  O58      1.0000 0.50000  0.13390  0.64470  Biso   1.000  O
  O59      1.0000 0.50000  0.35530  0.48920  Biso   1.000  O
  O60      1.0000 0.50000  0.51080  0.86610  Biso   1.000  O
