data_image0
_cell_length_a       14.5755
_cell_length_b       14.5755
_cell_length_c       14.5755
_cell_angle_alpha    109.471
_cell_angle_beta     109.471
_cell_angle_gamma    109.471

_symmetry_space_group_name_H-M    P 1
_symmetry_int_tables_number       1

loop_
  _symmetry_equiv_pos_as_xyz
  'x, y, z'

loop_
  _atom_site_label
  _atom_site_occupancy
  _atom_site_fract_x
  _atom_site_fract_y
  _atom_site_fract_z
  _atom_site_thermal_displace_type
  _atom_site_B_iso_or_equiv
  _atom_site_type_symbol
  Zn1      1.0000 0.75000  0.50000  0.25000  Biso   1.000  Zn
  Zn2      1.0000 0.25000  0.50000  0.75000  Biso   1.000  Zn
  Zn3      1.0000 0.25000  0.75000  0.50000  Biso   1.000  Zn
  Zn4      1.0000 0.75000  0.25000  0.50000  Biso   1.000  Zn
  Zn5      1.0000 0.50000  0.75000  0.25000  Biso   1.000  Zn
  Zn6      1.0000 0.50000  0.25000  0.75000  Biso   1.000  Zn
  H1       1.0000 0.66900  0.53730  0.43490  Biso   1.000  H
  H2       1.0000 0.10240  0.23410  0.56510  Biso   1.000  H
  H3       1.0000 0.89760  0.46270  0.13170  Biso   1.000  H
  H4       1.0000 0.33100  0.76590  0.86830  Biso   1.000  H
  H5       1.0000 0.13170  0.89760  0.46270  Biso   1.000  H
  H6       1.0000 0.86830  0.33100  0.76590  Biso   1.000  H
  H7       1.0000 0.43490  0.66900  0.53730  Biso   1.000  H
  H8       1.0000 0.56510  0.10240  0.23410  Biso   1.000  H
  H9       1.0000 0.23410  0.56510  0.10240  Biso   1.000  H
  H10      1.0000 0.53730  0.43490  0.66900  Biso   1.000  H
  H11      1.0000 0.76590  0.86830  0.33100  Biso   1.000  H
  H12      1.0000 0.46270  0.13170  0.89760  Biso   1.000  H
  H13      1.0000 0.23410  0.10240  0.56510  Biso   1.000  H
  H14      1.0000 0.53730  0.66900  0.43490  Biso   1.000  H
  H15      1.0000 0.76590  0.33100  0.86830  Biso   1.000  H
  H16      1.0000 0.46270  0.89760  0.13170  Biso   1.000  H
  H17      1.0000 0.66900  0.43490  0.53730  Biso   1.000  H
  H18      1.0000 0.10240  0.56510  0.23410  Biso   1.000  H
  H19      1.0000 0.89760  0.13170  0.46270  Biso   1.000  H
  H20      1.0000 0.33100  0.86830  0.76590  Biso   1.000  H
  H21      1.0000 0.13170  0.46270  0.89760  Biso   1.000  H
  H22      1.0000 0.86830  0.76590  0.33100  Biso   1.000  H
  H23      1.0000 0.43490  0.53730  0.66900  Biso   1.000  H
  H24      1.0000 0.56510  0.23410  0.10240  Biso   1.000  H
  H25      1.0000 0.80300  0.35840  0.35840  Biso   1.000  H
  H26      1.0000 1.00000  0.44460  0.64160  Biso   1.000  H
  H27      1.0000 0.00000  0.64160  0.44460  Biso   1.000  H
  H28      1.0000 0.19700  0.55540  0.55540  Biso   1.000  H
  H29      1.0000 0.44460  0.00000  0.64160  Biso   1.000  H
  H30      1.0000 0.55540  0.19700  0.55540  Biso   1.000  H
  H31      1.0000 0.35840  0.80300  0.35840  Biso   1.000  H
  H32      1.0000 0.64160  0.00000  0.44460  Biso   1.000  H
  H33      1.0000 0.44460  0.64160  0.00000  Biso   1.000  H
  H34      1.0000 0.35840  0.35840  0.80300  Biso   1.000  H
  H35      1.0000 0.55540  0.55540  0.19700  Biso   1.000  H
  H36      1.0000 0.64160  0.44460  0.00000  Biso   1.000  H
  C1       1.0000 0.69120  0.48200  0.42580  Biso   1.000  C
  C2       1.0000 0.05620  0.26540  0.57420  Biso   1.000  C
  C3       1.0000 0.94380  0.51800  0.20920  Biso   1.000  C
  C4       1.0000 0.30880  0.73460  0.79080  Biso   1.000  C
  C5       1.0000 0.20920  0.94380  0.51800  Biso   1.000  C
  C6       1.0000 0.79080  0.30880  0.73460  Biso   1.000  C
  C7       1.0000 0.42580  0.69120  0.48200  Biso   1.000  C
  C8       1.0000 0.57420  0.05620  0.26540  Biso   1.000  C
  C9       1.0000 0.26540  0.57420  0.05620  Biso   1.000  C
  C10      1.0000 0.48200  0.42580  0.69120  Biso   1.000  C
  C11      1.0000 0.73460  0.79080  0.30880  Biso   1.000  C
  C12      1.0000 0.51800  0.20920  0.94380  Biso   1.000  C
  C13      1.0000 0.26540  0.05620  0.57420  Biso   1.000  C
  C14      1.0000 0.48200  0.69120  0.42580  Biso   1.000  C
  C15      1.0000 0.73460  0.30880  0.79080  Biso   1.000  C
  C16      1.0000 0.51800  0.94380  0.20920  Biso   1.000  C
  C17      1.0000 0.69120  0.42580  0.48200  Biso   1.000  C
  C18      1.0000 0.05620  0.57420  0.26540  Biso   1.000  C
  C19      1.0000 0.94380  0.20920  0.51800  Biso   1.000  C
  C20      1.0000 0.30880  0.79080  0.73460  Biso   1.000  C
  C21      1.0000 0.20920  0.51800  0.94380  Biso   1.000  C
  C22      1.0000 0.79080  0.73460  0.30880  Biso   1.000  C
  C23      1.0000 0.42580  0.48200  0.69120  Biso   1.000  C
  C24      1.0000 0.57420  0.26540  0.05620  Biso   1.000  C
  C25      1.0000 0.75874  0.38327  0.38327  Biso   1.000  C
  C26      1.0000 0.00000  0.37547  0.61673  Biso   1.000  C
  C27      1.0000 1.00000  0.61673  0.37547  Biso   1.000  C
  C28      1.0000 0.24126  0.62453  0.62453  Biso   1.000  C
  C29      1.0000 0.37547  0.00000  0.61673  Biso   1.000  C
  C30      1.0000 0.62453  0.24126  0.62453  Biso   1.000  C
  C31      1.0000 0.38327  0.75874  0.38327  Biso   1.000  C
  C32      1.0000 0.61673  0.00000  0.37547  Biso   1.000  C
  C33      1.0000 0.37547  0.61673  0.00000  Biso   1.000  C
  C34      1.0000 0.38327  0.38327  0.75874  Biso   1.000  C
  C35      1.0000 0.62453  0.62453  0.24126  Biso   1.000  C
  C36      1.0000 0.61673  0.37547  0.00000  Biso   1.000  C
  N1       1.0000 0.72781  0.44744  0.35373  Biso   1.000  N
  N2       1.0000 0.09371  0.37408  0.64627  Biso   1.000  N
  N3       1.0000 0.90629  0.55256  0.28037  Biso   1.000  N
  N4       1.0000 0.27219  0.62592  0.71963  Biso   1.000  N
  N5       1.0000 0.28037  0.90629  0.55256  Biso   1.000  N
  N6       1.0000 0.71963  0.27219  0.62592  Biso   1.000  N
  N7       1.0000 0.35373  0.72781  0.44744  Biso   1.000  N
  N8       1.0000 0.64627  0.09371  0.37408  Biso   1.000  N
  N9       1.0000 0.37408  0.64627  0.09371  Biso   1.000  N
  N10      1.0000 0.44744  0.35373  0.72781  Biso   1.000  N
  N11      1.0000 0.62592  0.71963  0.27219  Biso   1.000  N
  N12      1.0000 0.55256  0.28037  0.90629  Biso   1.000  N
  N13      1.0000 0.37408  0.09371  0.64627  Biso   1.000  N
  N14      1.0000 0.44744  0.72781  0.35373  Biso   1.000  N
  N15      1.0000 0.62592  0.27219  0.71963  Biso   1.000  N
  N16      1.0000 0.55256  0.90629  0.28037  Biso   1.000  N
  N17      1.0000 0.72781  0.35373  0.44744  Biso   1.000  N
  N18      1.0000 0.09371  0.64627  0.37408  Biso   1.000  N
  N19      1.0000 0.90629  0.28037  0.55256  Biso   1.000  N
  N20      1.0000 0.27219  0.71963  0.62592  Biso   1.000  N
  N21      1.0000 0.28037  0.55256  0.90629  Biso   1.000  N
  N22      1.0000 0.71963  0.62592  0.27219  Biso   1.000  N
  N23      1.0000 0.35373  0.44744  0.72781  Biso   1.000  N
  N24      1.0000 0.64627  0.37408  0.09371  Biso   1.000  N
