data_image0
_cell_length_a       20.0135
_cell_length_b       20.0135
_cell_length_c       20.0135
_cell_angle_alpha    109.471
_cell_angle_beta     109.471
_cell_angle_gamma    109.471

_symmetry_space_group_name_H-M    P 1
_symmetry_int_tables_number       1

loop_
  _symmetry_equiv_pos_as_xyz
  'x, y, z'

loop_
  _atom_site_label
  _atom_site_occupancy
  _atom_site_fract_x
  _atom_site_fract_y
  _atom_site_fract_z
  _atom_site_thermal_displace_type
  _atom_site_B_iso_or_equiv
  _atom_site_type_symbol
  Cu1      1.0000 0.20800  0.87696  0.24810  Biso   1.000  Cu
  Cu2      1.0000 0.12886  0.95990  0.25190  Biso   1.000  Cu
  Cu3      1.0000 0.37114  0.62304  0.83104  Biso   1.000  Cu
  Cu4      1.0000 0.29200  0.54010  0.66896  Biso   1.000  Cu
  Cu5      1.0000 0.33104  0.37114  0.12304  Biso   1.000  Cu
  Cu6      1.0000 0.16896  0.29200  0.04010  Biso   1.000  Cu
  Cu7      1.0000 0.74810  0.20800  0.37696  Biso   1.000  Cu
  Cu8      1.0000 0.75190  0.12886  0.45990  Biso   1.000  Cu
  Cu9      1.0000 0.95990  0.75190  0.62886  Biso   1.000  Cu
  Cu10     1.0000 0.87696  0.74810  0.70800  Biso   1.000  Cu
  Cu11     1.0000 0.54010  0.16896  0.79200  Biso   1.000  Cu
  Cu12     1.0000 0.62304  0.33104  0.87114  Biso   1.000  Cu
  Cu13     1.0000 0.45990  0.62886  0.75190  Biso   1.000  Cu
  Cu14     1.0000 0.37696  0.70800  0.74810  Biso   1.000  Cu
  Cu15     1.0000 0.04010  0.79200  0.16896  Biso   1.000  Cu
  Cu16     1.0000 0.12304  0.87114  0.33104  Biso   1.000  Cu
  Cu17     1.0000 0.70800  0.24810  0.87696  Biso   1.000  Cu
  Cu18     1.0000 0.62886  0.25190  0.95990  Biso   1.000  Cu
  Cu19     1.0000 0.87114  0.83104  0.62304  Biso   1.000  Cu
  Cu20     1.0000 0.79200  0.66896  0.54010  Biso   1.000  Cu
  Cu21     1.0000 0.83104  0.12304  0.37114  Biso   1.000  Cu
  Cu22     1.0000 0.66896  0.04010  0.29200  Biso   1.000  Cu
  Cu23     1.0000 0.24810  0.37696  0.20800  Biso   1.000  Cu
  Cu24     1.0000 0.25190  0.45990  0.12886  Biso   1.000  Cu
  H1       1.0000 0.29550  0.97760  0.19690  Biso   1.000  H
  H2       1.0000 0.44600  0.85260  0.22580  Biso   1.000  H
  H3       1.0000 0.54720  0.01800  0.13320  Biso   1.000  H
  H4       1.0000 0.45150  0.97730  0.07200  Biso   1.000  H
  H5       1.0000 0.49260  0.04660  0.16500  Biso   1.000  H
  H6       1.0000 0.28070  0.09860  0.30310  Biso   1.000  H
  H7       1.0000 0.12680  0.22020  0.27420  Biso   1.000  H
  H8       1.0000 0.38480  0.41400  0.36680  Biso   1.000  H
  H9       1.0000 0.40530  0.37950  0.42800  Biso   1.000  H
  H10      1.0000 0.38160  0.32760  0.33500  Biso   1.000  H
  H11      1.0000 0.21930  0.52240  0.81790  Biso   1.000  H
  H12      1.0000 0.37320  0.64740  0.09340  Biso   1.000  H
  H13      1.0000 0.11520  0.48200  0.02920  Biso   1.000  H
  H14      1.0000 0.09470  0.52270  0.97420  Biso   1.000  H
  H15      1.0000 0.11840  0.45340  0.94600  Biso   1.000  H
  H16      1.0000 0.20450  0.40140  0.68210  Biso   1.000  H
  H17      1.0000 0.05400  0.27980  0.40660  Biso   1.000  H
  H18      1.0000 0.95280  0.08600  0.47080  Biso   1.000  H
  H19      1.0000 0.04850  0.12050  0.52580  Biso   1.000  H
  H20      1.0000 0.00740  0.17240  0.55400  Biso   1.000  H
  H21      1.0000 0.31790  0.21930  0.02240  Biso   1.000  H
  H22      1.0000 0.59340  0.37320  0.14740  Biso   1.000  H
  H23      1.0000 0.52920  0.11520  0.98200  Biso   1.000  H
  H24      1.0000 0.47420  0.09470  0.02270  Biso   1.000  H
  H25      1.0000 0.44600  0.11840  0.95340  Biso   1.000  H
  H26      1.0000 0.18210  0.20450  0.90140  Biso   1.000  H
  H27      1.0000 0.90660  0.05400  0.77980  Biso   1.000  H
  H28      1.0000 0.97080  0.95280  0.58600  Biso   1.000  H
  H29      1.0000 0.02580  0.04850  0.62050  Biso   1.000  H
  H30      1.0000 0.05400  0.00740  0.67240  Biso   1.000  H
  H31      1.0000 0.69690  0.29550  0.47760  Biso   1.000  H
  H32      1.0000 0.72580  0.44600  0.35260  Biso   1.000  H
  H33      1.0000 0.63320  0.54720  0.51800  Biso   1.000  H
  H34      1.0000 0.57200  0.45150  0.47730  Biso   1.000  H
  H35      1.0000 0.66500  0.49260  0.54660  Biso   1.000  H
  H36      1.0000 0.80310  0.28070  0.59860  Biso   1.000  H
  H37      1.0000 0.77420  0.12680  0.72020  Biso   1.000  H
  H38      1.0000 0.86680  0.38480  0.91400  Biso   1.000  H
  H39      1.0000 0.92800  0.40530  0.87950  Biso   1.000  H
  H40      1.0000 0.83500  0.38160  0.82760  Biso   1.000  H
  H41      1.0000 0.09860  0.80310  0.78070  Biso   1.000  H
  H42      1.0000 0.22020  0.77420  0.62680  Biso   1.000  H
  H43      1.0000 0.41400  0.86680  0.88480  Biso   1.000  H
  H44      1.0000 0.37950  0.92800  0.90530  Biso   1.000  H
  H45      1.0000 0.32760  0.83500  0.88160  Biso   1.000  H
  H46      1.0000 0.97760  0.69690  0.79550  Biso   1.000  H
  H47      1.0000 0.85260  0.72580  0.94600  Biso   1.000  H
  H48      1.0000 0.01800  0.63320  0.04720  Biso   1.000  H
  H49      1.0000 0.97730  0.57200  0.95150  Biso   1.000  H
  H50      1.0000 0.04660  0.66500  0.99260  Biso   1.000  H
  H51      1.0000 0.40140  0.18210  0.70450  Biso   1.000  H
  H52      1.0000 0.27980  0.90660  0.55400  Biso   1.000  H
  H53      1.0000 0.08600  0.97080  0.45280  Biso   1.000  H
  H54      1.0000 0.12050  0.02580  0.54850  Biso   1.000  H
  H55      1.0000 0.17240  0.05400  0.50740  Biso   1.000  H
  H56      1.0000 0.52240  0.31790  0.71930  Biso   1.000  H
  H57      1.0000 0.64740  0.59340  0.87320  Biso   1.000  H
  H58      1.0000 0.48200  0.52920  0.61520  Biso   1.000  H
  H59      1.0000 0.52270  0.47420  0.59470  Biso   1.000  H
  H60      1.0000 0.45340  0.44600  0.61840  Biso   1.000  H
  H61      1.0000 0.59860  0.78070  0.80310  Biso   1.000  H
  H62      1.0000 0.72020  0.62680  0.77420  Biso   1.000  H
  H63      1.0000 0.91400  0.88480  0.86680  Biso   1.000  H
  H64      1.0000 0.87950  0.90530  0.92800  Biso   1.000  H
  H65      1.0000 0.82760  0.88160  0.83500  Biso   1.000  H
  H66      1.0000 0.47760  0.79550  0.69690  Biso   1.000  H
  H67      1.0000 0.35260  0.94600  0.72580  Biso   1.000  H
  H68      1.0000 0.51800  0.04720  0.63320  Biso   1.000  H
  H69      1.0000 0.47730  0.95150  0.57200  Biso   1.000  H
  H70      1.0000 0.54660  0.99260  0.66500  Biso   1.000  H
  H71      1.0000 0.90140  0.70450  0.18210  Biso   1.000  H
  H72      1.0000 0.77980  0.55400  0.90660  Biso   1.000  H
  H73      1.0000 0.58600  0.45280  0.97080  Biso   1.000  H
  H74      1.0000 0.62050  0.54850  0.02580  Biso   1.000  H
  H75      1.0000 0.67240  0.50740  0.05400  Biso   1.000  H
  H76      1.0000 0.02240  0.71930  0.31790  Biso   1.000  H
  H77      1.0000 0.14740  0.87320  0.59340  Biso   1.000  H
  H78      1.0000 0.98200  0.61520  0.52920  Biso   1.000  H
  H79      1.0000 0.02270  0.59470  0.47420  Biso   1.000  H
  H80      1.0000 0.95340  0.61840  0.44600  Biso   1.000  H
  H81      1.0000 0.79550  0.19690  0.97760  Biso   1.000  H
  H82      1.0000 0.94600  0.22580  0.85260  Biso   1.000  H
  H83      1.0000 0.04720  0.13320  0.01800  Biso   1.000  H
  H84      1.0000 0.95150  0.07200  0.97730  Biso   1.000  H
  H85      1.0000 0.99260  0.16500  0.04660  Biso   1.000  H
  H86      1.0000 0.78070  0.30310  0.09860  Biso   1.000  H
  H87      1.0000 0.62680  0.27420  0.22020  Biso   1.000  H
  H88      1.0000 0.88480  0.36680  0.41400  Biso   1.000  H
  H89      1.0000 0.90530  0.42800  0.37950  Biso   1.000  H
  H90      1.0000 0.88160  0.33500  0.32760  Biso   1.000  H
  H91      1.0000 0.71930  0.81790  0.52240  Biso   1.000  H
  H92      1.0000 0.87320  0.09340  0.64740  Biso   1.000  H
  H93      1.0000 0.61520  0.02920  0.48200  Biso   1.000  H
  H94      1.0000 0.59470  0.97420  0.52270  Biso   1.000  H
  H95      1.0000 0.61840  0.94600  0.45340  Biso   1.000  H
  H96      1.0000 0.70450  0.68210  0.40140  Biso   1.000  H
  H97      1.0000 0.55400  0.40660  0.27980  Biso   1.000  H
  H98      1.0000 0.45280  0.47080  0.08600  Biso   1.000  H
  H99      1.0000 0.54850  0.52580  0.12050  Biso   1.000  H
  H100     1.0000 0.50740  0.55400  0.17240  Biso   1.000  H
  H101     1.0000 0.81790  0.02240  0.21930  Biso   1.000  H
  H102     1.0000 0.09340  0.14740  0.37320  Biso   1.000  H
  H103     1.0000 0.02920  0.98200  0.11520  Biso   1.000  H
  H104     1.0000 0.97420  0.02270  0.09470  Biso   1.000  H
  H105     1.0000 0.94600  0.95340  0.11840  Biso   1.000  H
  H106     1.0000 0.68210  0.90140  0.20450  Biso   1.000  H
  H107     1.0000 0.40660  0.77980  0.05400  Biso   1.000  H
  H108     1.0000 0.47080  0.58600  0.95280  Biso   1.000  H
  H109     1.0000 0.52580  0.62050  0.04850  Biso   1.000  H
  H110     1.0000 0.55400  0.67240  0.00740  Biso   1.000  H
  H111     1.0000 0.19690  0.47760  0.29550  Biso   1.000  H
  H112     1.0000 0.22580  0.35260  0.44600  Biso   1.000  H
  H113     1.0000 0.13320  0.51800  0.54720  Biso   1.000  H
  H114     1.0000 0.07200  0.47730  0.45150  Biso   1.000  H
  H115     1.0000 0.16500  0.54660  0.49260  Biso   1.000  H
  H116     1.0000 0.30310  0.59860  0.28070  Biso   1.000  H
  H117     1.0000 0.27420  0.72020  0.12680  Biso   1.000  H
  H118     1.0000 0.36680  0.91400  0.38480  Biso   1.000  H
  H119     1.0000 0.42800  0.87950  0.40530  Biso   1.000  H
  H120     1.0000 0.33500  0.82760  0.38160  Biso   1.000  H
  C1       1.0000 0.32720  0.95160  0.20320  Biso   1.000  C
  C2       1.0000 0.41960  0.92600  0.18360  Biso   1.000  C
  C3       1.0000 0.41280  0.87710  0.21870  Biso   1.000  C
  C4       1.0000 0.35460  0.86580  0.24280  Biso   1.000  C
  C5       1.0000 0.49310  0.99990  0.12860  Biso   1.000  C
  C6       1.0000 0.24840  0.12400  0.29680  Biso   1.000  C
  C7       1.0000 0.24240  0.23600  0.31640  Biso   1.000  C
  C8       1.0000 0.15840  0.19410  0.28130  Biso   1.000  C
  C9       1.0000 0.12300  0.11180  0.25720  Biso   1.000  C
  C10      1.0000 0.37130  0.36450  0.37140  Biso   1.000  C
  C11      1.0000 0.25160  0.54840  0.87560  Biso   1.000  C
  C12      1.0000 0.25760  0.57400  0.99360  Biso   1.000  C
  C13      1.0000 0.34160  0.62290  0.03570  Biso   1.000  C
  C14      1.0000 0.37700  0.63420  0.98880  Biso   1.000  C
  C15      1.0000 0.12870  0.50010  0.99320  Biso   1.000  C
  C16      1.0000 0.17280  0.37600  0.62440  Biso   1.000  C
  C17      1.0000 0.08040  0.26400  0.50640  Biso   1.000  C
  C18      1.0000 0.08720  0.30590  0.46430  Biso   1.000  C
  C19      1.0000 0.14540  0.38820  0.51120  Biso   1.000  C
  C20      1.0000 0.00690  0.13550  0.50680  Biso   1.000  C
  C21      1.0000 0.37560  0.25160  0.04840  Biso   1.000  C
  C22      1.0000 0.49360  0.25760  0.07400  Biso   1.000  C
  C23      1.0000 0.53570  0.34160  0.12290  Biso   1.000  C
  C24      1.0000 0.48880  0.37700  0.13420  Biso   1.000  C
  C25      1.0000 0.49320  0.12870  0.00010  Biso   1.000  C
  C26      1.0000 0.12440  0.17280  0.87600  Biso   1.000  C
  C27      1.0000 0.00640  0.08040  0.76400  Biso   1.000  C
  C28      1.0000 0.96430  0.08720  0.80590  Biso   1.000  C
  C29      1.0000 0.01120  0.14540  0.88820  Biso   1.000  C
  C30      1.0000 0.00680  0.00690  0.63550  Biso   1.000  C
  C31      1.0000 0.70320  0.32720  0.45160  Biso   1.000  C
  C32      1.0000 0.68360  0.41960  0.42600  Biso   1.000  C
  C33      1.0000 0.71870  0.41280  0.37710  Biso   1.000  C
  C34      1.0000 0.74280  0.35460  0.36580  Biso   1.000  C
  C35      1.0000 0.62860  0.49310  0.49990  Biso   1.000  C
  C36      1.0000 0.79680  0.24840  0.62400  Biso   1.000  C
  C37      1.0000 0.81640  0.24240  0.73600  Biso   1.000  C
  C38      1.0000 0.78130  0.15840  0.69410  Biso   1.000  C
  C39      1.0000 0.75720  0.12300  0.61180  Biso   1.000  C
  C40      1.0000 0.87140  0.37130  0.86450  Biso   1.000  C
  C41      1.0000 0.12400  0.79680  0.74840  Biso   1.000  C
  C42      1.0000 0.23600  0.81640  0.74240  Biso   1.000  C
  C43      1.0000 0.19410  0.78130  0.65840  Biso   1.000  C
  C44      1.0000 0.11180  0.75720  0.62300  Biso   1.000  C
  C45      1.0000 0.36450  0.87140  0.87130  Biso   1.000  C
  C46      1.0000 0.95160  0.70320  0.82720  Biso   1.000  C
  C47      1.0000 0.92600  0.68360  0.91960  Biso   1.000  C
  C48      1.0000 0.87710  0.71870  0.91280  Biso   1.000  C
  C49      1.0000 0.86580  0.74280  0.85460  Biso   1.000  C
  C50      1.0000 0.99990  0.62860  0.99310  Biso   1.000  C
  C51      1.0000 0.37600  0.12440  0.67280  Biso   1.000  C
  C52      1.0000 0.26400  0.00640  0.58040  Biso   1.000  C
  C53      1.0000 0.30590  0.96430  0.58720  Biso   1.000  C
  C54      1.0000 0.38820  0.01120  0.64540  Biso   1.000  C
  C55      1.0000 0.13550  0.00680  0.50690  Biso   1.000  C
  C56      1.0000 0.54840  0.37560  0.75160  Biso   1.000  C
  C57      1.0000 0.57400  0.49360  0.75760  Biso   1.000  C
  C58      1.0000 0.62290  0.53570  0.84160  Biso   1.000  C
  C59      1.0000 0.63420  0.48880  0.87700  Biso   1.000  C
  C60      1.0000 0.50010  0.49320  0.62870  Biso   1.000  C
  C61      1.0000 0.62400  0.74840  0.79680  Biso   1.000  C
  C62      1.0000 0.73600  0.74240  0.81640  Biso   1.000  C
  C63      1.0000 0.69410  0.65840  0.78130  Biso   1.000  C
  C64      1.0000 0.61180  0.62300  0.75720  Biso   1.000  C
  C65      1.0000 0.86450  0.87130  0.87140  Biso   1.000  C
  C66      1.0000 0.45160  0.82720  0.70320  Biso   1.000  C
  C67      1.0000 0.42600  0.91960  0.68360  Biso   1.000  C
  C68      1.0000 0.37710  0.91280  0.71870  Biso   1.000  C
  C69      1.0000 0.36580  0.85460  0.74280  Biso   1.000  C
  C70      1.0000 0.49990  0.99310  0.62860  Biso   1.000  C
  C71      1.0000 0.87600  0.67280  0.12440  Biso   1.000  C
  C72      1.0000 0.76400  0.58040  0.00640  Biso   1.000  C
  C73      1.0000 0.80590  0.58720  0.96430  Biso   1.000  C
  C74      1.0000 0.88820  0.64540  0.01120  Biso   1.000  C
  C75      1.0000 0.63550  0.50690  0.00680  Biso   1.000  C
  C76      1.0000 0.04840  0.75160  0.37560  Biso   1.000  C
  C77      1.0000 0.07400  0.75760  0.49360  Biso   1.000  C
  C78      1.0000 0.12290  0.84160  0.53570  Biso   1.000  C
  C79      1.0000 0.13420  0.87700  0.48880  Biso   1.000  C
  C80      1.0000 0.00010  0.62870  0.49320  Biso   1.000  C
  C81      1.0000 0.82720  0.20320  0.95160  Biso   1.000  C
  C82      1.0000 0.91960  0.18360  0.92600  Biso   1.000  C
  C83      1.0000 0.91280  0.21870  0.87710  Biso   1.000  C
  C84      1.0000 0.85460  0.24280  0.86580  Biso   1.000  C
  C85      1.0000 0.99310  0.12860  0.99990  Biso   1.000  C
  C86      1.0000 0.74840  0.29680  0.12400  Biso   1.000  C
  C87      1.0000 0.74240  0.31640  0.23600  Biso   1.000  C
  C88      1.0000 0.65840  0.28130  0.19410  Biso   1.000  C
  C89      1.0000 0.62300  0.25720  0.11180  Biso   1.000  C
  C90      1.0000 0.87130  0.37140  0.36450  Biso   1.000  C
  C91      1.0000 0.75160  0.87560  0.54840  Biso   1.000  C
  C92      1.0000 0.75760  0.99360  0.57400  Biso   1.000  C
  C93      1.0000 0.84160  0.03570  0.62290  Biso   1.000  C
  C94      1.0000 0.87700  0.98880  0.63420  Biso   1.000  C
  C95      1.0000 0.62870  0.99320  0.50010  Biso   1.000  C
  C96      1.0000 0.67280  0.62440  0.37600  Biso   1.000  C
  C97      1.0000 0.58040  0.50640  0.26400  Biso   1.000  C
  C98      1.0000 0.58720  0.46430  0.30590  Biso   1.000  C
  C99      1.0000 0.64540  0.51120  0.38820  Biso   1.000  C
  C100     1.0000 0.50690  0.50680  0.13550  Biso   1.000  C
  C101     1.0000 0.87560  0.04840  0.25160  Biso   1.000  C
  C102     1.0000 0.99360  0.07400  0.25760  Biso   1.000  C
  C103     1.0000 0.03570  0.12290  0.34160  Biso   1.000  C
  C104     1.0000 0.98880  0.13420  0.37700  Biso   1.000  C
  C105     1.0000 0.99320  0.00010  0.12870  Biso   1.000  C
  C106     1.0000 0.62440  0.87600  0.17280  Biso   1.000  C
  C107     1.0000 0.50640  0.76400  0.08040  Biso   1.000  C
  C108     1.0000 0.46430  0.80590  0.08720  Biso   1.000  C
  C109     1.0000 0.51120  0.88820  0.14540  Biso   1.000  C
  C110     1.0000 0.50680  0.63550  0.00690  Biso   1.000  C
  C111     1.0000 0.20320  0.45160  0.32720  Biso   1.000  C
  C112     1.0000 0.18360  0.42600  0.41960  Biso   1.000  C
  C113     1.0000 0.21870  0.37710  0.41280  Biso   1.000  C
  C114     1.0000 0.24280  0.36580  0.35460  Biso   1.000  C
  C115     1.0000 0.12860  0.49990  0.49310  Biso   1.000  C
  C116     1.0000 0.29680  0.62400  0.24840  Biso   1.000  C
  C117     1.0000 0.31640  0.73600  0.24240  Biso   1.000  C
  C118     1.0000 0.28130  0.69410  0.15840  Biso   1.000  C
  C119     1.0000 0.25720  0.61180  0.12300  Biso   1.000  C
  C120     1.0000 0.37140  0.86450  0.37130  Biso   1.000  C
  I1       1.0000 0.13210  0.73864  0.24028  Biso   1.000  I
  I2       1.0000 0.99836  0.89182  0.25972  Biso   1.000  I
  I3       1.0000 0.50164  0.76136  0.89346  Biso   1.000  I
  I4       1.0000 0.36790  0.60818  0.60654  Biso   1.000  I
  I5       1.0000 0.39346  0.50164  0.26136  Biso   1.000  I
  I6       1.0000 0.10654  0.36790  0.10818  Biso   1.000  I
  I7       1.0000 0.74028  0.13210  0.23864  Biso   1.000  I
  I8       1.0000 0.75972  0.99836  0.39182  Biso   1.000  I
  I9       1.0000 0.89182  0.75972  0.49836  Biso   1.000  I
  I10      1.0000 0.73864  0.74028  0.63210  Biso   1.000  I
  I11      1.0000 0.60818  0.10654  0.86790  Biso   1.000  I
  I12      1.0000 0.76136  0.39346  0.00164  Biso   1.000  I
  I13      1.0000 0.39182  0.49836  0.75972  Biso   1.000  I
  I14      1.0000 0.23864  0.63210  0.74028  Biso   1.000  I
  I15      1.0000 0.10818  0.86790  0.10654  Biso   1.000  I
  I16      1.0000 0.26136  0.00164  0.39346  Biso   1.000  I
  I17      1.0000 0.63210  0.24028  0.73864  Biso   1.000  I
  I18      1.0000 0.49836  0.25972  0.89182  Biso   1.000  I
  I19      1.0000 0.00164  0.89346  0.76136  Biso   1.000  I
  I20      1.0000 0.86790  0.60654  0.60818  Biso   1.000  I
  I21      1.0000 0.89346  0.26136  0.50164  Biso   1.000  I
  I22      1.0000 0.60654  0.10818  0.36790  Biso   1.000  I
  I23      1.0000 0.24028  0.23864  0.13210  Biso   1.000  I
  I24      1.0000 0.25972  0.39182  0.99836  Biso   1.000  I
  N1       1.0000 0.38060  0.96630  0.17670  Biso   1.000  N
  N2       1.0000 0.31200  0.90500  0.23760  Biso   1.000  N
  N3       1.0000 0.47530  0.93700  0.15190  Biso   1.000  N
  N4       1.0000 0.28960  0.20390  0.32330  Biso   1.000  N
  N5       1.0000 0.16740  0.07440  0.26240  Biso   1.000  N
  N6       1.0000 0.28510  0.32340  0.34810  Biso   1.000  N
  N7       1.0000 0.21040  0.53370  0.91430  Biso   1.000  N
  N8       1.0000 0.33260  0.59500  0.90700  Biso   1.000  N
  N9       1.0000 0.21490  0.56300  0.03830  Biso   1.000  N
  N10      1.0000 0.11940  0.29610  0.58570  Biso   1.000  N
  N11      1.0000 0.18800  0.42560  0.59300  Biso   1.000  N
  N12      1.0000 0.02470  0.17660  0.46170  Biso   1.000  N
  N13      1.0000 0.41430  0.21040  0.03370  Biso   1.000  N
  N14      1.0000 0.40700  0.33260  0.09500  Biso   1.000  N
  N15      1.0000 0.53830  0.21490  0.06300  Biso   1.000  N
  N16      1.0000 0.08570  0.11940  0.79610  Biso   1.000  N
  N17      1.0000 0.09300  0.18800  0.92560  Biso   1.000  N
  N18      1.0000 0.96170  0.02470  0.67660  Biso   1.000  N
  N19      1.0000 0.67670  0.38060  0.46630  Biso   1.000  N
  N20      1.0000 0.73760  0.31200  0.40500  Biso   1.000  N
  N21      1.0000 0.65190  0.47530  0.43700  Biso   1.000  N
  N22      1.0000 0.82330  0.28960  0.70390  Biso   1.000  N
  N23      1.0000 0.76240  0.16740  0.57440  Biso   1.000  N
  N24      1.0000 0.84810  0.28510  0.82340  Biso   1.000  N
  N25      1.0000 0.20390  0.82330  0.78960  Biso   1.000  N
  N26      1.0000 0.07440  0.76240  0.66740  Biso   1.000  N
  N27      1.0000 0.32340  0.84810  0.78510  Biso   1.000  N
  N28      1.0000 0.96630  0.67670  0.88060  Biso   1.000  N
  N29      1.0000 0.90500  0.73760  0.81200  Biso   1.000  N
  N30      1.0000 0.93700  0.65190  0.97530  Biso   1.000  N
  N31      1.0000 0.29610  0.08570  0.61940  Biso   1.000  N
  N32      1.0000 0.42560  0.09300  0.68800  Biso   1.000  N
  N33      1.0000 0.17660  0.96170  0.52470  Biso   1.000  N
  N34      1.0000 0.53370  0.41430  0.71040  Biso   1.000  N
  N35      1.0000 0.59500  0.40700  0.83260  Biso   1.000  N
  N36      1.0000 0.56300  0.53830  0.71490  Biso   1.000  N
  N37      1.0000 0.70390  0.78960  0.82330  Biso   1.000  N
  N38      1.0000 0.57440  0.66740  0.76240  Biso   1.000  N
  N39      1.0000 0.82340  0.78510  0.84810  Biso   1.000  N
  N40      1.0000 0.46630  0.88060  0.67670  Biso   1.000  N
  N41      1.0000 0.40500  0.81200  0.73760  Biso   1.000  N
  N42      1.0000 0.43700  0.97530  0.65190  Biso   1.000  N
  N43      1.0000 0.79610  0.61940  0.08570  Biso   1.000  N
  N44      1.0000 0.92560  0.68800  0.09300  Biso   1.000  N
  N45      1.0000 0.67660  0.52470  0.96170  Biso   1.000  N
  N46      1.0000 0.03370  0.71040  0.41430  Biso   1.000  N
  N47      1.0000 0.09500  0.83260  0.40700  Biso   1.000  N
  N48      1.0000 0.06300  0.71490  0.53830  Biso   1.000  N
  N49      1.0000 0.88060  0.17670  0.96630  Biso   1.000  N
  N50      1.0000 0.81200  0.23760  0.90500  Biso   1.000  N
  N51      1.0000 0.97530  0.15190  0.93700  Biso   1.000  N
  N52      1.0000 0.78960  0.32330  0.20390  Biso   1.000  N
  N53      1.0000 0.66740  0.26240  0.07440  Biso   1.000  N
  N54      1.0000 0.78510  0.34810  0.32340  Biso   1.000  N
  N55      1.0000 0.71040  0.91430  0.53370  Biso   1.000  N
  N56      1.0000 0.83260  0.90700  0.59500  Biso   1.000  N
  N57      1.0000 0.71490  0.03830  0.56300  Biso   1.000  N
  N58      1.0000 0.61940  0.58570  0.29610  Biso   1.000  N
  N59      1.0000 0.68800  0.59300  0.42560  Biso   1.000  N
  N60      1.0000 0.52470  0.46170  0.17660  Biso   1.000  N
  N61      1.0000 0.91430  0.03370  0.21040  Biso   1.000  N
  N62      1.0000 0.90700  0.09500  0.33260  Biso   1.000  N
  N63      1.0000 0.03830  0.06300  0.21490  Biso   1.000  N
  N64      1.0000 0.58570  0.79610  0.11940  Biso   1.000  N
  N65      1.0000 0.59300  0.92560  0.18800  Biso   1.000  N
  N66      1.0000 0.46170  0.67660  0.02470  Biso   1.000  N
  N67      1.0000 0.17670  0.46630  0.38060  Biso   1.000  N
  N68      1.0000 0.23760  0.40500  0.31200  Biso   1.000  N
  N69      1.0000 0.15190  0.43700  0.47530  Biso   1.000  N
  N70      1.0000 0.32330  0.70390  0.28960  Biso   1.000  N
  N71      1.0000 0.26240  0.57440  0.16740  Biso   1.000  N
  N72      1.0000 0.34810  0.82340  0.28510  Biso   1.000  N
