data_image0
_cell_length_a       11.166
_cell_length_b       11.638
_cell_length_c       20.95
_cell_angle_alpha    96.25
_cell_angle_beta     90.68
_cell_angle_gamma    108.49

_symmetry_space_group_name_H-M    P 1
_symmetry_int_tables_number       1

loop_
  _symmetry_equiv_pos_as_xyz
  'x, y, z'

loop_
  _atom_site_label
  _atom_site_occupancy
  _atom_site_fract_x
  _atom_site_fract_y
  _atom_site_fract_z
  _atom_site_thermal_displace_type
  _atom_site_B_iso_or_equiv
  _atom_site_type_symbol
  Co1      1.0000 0.86552  0.52078  0.75937  Biso   1.000  Co
  Co2      1.0000 0.13448  0.47922  0.24063  Biso   1.000  Co
  Co3      1.0000 0.00000  0.00000  0.50000  Biso   1.000  Co
  Co4      1.0000 0.50000  0.50000  0.00000  Biso   1.000  Co
  H1       1.0000 0.78420  0.71930  0.76630  Biso   1.000  H
  H2       1.0000 0.78500  0.66640  0.70160  Biso   1.000  H
  H3       1.0000 0.12720  0.67440  0.96160  Biso   1.000  H
  H4       1.0000 0.78360  0.92740  0.43670  Biso   1.000  H
  H5       1.0000 0.85580  0.02020  0.42350  Biso   1.000  H
  H6       1.0000 0.90310  0.35350  0.56510  Biso   1.000  H
  H7       1.0000 0.63460  0.73950  0.02470  Biso   1.000  H
  H8       1.0000 0.50850  0.71820  0.02220  Biso   1.000  H
  H9       1.0000 0.67260  0.13150  0.62960  Biso   1.000  H
  H10      1.0000 0.79390  0.11410  0.54420  Biso   1.000  H
  H11      1.0000 0.91210  0.87780  0.62140  Biso   1.000  H
  H12      1.0000 0.24950  0.05390  0.81010  Biso   1.000  H
  H13      1.0000 0.23860  0.18390  0.83000  Biso   1.000  H
  H14      1.0000 0.24350  0.14280  0.69630  Biso   1.000  H
  H15      1.0000 0.44180  0.26300  0.65030  Biso   1.000  H
  H16      1.0000 0.10980  0.60450  0.84660  Biso   1.000  H
  H17      1.0000 0.24600  0.86680  0.69670  Biso   1.000  H
  H18      1.0000 0.04490  0.73290  0.69060  Biso   1.000  H
  H19      1.0000 0.03610  0.01940  0.81770  Biso   1.000  H
  H20      1.0000 0.05500  0.00860  0.74340  Biso   1.000  H
  H21      1.0000 0.48250  0.89090  0.82040  Biso   1.000  H
  H22      1.0000 0.42910  0.99330  0.80310  Biso   1.000  H
  H23      1.0000 0.51700  0.84660  0.71250  Biso   1.000  H
  H24      1.0000 0.46240  0.94820  0.69480  Biso   1.000  H
  H25      1.0000 0.63210  0.09930  0.74520  Biso   1.000  H
  H26      1.0000 0.68180  0.00410  0.77520  Biso   1.000  H
  H27      1.0000 0.79080  0.88620  0.70810  Biso   1.000  H
  H28      1.0000 0.80140  0.59220  0.19610  Biso   1.000  H
  H29      1.0000 0.73580  0.59240  0.09280  Biso   1.000  H
  H30      1.0000 0.39350  0.39660  0.12500  Biso   1.000  H
  H31      1.0000 0.44970  0.38930  0.22910  Biso   1.000  H
  H32      1.0000 0.76530  0.53260  0.30790  Biso   1.000  H
  H33      1.0000 0.51990  0.45820  0.34400  Biso   1.000  H
  H34      1.0000 0.54710  0.33790  0.31780  Biso   1.000  H
  H35      1.0000 0.67650  0.49990  0.42540  Biso   1.000  H
  H36      1.0000 0.71560  0.38720  0.39730  Biso   1.000  H
  H37      1.0000 0.65870  0.23810  0.47010  Biso   1.000  H
  H38      1.0000 0.51480  0.11880  0.53190  Biso   1.000  H
  H39      1.0000 0.27030  0.27970  0.49770  Biso   1.000  H
  H40      1.0000 0.40770  0.40540  0.43570  Biso   1.000  H
  H41      1.0000 0.03820  0.17780  0.68140  Biso   1.000  H
  H42      1.0000 0.90830  0.35480  0.86070  Biso   1.000  H
  H43      1.0000 0.30980  0.74190  0.85970  Biso   1.000  H
  H44      1.0000 0.97520  0.34580  0.67840  Biso   1.000  H
  H45      1.0000 0.97580  0.19070  0.86940  Biso   1.000  H
  H46      1.0000 0.64670  0.38710  0.65950  Biso   1.000  H
  H47      1.0000 0.66680  0.35790  0.84230  Biso   1.000  H
  H48      1.0000 0.46100  0.23180  0.83810  Biso   1.000  H
  H49      1.0000 0.21580  0.28070  0.23370  Biso   1.000  H
  H50      1.0000 0.21500  0.33360  0.29840  Biso   1.000  H
  H51      1.0000 0.87280  0.32560  0.03840  Biso   1.000  H
  H52      1.0000 0.21640  0.07260  0.56330  Biso   1.000  H
  H53      1.0000 0.14420  0.97980  0.57650  Biso   1.000  H
  H54      1.0000 0.09690  0.64650  0.43490  Biso   1.000  H
  H55      1.0000 0.36540  0.26050  0.97530  Biso   1.000  H
  H56      1.0000 0.49150  0.28180  0.97780  Biso   1.000  H
  H57      1.0000 0.32740  0.86850  0.37040  Biso   1.000  H
  H58      1.0000 0.20610  0.88590  0.45580  Biso   1.000  H
  H59      1.0000 0.08790  0.12220  0.37860  Biso   1.000  H
  H60      1.0000 0.75050  0.94610  0.18990  Biso   1.000  H
  H61      1.0000 0.76140  0.81610  0.17000  Biso   1.000  H
  H62      1.0000 0.75650  0.85720  0.30370  Biso   1.000  H
  H63      1.0000 0.55820  0.73700  0.34970  Biso   1.000  H
  H64      1.0000 0.89020  0.39550  0.15340  Biso   1.000  H
  H65      1.0000 0.75400  0.13320  0.30330  Biso   1.000  H
  H66      1.0000 0.95510  0.26710  0.30940  Biso   1.000  H
  H67      1.0000 0.96390  0.98060  0.18230  Biso   1.000  H
  H68      1.0000 0.94500  0.99140  0.25660  Biso   1.000  H
  H69      1.0000 0.51750  0.10910  0.17960  Biso   1.000  H
  H70      1.0000 0.57090  0.00670  0.19690  Biso   1.000  H
  H71      1.0000 0.48300  0.15340  0.28750  Biso   1.000  H
  H72      1.0000 0.53760  0.05180  0.30520  Biso   1.000  H
  H73      1.0000 0.36790  0.90070  0.25480  Biso   1.000  H
  H74      1.0000 0.31820  0.99590  0.22480  Biso   1.000  H
  H75      1.0000 0.20920  0.11380  0.29190  Biso   1.000  H
  H76      1.0000 0.19860  0.40780  0.80390  Biso   1.000  H
  H77      1.0000 0.26420  0.40760  0.90720  Biso   1.000  H
  H78      1.0000 0.60650  0.60340  0.87500  Biso   1.000  H
  H79      1.0000 0.55030  0.61070  0.77090  Biso   1.000  H
  H80      1.0000 0.23470  0.46740  0.69210  Biso   1.000  H
  H81      1.0000 0.48010  0.54180  0.65600  Biso   1.000  H
  H82      1.0000 0.45290  0.66210  0.68220  Biso   1.000  H
  H83      1.0000 0.32350  0.50010  0.57460  Biso   1.000  H
  H84      1.0000 0.28440  0.61280  0.60270  Biso   1.000  H
  H85      1.0000 0.34130  0.76190  0.52990  Biso   1.000  H
  H86      1.0000 0.48520  0.88120  0.46810  Biso   1.000  H
  H87      1.0000 0.72970  0.72030  0.50230  Biso   1.000  H
  H88      1.0000 0.59230  0.59460  0.56430  Biso   1.000  H
  H89      1.0000 0.96180  0.82220  0.31860  Biso   1.000  H
  H90      1.0000 0.09170  0.64520  0.13930  Biso   1.000  H
  H91      1.0000 0.69020  0.25810  0.14030  Biso   1.000  H
  H92      1.0000 0.02480  0.65420  0.32160  Biso   1.000  H
  H93      1.0000 0.02420  0.80930  0.13060  Biso   1.000  H
  H94      1.0000 0.35330  0.61290  0.34050  Biso   1.000  H
  H95      1.0000 0.33320  0.64210  0.15770  Biso   1.000  H
  H96      1.0000 0.53900  0.76820  0.16190  Biso   1.000  H
  C1       1.0000 0.72742  0.41590  0.97286  Biso   1.000  C
  C2       1.0000 0.86992  0.45723  0.98384  Biso   1.000  C
  C3       1.0000 0.94719  0.56158  0.95973  Biso   1.000  C
  C4       1.0000 0.89849  0.62110  0.90883  Biso   1.000  C
  C5       1.0000 0.07615  0.60390  0.97685  Biso   1.000  C
  C6       1.0000 0.88432  0.56210  0.61643  Biso   1.000  C
  C7       1.0000 0.94601  0.53269  0.55622  Biso   1.000  C
  C8       1.0000 0.02960  0.75827  0.53521  Biso   1.000  C
  C9       1.0000 0.00602  0.62256  0.51715  Biso   1.000  C
  C10      1.0000 0.94190  0.41234  0.53864  Biso   1.000  C
  C11      1.0000 0.72070  0.07930  0.62914  Biso   1.000  C
  C12      1.0000 0.79480  0.06900  0.57810  Biso   1.000  C
  C13      1.0000 0.86380  0.93000  0.62318  Biso   1.000  C
  C14      1.0000 0.21900  0.11660  0.79580  Biso   1.000  C
  C15      1.0000 0.28640  0.16070  0.73627  Biso   1.000  C
  C16      1.0000 0.42450  0.23429  0.74378  Biso   1.000  C
  C17      1.0000 0.48520  0.28180  0.69025  Biso   1.000  C
  C18      1.0000 0.13670  0.65920  0.81652  Biso   1.000  C
  C19      1.0000 0.22000  0.81580  0.72852  Biso   1.000  C
  C20      1.0000 0.09920  0.73360  0.72474  Biso   1.000  C
  C21      1.0000 0.07410  0.06450  0.78278  Biso   1.000  C
  C22      1.0000 0.30320  0.82250  0.77983  Biso   1.000  C
  C23      1.0000 0.43530  0.91390  0.78758  Biso   1.000  C
  C24      1.0000 0.50920  0.92550  0.72784  Biso   1.000  C
  C25      1.0000 0.63950  0.01810  0.73749  Biso   1.000  C
  C26      1.0000 0.71840  0.01143  0.67992  Biso   1.000  C
  C27      1.0000 0.79100  0.93470  0.67562  Biso   1.000  C
  C28      1.0000 0.71750  0.55120  0.18281  Biso   1.000  C
  C29      1.0000 0.67740  0.55110  0.12056  Biso   1.000  C
  C30      1.0000 0.47700  0.43620  0.13950  Biso   1.000  C
  C31      1.0000 0.51010  0.43160  0.20246  Biso   1.000  C
  C32      1.0000 0.63360  0.49023  0.22620  Biso   1.000  C
  C33      1.0000 0.68170  0.49130  0.29397  Biso   1.000  C
  C34      1.0000 0.58590  0.42080  0.33810  Biso   1.000  C
  C35      1.0000 0.64450  0.41750  0.40342  Biso   1.000  C
  C36      1.0000 0.55160  0.33780  0.44533  Biso   1.000  C
  C37      1.0000 0.58040  0.24950  0.47507  Biso   1.000  C
  C38      1.0000 0.49280  0.17770  0.51233  Biso   1.000  C
  C39      1.0000 0.35000  0.27160  0.49260  Biso   1.000  C
  C40      1.0000 0.43230  0.34750  0.45487  Biso   1.000  C
  C41      1.0000 0.01460  0.21370  0.71890  Biso   1.000  C
  C42      1.0000 0.93680  0.32010  0.82435  Biso   1.000  C
  C43      1.0000 0.01910  0.16564  0.77684  Biso   1.000  C
  C44      1.0000 0.25830  0.74130  0.82443  Biso   1.000  C
  C45      1.0000 0.97520  0.31430  0.71735  Biso   1.000  C
  C46      1.0000 0.97700  0.22070  0.82990  Biso   1.000  C
  C47      1.0000 0.60880  0.35630  0.69605  Biso   1.000  C
  C48      1.0000 0.62070  0.33920  0.80321  Biso   1.000  C
  C49      1.0000 0.49610  0.26310  0.80115  Biso   1.000  C
  C50      1.0000 0.27258  0.58410  0.02714  Biso   1.000  C
  C51      1.0000 0.13008  0.54277  0.01616  Biso   1.000  C
  C52      1.0000 0.05281  0.43842  0.04027  Biso   1.000  C
  C53      1.0000 0.10151  0.37890  0.09117  Biso   1.000  C
  C54      1.0000 0.92385  0.39610  0.02315  Biso   1.000  C
  C55      1.0000 0.11568  0.43790  0.38357  Biso   1.000  C
  C56      1.0000 0.05399  0.46731  0.44378  Biso   1.000  C
  C57      1.0000 0.97040  0.24173  0.46479  Biso   1.000  C
  C58      1.0000 0.99398  0.37744  0.48285  Biso   1.000  C
  C59      1.0000 0.05810  0.58766  0.46136  Biso   1.000  C
  C60      1.0000 0.27930  0.92070  0.37086  Biso   1.000  C
  C61      1.0000 0.20520  0.93100  0.42190  Biso   1.000  C
  C62      1.0000 0.13620  0.07000  0.37682  Biso   1.000  C
  C63      1.0000 0.78100  0.88340  0.20420  Biso   1.000  C
  C64      1.0000 0.71360  0.83930  0.26373  Biso   1.000  C
  C65      1.0000 0.57550  0.76571  0.25622  Biso   1.000  C
  C66      1.0000 0.51480  0.71820  0.30975  Biso   1.000  C
  C67      1.0000 0.86330  0.34080  0.18348  Biso   1.000  C
  C68      1.0000 0.78000  0.18420  0.27148  Biso   1.000  C
  C69      1.0000 0.90080  0.26640  0.27526  Biso   1.000  C
  C70      1.0000 0.92590  0.93550  0.21722  Biso   1.000  C
  C71      1.0000 0.69680  0.17750  0.22017  Biso   1.000  C
  C72      1.0000 0.56470  0.08610  0.21242  Biso   1.000  C
  C73      1.0000 0.49080  0.07450  0.27216  Biso   1.000  C
  C74      1.0000 0.36050  0.98190  0.26251  Biso   1.000  C
  C75      1.0000 0.28160  0.98857  0.32008  Biso   1.000  C
  C76      1.0000 0.20900  0.06530  0.32438  Biso   1.000  C
  C77      1.0000 0.28250  0.44880  0.81719  Biso   1.000  C
  C78      1.0000 0.32260  0.44890  0.87944  Biso   1.000  C
  C79      1.0000 0.52300  0.56380  0.86050  Biso   1.000  C
  C80      1.0000 0.48990  0.56840  0.79754  Biso   1.000  C
  C81      1.0000 0.36640  0.50977  0.77380  Biso   1.000  C
  C82      1.0000 0.31830  0.50870  0.70603  Biso   1.000  C
  C83      1.0000 0.41410  0.57920  0.66190  Biso   1.000  C
  C84      1.0000 0.35550  0.58250  0.59658  Biso   1.000  C
  C85      1.0000 0.44840  0.66220  0.55467  Biso   1.000  C
  C86      1.0000 0.41960  0.75050  0.52493  Biso   1.000  C
  C87      1.0000 0.50720  0.82230  0.48767  Biso   1.000  C
  C88      1.0000 0.65000  0.72840  0.50740  Biso   1.000  C
  C89      1.0000 0.56770  0.65250  0.54513  Biso   1.000  C
  C90      1.0000 0.98540  0.78630  0.28110  Biso   1.000  C
  C91      1.0000 0.06320  0.67990  0.17565  Biso   1.000  C
  C92      1.0000 0.98090  0.83436  0.22316  Biso   1.000  C
  C93      1.0000 0.74170  0.25870  0.17557  Biso   1.000  C
  C94      1.0000 0.02480  0.68570  0.28265  Biso   1.000  C
  C95      1.0000 0.02300  0.77930  0.17010  Biso   1.000  C
  C96      1.0000 0.39120  0.64370  0.30395  Biso   1.000  C
  C97      1.0000 0.37930  0.66080  0.19679  Biso   1.000  C
  C98      1.0000 0.50390  0.73690  0.19885  Biso   1.000  C
  N1       1.0000 0.05604  0.65458  0.76784  Biso   1.000  N
  N2       1.0000 0.86810  0.99713  0.57482  Biso   1.000  N
  N3       1.0000 0.55780  0.49433  0.09785  Biso   1.000  N
  N4       1.0000 0.37890  0.18780  0.52188  Biso   1.000  N
  N5       1.0000 0.93673  0.36920  0.76942  Biso   1.000  N
  N6       1.0000 0.67780  0.38683  0.75215  Biso   1.000  N
  N7       1.0000 0.94396  0.34542  0.23216  Biso   1.000  N
  N8       1.0000 0.13190  0.00287  0.42518  Biso   1.000  N
  N9       1.0000 0.44220  0.50567  0.90215  Biso   1.000  N
  N10      1.0000 0.62110  0.81220  0.47812  Biso   1.000  N
  N11      1.0000 0.06327  0.63080  0.23058  Biso   1.000  N
  N12      1.0000 0.32220  0.61317  0.24785  Biso   1.000  N
  O1       1.0000 0.77969  0.65246  0.74143  Biso   1.000  O
  O2       1.0000 0.85031  0.55226  0.85858  Biso   1.000  O
  O3       1.0000 0.91433  0.73305  0.91892  Biso   1.000  O
  O4       1.0000 0.67893  0.49958  0.97275  Biso   1.000  O
  O5       1.0000 0.66832  0.30456  0.96633  Biso   1.000  O
  O6       1.0000 0.88118  0.49446  0.66051  Biso   1.000  O
  O7       1.0000 0.85162  0.95450  0.42790  Biso   1.000  O
  O8       1.0000 0.84171  0.64915  0.61970  Biso   1.000  O
  O9       1.0000 0.97228  0.80999  0.50151  Biso   1.000  O
  O10      1.0000 0.11139  0.80997  0.57928  Biso   1.000  O
  O11      1.0000 0.56718  0.69320  0.01052  Biso   1.000  O
  O12      1.0000 0.22031  0.34754  0.25857  Biso   1.000  O
  O13      1.0000 0.14969  0.44774  0.14142  Biso   1.000  O
  O14      1.0000 0.08567  0.26695  0.08108  Biso   1.000  O
  O15      1.0000 0.32107  0.50042  0.02725  Biso   1.000  O
  O16      1.0000 0.33168  0.69544  0.03367  Biso   1.000  O
  O17      1.0000 0.11882  0.50554  0.33949  Biso   1.000  O
  O18      1.0000 0.14838  0.04550  0.57210  Biso   1.000  O
  O19      1.0000 0.15829  0.35085  0.38030  Biso   1.000  O
  O20      1.0000 0.02772  0.19001  0.49849  Biso   1.000  O
  O21      1.0000 0.88861  0.19003  0.42072  Biso   1.000  O
  O22      1.0000 0.43282  0.30680  0.98948  Biso   1.000  O
