data_INEBOT_charged
_audit_creation_date              2014-07-02
_audit_creation_method            'Materials Studio'
_symmetry_space_group_name_H-M    'P1'
_symmetry_Int_Tables_number       1
_symmetry_cell_setting            triclinic
loop_
_symmetry_equiv_pos_as_xyz
  x,y,z
_cell_length_a                    17.5910
_cell_length_b                    19.0580
_cell_length_c                    22.7810
_cell_angle_alpha                 90.0000
_cell_angle_beta                  90.0000
_cell_angle_gamma                 93.2250
loop_
_atom_site_label
_atom_site_type_symbol
_atom_site_fract_x
_atom_site_fract_y
_atom_site_fract_z
_atom_site_U_iso_or_equiv
_atom_site_adp_type
_atom_site_occupancy
Ni1    Ni    0.98216   0.17534   0.36096   0.01267  Uiso   1.00
Ni2    Ni    0.46064   0.45043   0.37481   0.01267  Uiso   1.00
Ni3    Ni    0.54118   0.61919   0.41527   0.01267  Uiso   1.00
Ni4    Ni    0.01784   0.32466   0.86096   0.01267  Uiso   1.00
Ni5    Ni    0.53936   0.04957   0.87481   0.01267  Uiso   1.00
Ni6    Ni    0.45882   0.88081   0.91527   0.01267  Uiso   1.00
Ni7    Ni    0.01784   0.82466   0.63904   0.01267  Uiso   1.00
Ni8    Ni    0.53936   0.54957   0.62519   0.01267  Uiso   1.00
Ni9    Ni    0.45882   0.38081   0.58473   0.01267  Uiso   1.00
Ni10   Ni    0.98216   0.67534   0.13904   0.01267  Uiso   1.00
Ni11   Ni    0.46064   0.95043   0.12519   0.01267  Uiso   1.00
Ni12   Ni    0.54118   0.11919   0.08473   0.01267  Uiso   1.00
Ni13   Ni    0.50000   0.50000   0.50000   0.01267  Uiso   1.00
Ni14   Ni    0.50000  -0.00000   0.00000   0.01267  Uiso   1.00
H1     H     0.39160   0.01240   0.35440   0.01267  Uiso   1.00
H2     H     0.35390   0.10910   0.40900   0.01267  Uiso   1.00
H3     H     0.64600   0.90770   0.23630   0.01267  Uiso   1.00
H4     H     0.68470   0.22290   0.20440   0.01267  Uiso   1.00
H5     H     0.95280   0.25630   0.21080   0.01267  Uiso   1.00
H6     H     0.28860   0.39700   0.58010   0.01267  Uiso   1.00
H7     H     0.85230   0.01920   0.34710   0.01267  Uiso   1.00
H8     H     0.91780   0.99260   0.38680   0.01267  Uiso   1.00
H9     H     0.76130   0.87670   0.27110   0.01267  Uiso   1.00
H10    H     0.22340   0.40970   0.41160   0.01267  Uiso   1.00
H11    H     0.92570   0.44490   0.51530   0.01267  Uiso   1.00
H12    H     0.04310   0.18210   0.51770   0.01267  Uiso   1.00
H13    H     0.10640   0.22470   0.48180   0.01267  Uiso   1.00
H14    H     0.02830   0.04030   0.43250   0.01267  Uiso   1.00
H15    H     0.03410   0.07080   0.49670   0.01267  Uiso   1.00
H16    H     0.09960   0.37420   0.43920   0.01267  Uiso   1.00
H17    H     0.88230   0.29290   0.13180   0.01267  Uiso   1.00
H18    H     0.32110   0.26010   0.38310   0.01267  Uiso   1.00
H19    H     0.28010   0.20230   0.42280   0.01267  Uiso   1.00
H20    H     0.78370   0.41470   0.37750   0.01267  Uiso   1.00
H21    H     0.12110   0.16360   0.24060   0.01267  Uiso   1.00
H22    H     0.75240   0.28100   0.13040   0.01267  Uiso   1.00
H23    H     0.91690   0.90660   0.22710   0.01267  Uiso   1.00
H24    H     0.89460   0.90930   0.29360   0.01267  Uiso   1.00
H25    H     0.82930   0.48100   0.45600   0.01267  Uiso   1.00
H26    H     0.62820   0.37000   0.37920   0.01267  Uiso   1.00
H27    H     0.16730   0.14070   0.43940   0.01267  Uiso   1.00
H28    H     0.13170   0.09830   0.38560   0.01267  Uiso   1.00
H29    H     0.58670   0.13160   0.41210   0.01267  Uiso   1.00
H30    H     0.01420   0.95640   0.15540   0.01267  Uiso   1.00
H31    H     0.68690   0.28980   0.32150   0.01267  Uiso   1.00
H32    H     0.03610   0.33240   0.26330   0.01267  Uiso   1.00
H33    H     0.11410   0.41800   0.22140   0.01267  Uiso   1.00
H34    H     0.52300   0.21400   0.46780   0.01267  Uiso   1.00
H35    H     0.29700   0.35010   0.30360   0.01267  Uiso   1.00
H36    H     0.16410   0.12400   0.15180   0.01267  Uiso   1.00
H37    H     0.11260   0.01860   0.11090   0.01267  Uiso   1.00
H38    H     0.33270   0.10740   0.21340   0.01267  Uiso   1.00
H39    H     0.28810   0.19430   0.26880   0.01267  Uiso   1.00
H40    H     0.24160   0.42480   0.23880   0.01267  Uiso   1.00
H41    H     0.91810   0.12480   0.48300   0.01267  Uiso   1.00
H42    H     0.90590   0.04310   0.47450   0.01267  Uiso   1.00
H43    H     0.78630   0.09220   0.39960   0.01267  Uiso   1.00
H44    H     0.82270   0.16270   0.42620   0.01267  Uiso   1.00
H45    H     0.83930   0.31070   0.35260   0.01267  Uiso   1.00
H46    H     0.16730   0.35990   0.60580   0.01267  Uiso   1.00
H47    H     0.85710   0.05990   0.21080   0.01267  Uiso   1.00
H48    H     0.74160   0.08900   0.17720   0.01267  Uiso   1.00
H49    H     0.65030   0.14250   0.28570   0.01267  Uiso   1.00
H50    H     0.68050   0.10510   0.34170   0.01267  Uiso   1.00
H51    H     0.01910   0.37650   0.56720   0.01267  Uiso   1.00
H52    H     0.04630   0.30000   0.57400   0.01267  Uiso   1.00
H53    H     0.60840   0.48760   0.85440   0.01267  Uiso   1.00
H54    H     0.64610   0.39090   0.90900   0.01267  Uiso   1.00
H55    H     0.35400   0.59230   0.73630   0.01267  Uiso   1.00
H56    H     0.31530   0.27710   0.70440   0.01267  Uiso   1.00
H57    H     0.04720   0.24370   0.71080   0.01267  Uiso   1.00
H58    H     0.71140   0.10300   0.08010   0.01267  Uiso   1.00
H59    H     0.14770   0.48080   0.84710   0.01267  Uiso   1.00
H60    H     0.08220   0.50740   0.88680   0.01267  Uiso   1.00
H61    H     0.23870   0.62330   0.77110   0.01267  Uiso   1.00
H62    H     0.77660   0.09030   0.91160   0.01267  Uiso   1.00
H63    H     0.07430   0.05510   0.01530   0.01267  Uiso   1.00
H64    H     0.95690   0.31790   0.01770   0.01267  Uiso   1.00
H65    H     0.89360   0.27530   0.98180   0.01267  Uiso   1.00
H66    H     0.97170   0.45970   0.93250   0.01267  Uiso   1.00
H67    H     0.96590   0.42920   0.99670   0.01267  Uiso   1.00
H68    H     0.90040   0.12580   0.93920   0.01267  Uiso   1.00
H69    H     0.11770   0.20710   0.63180   0.01267  Uiso   1.00
H70    H     0.67890   0.23990   0.88310   0.01267  Uiso   1.00
H71    H     0.71990   0.29770   0.92280   0.01267  Uiso   1.00
H72    H     0.21630   0.08530   0.87750   0.01267  Uiso   1.00
H73    H     0.87890   0.33640   0.74060   0.01267  Uiso   1.00
H74    H     0.24760   0.21900   0.63040   0.01267  Uiso   1.00
H75    H     0.08310   0.59340   0.72710   0.01267  Uiso   1.00
H76    H     0.10540   0.59070   0.79360   0.01267  Uiso   1.00
H77    H     0.17070   0.01900   0.95600   0.01267  Uiso   1.00
H78    H     0.37180   0.13000   0.87920   0.01267  Uiso   1.00
H79    H     0.83270   0.35930   0.93940   0.01267  Uiso   1.00
H80    H     0.86830   0.40170   0.88560   0.01267  Uiso   1.00
H81    H     0.41330   0.36840   0.91210   0.01267  Uiso   1.00
H82    H     0.98580   0.54360   0.65540   0.01267  Uiso   1.00
H83    H     0.31310   0.21020   0.82150   0.01267  Uiso   1.00
H84    H     0.96390   0.16760   0.76330   0.01267  Uiso   1.00
H85    H     0.88590   0.08200   0.72140   0.01267  Uiso   1.00
H86    H     0.47700   0.28600   0.96780   0.01267  Uiso   1.00
H87    H     0.70300   0.14990   0.80360   0.01267  Uiso   1.00
H88    H     0.83590   0.37600   0.65180   0.01267  Uiso   1.00
H89    H     0.88740   0.48140   0.61090   0.01267  Uiso   1.00
H90    H     0.66730   0.39260   0.71340   0.01267  Uiso   1.00
H91    H     0.71190   0.30570   0.76880   0.01267  Uiso   1.00
H92    H     0.75840   0.07520   0.73880   0.01267  Uiso   1.00
H93    H     0.08190   0.37520   0.98300   0.01267  Uiso   1.00
H94    H     0.09410   0.45690   0.97450   0.01267  Uiso   1.00
H95    H     0.21370   0.40780   0.89960   0.01267  Uiso   1.00
H96    H     0.17730   0.33730   0.92620   0.01267  Uiso   1.00
H97    H     0.16070   0.18930   0.85260   0.01267  Uiso   1.00
H98    H     0.83270   0.14010   0.10580   0.01267  Uiso   1.00
H99    H     0.14290   0.44010   0.71080   0.01267  Uiso   1.00
H100   H     0.25840   0.41100   0.67720   0.01267  Uiso   1.00
H101   H     0.34970   0.35750   0.78570   0.01267  Uiso   1.00
H102   H     0.31950   0.39490   0.84170   0.01267  Uiso   1.00
H103   H     0.98090   0.12350   0.06720   0.01267  Uiso   1.00
H104   H     0.95370   0.20000   0.07400   0.01267  Uiso   1.00
H105   H     0.60840   0.98760   0.64560   0.01267  Uiso   1.00
H106   H     0.64610   0.89090   0.59100   0.01267  Uiso   1.00
H107   H     0.35400   0.09230   0.76370   0.01267  Uiso   1.00
H108   H     0.31530   0.77710   0.79560   0.01267  Uiso   1.00
H109   H     0.04720   0.74370   0.78920   0.01267  Uiso   1.00
H110   H     0.71140   0.60300   0.41990   0.01267  Uiso   1.00
H111   H     0.14770   0.98080   0.65290   0.01267  Uiso   1.00
H112   H     0.08220   0.00740   0.61320   0.01267  Uiso   1.00
H113   H     0.23870   0.12330   0.72890   0.01267  Uiso   1.00
H114   H     0.77660   0.59030   0.58840   0.01267  Uiso   1.00
H115   H     0.07430   0.55510   0.48470   0.01267  Uiso   1.00
H116   H     0.95690   0.81790   0.48230   0.01267  Uiso   1.00
H117   H     0.89360   0.77530   0.51820   0.01267  Uiso   1.00
H118   H     0.97170   0.95970   0.56750   0.01267  Uiso   1.00
H119   H     0.96590   0.92920   0.50330   0.01267  Uiso   1.00
H120   H     0.90040   0.62580   0.56080   0.01267  Uiso   1.00
H121   H     0.11770   0.70710   0.86820   0.01267  Uiso   1.00
H122   H     0.67890   0.73990   0.61690   0.01267  Uiso   1.00
H123   H     0.71990   0.79770   0.57720   0.01267  Uiso   1.00
H124   H     0.21630   0.58530   0.62250   0.01267  Uiso   1.00
H125   H     0.87890   0.83640   0.75940   0.01267  Uiso   1.00
H126   H     0.24760   0.71900   0.86960   0.01267  Uiso   1.00
H127   H     0.08310   0.09340   0.77290   0.01267  Uiso   1.00
H128   H     0.10540   0.09070   0.70640   0.01267  Uiso   1.00
H129   H     0.17070   0.51900   0.54400   0.01267  Uiso   1.00
H130   H     0.37180   0.63000   0.62080   0.01267  Uiso   1.00
H131   H     0.83270   0.85930   0.56060   0.01267  Uiso   1.00
H132   H     0.86830   0.90170   0.61440   0.01267  Uiso   1.00
H133   H     0.41330   0.86840   0.58790   0.01267  Uiso   1.00
H134   H     0.98580   0.04360   0.84460   0.01267  Uiso   1.00
H135   H     0.31310   0.71020   0.67850   0.01267  Uiso   1.00
H136   H     0.96390   0.66760   0.73670   0.01267  Uiso   1.00
H137   H     0.88590   0.58200   0.77860   0.01267  Uiso   1.00
H138   H     0.47700   0.78600   0.53220   0.01267  Uiso   1.00
H139   H     0.70300   0.64990   0.69640   0.01267  Uiso   1.00
H140   H     0.83590   0.87600   0.84820   0.01267  Uiso   1.00
H141   H     0.88740   0.98140   0.88910   0.01267  Uiso   1.00
H142   H     0.66730   0.89260   0.78660   0.01267  Uiso   1.00
H143   H     0.71190   0.80570   0.73120   0.01267  Uiso   1.00
H144   H     0.75840   0.57520   0.76120   0.01267  Uiso   1.00
H145   H     0.08190   0.87520   0.51700   0.01267  Uiso   1.00
H146   H     0.09410   0.95690   0.52550   0.01267  Uiso   1.00
H147   H     0.21370   0.90780   0.60040   0.01267  Uiso   1.00
H148   H     0.17730   0.83730   0.57380   0.01267  Uiso   1.00
H149   H     0.16070   0.68930   0.64740   0.01267  Uiso   1.00
H150   H     0.83270   0.64010   0.39420   0.01267  Uiso   1.00
H151   H     0.14290   0.94010   0.78920   0.01267  Uiso   1.00
H152   H     0.25840   0.91100   0.82280   0.01267  Uiso   1.00
H153   H     0.34970   0.85750   0.71430   0.01267  Uiso   1.00
H154   H     0.31950   0.89490   0.65830   0.01267  Uiso   1.00
H155   H     0.98090   0.62350   0.43280   0.01267  Uiso   1.00
H156   H     0.95370   0.70000   0.42600   0.01267  Uiso   1.00
H157   H     0.39160   0.51240   0.14560   0.01267  Uiso   1.00
H158   H     0.35390   0.60910   0.09100   0.01267  Uiso   1.00
H159   H     0.64600   0.40770   0.26370   0.01267  Uiso   1.00
H160   H     0.68470   0.72290   0.29560   0.01267  Uiso   1.00
H161   H     0.95280   0.75630   0.28920   0.01267  Uiso   1.00
H162   H     0.28860   0.89700   0.91990   0.01267  Uiso   1.00
H163   H     0.85230   0.51920   0.15290   0.01267  Uiso   1.00
H164   H     0.91780   0.49260   0.11320   0.01267  Uiso   1.00
H165   H     0.76130   0.37670   0.22890   0.01267  Uiso   1.00
H166   H     0.22340   0.90970   0.08840   0.01267  Uiso   1.00
H167   H     0.92570   0.94490   0.98470   0.01267  Uiso   1.00
H168   H     0.04310   0.68210   0.98230   0.01267  Uiso   1.00
H169   H     0.10640   0.72470   0.01820   0.01267  Uiso   1.00
H170   H     0.02830   0.54030   0.06750   0.01267  Uiso   1.00
H171   H     0.03410   0.57080   0.00330   0.01267  Uiso   1.00
H172   H     0.09960   0.87420   0.06080   0.01267  Uiso   1.00
H173   H     0.88230   0.79290   0.36820   0.01267  Uiso   1.00
H174   H     0.32110   0.76010   0.11690   0.01267  Uiso   1.00
H175   H     0.28010   0.70230   0.07720   0.01267  Uiso   1.00
H176   H     0.78370   0.91470   0.12250   0.01267  Uiso   1.00
H177   H     0.12110   0.66360   0.25940   0.01267  Uiso   1.00
H178   H     0.75240   0.78100   0.36960   0.01267  Uiso   1.00
H179   H     0.91690   0.40660   0.27290   0.01267  Uiso   1.00
H180   H     0.89460   0.40930   0.20640   0.01267  Uiso   1.00
H181   H     0.82930   0.98100   0.04400   0.01267  Uiso   1.00
H182   H     0.62820   0.87000   0.12080   0.01267  Uiso   1.00
H183   H     0.16730   0.64070   0.06060   0.01267  Uiso   1.00
H184   H     0.13170   0.59830   0.11440   0.01267  Uiso   1.00
H185   H     0.58670   0.63160   0.08790   0.01267  Uiso   1.00
H186   H     0.01420   0.45640   0.34460   0.01267  Uiso   1.00
H187   H     0.68690   0.78980   0.17850   0.01267  Uiso   1.00
H188   H     0.03610   0.83240   0.23670   0.01267  Uiso   1.00
H189   H     0.11410   0.91800   0.27860   0.01267  Uiso   1.00
H190   H     0.52300   0.71400   0.03220   0.01267  Uiso   1.00
H191   H     0.29700   0.85010   0.19640   0.01267  Uiso   1.00
H192   H     0.16410   0.62400   0.34820   0.01267  Uiso   1.00
H193   H     0.11260   0.51860   0.38910   0.01267  Uiso   1.00
H194   H     0.33270   0.60740   0.28660   0.01267  Uiso   1.00
H195   H     0.28810   0.69430   0.23120   0.01267  Uiso   1.00
H196   H     0.24160   0.92480   0.26120   0.01267  Uiso   1.00
H197   H     0.91810   0.62480   0.01700   0.01267  Uiso   1.00
H198   H     0.90590   0.54310   0.02550   0.01267  Uiso   1.00
H199   H     0.78630   0.59220   0.10040   0.01267  Uiso   1.00
H200   H     0.82270   0.66270   0.07380   0.01267  Uiso   1.00
H201   H     0.83930   0.81070   0.14740   0.01267  Uiso   1.00
H202   H     0.16730   0.85990   0.89420   0.01267  Uiso   1.00
H203   H     0.85710   0.55990   0.28920   0.01267  Uiso   1.00
H204   H     0.74160   0.58900   0.32280   0.01267  Uiso   1.00
H205   H     0.65030   0.64250   0.21430   0.01267  Uiso   1.00
H206   H     0.68050   0.60510   0.15830   0.01267  Uiso   1.00
H207   H     0.01910   0.87650   0.93280   0.01267  Uiso   1.00
H208   H     0.04630   0.80000   0.92600   0.01267  Uiso   1.00
C1     C     0.37320   0.05090   0.33510   0.01267  Uiso   1.00
C2     C     0.34780   0.10940   0.36840   0.01267  Uiso   1.00
C3     C     0.78010   0.20640   0.25370   0.01267  Uiso   1.00
C4     C     0.91210   0.31400   0.42170   0.01267  Uiso   1.00
C5     C     0.93700   0.35270   0.46970   0.01267  Uiso   1.00
C6     C     0.64310   0.20300   0.36000   0.01267  Uiso   1.00
C7     C     0.12070   0.36340   0.52660   0.01267  Uiso   1.00
C8     C     0.82290   0.16280   0.33590   0.01267  Uiso   1.00
C9     C     0.00000   0.25740   0.46580   0.01267  Uiso   1.00
C10    C     0.68880   0.93780   0.23060   0.01267  Uiso   1.00
C11    C     0.60790   0.01850   0.17160   0.01267  Uiso   1.00
C12    C     0.73740   0.22980   0.20600   0.01267  Uiso   1.00
C13    C     0.90000   0.24940   0.21010   0.01267  Uiso   1.00
C14    C     0.25130   0.39110   0.55130   0.01267  Uiso   1.00
C15    C     0.19710   0.29390   0.32160   0.01267  Uiso   1.00
C16    C     0.90320   0.03100   0.36190   0.01267  Uiso   1.00
C17    C     0.95620   0.03890   0.31250   0.01267  Uiso   1.00
C18    C     0.75810   0.91870   0.25090   0.01267  Uiso   1.00
C19    C     0.21210   0.39900   0.45060   0.01267  Uiso   1.00
C20    C     0.01130   0.02200   0.22750   0.01267  Uiso   1.00
C21    C     0.31670   0.16250   0.34460   0.01267  Uiso   1.00
C22    C     0.14250   0.20410   0.37040   0.01267  Uiso   1.00
C23    C     0.90760   0.41780   0.48370   0.01267  Uiso   1.00
C24    C     0.05530   0.20290   0.47970   0.01267  Uiso   1.00
C25    C     0.01560   0.07930   0.45730   0.01267  Uiso   1.00
C26    C     0.35090   0.42430   0.47530   0.01267  Uiso   1.00
C27    C     0.11900   0.28740   0.30960   0.01267  Uiso   1.00
C28    C     0.13790   0.37830   0.46730   0.01267  Uiso   1.00
C29    C     0.85720   0.27150   0.16360   0.01267  Uiso   1.00
C30    C     0.28550   0.21940   0.38280   0.01267  Uiso   1.00
C31    C     0.82350   0.39890   0.39990   0.01267  Uiso   1.00
C32    C     0.10060   0.12200   0.22430   0.01267  Uiso   1.00
C33    C     0.77830   0.26320   0.16220   0.01267  Uiso   1.00
C34    C     0.89950   0.93700   0.25790   0.01267  Uiso   1.00
C35    C     0.85080   0.43860   0.44800   0.01267  Uiso   1.00
C36    C     0.61950   0.32210   0.38610   0.01267  Uiso   1.00
C37    C     0.53560   0.35220   0.46930   0.01267  Uiso   1.00
C38    C     0.12930   0.14110   0.40850   0.01267  Uiso   1.00
C39    C     0.59470   0.17940   0.40470   0.01267  Uiso   1.00
C40    C     0.37040   0.05180   0.27740   0.01267  Uiso   1.00
C41    C     0.03640   0.99690   0.17250   0.01267  Uiso   1.00
C42    C     0.65450   0.27370   0.35150   0.01267  Uiso   1.00
C43    C     0.08800   0.33520   0.27150   0.01267  Uiso   1.00
C44    C     0.13460   0.38570   0.24660   0.01267  Uiso   1.00
C45    C     0.55760   0.22930   0.43900   0.01267  Uiso   1.00
C46    C     0.24510   0.34590   0.29560   0.01267  Uiso   1.00
C47    C     0.12560   0.09830   0.17160   0.01267  Uiso   1.00
C48    C     0.09340   0.03430   0.14630   0.01267  Uiso   1.00
C49    C     0.39820   0.99360   0.23980   0.01267  Uiso   1.00
C50    C     0.33800   0.10520   0.25400   0.01267  Uiso   1.00
C51    C     0.31160   0.15840   0.28810   0.01267  Uiso   1.00
C52    C     0.21130   0.39020   0.25780   0.01267  Uiso   1.00
C53    C     0.86000   0.21610   0.25610   0.01267  Uiso   1.00
C54    C     0.93060   0.08560   0.45830   0.01267  Uiso   1.00
C55    C     0.82700   0.12830   0.39520   0.01267  Uiso   1.00
C56    C     0.85540   0.33650   0.38540   0.01267  Uiso   1.00
C57    C     0.26940   0.40350   0.49330   0.01267  Uiso   1.00
C58    C     0.82330   0.96120   0.24160   0.01267  Uiso   1.00
C59    C     0.17810   0.37000   0.56670   0.01267  Uiso   1.00
C60    C     0.81510   0.02840   0.21480   0.01267  Uiso   1.00
C61    C     0.04350   0.08210   0.25300   0.01267  Uiso   1.00
C62    C     0.74600   0.04570   0.19540   0.01267  Uiso   1.00
C63    C     0.68160   0.00140   0.20160   0.01267  Uiso   1.00
C64    C     0.57190   0.29890   0.43040   0.01267  Uiso   1.00
C65    C     0.68050   0.14970   0.32110   0.01267  Uiso   1.00
C66    C     0.04210   0.33860   0.54660   0.01267  Uiso   1.00
C67    C     0.62680   0.44910   0.83510   0.01267  Uiso   1.00
C68    C     0.65220   0.39060   0.86840   0.01267  Uiso   1.00
C69    C     0.21990   0.29360   0.75370   0.01267  Uiso   1.00
C70    C     0.08790   0.18600   0.92170   0.01267  Uiso   1.00
C71    C     0.06300   0.14730   0.96970   0.01267  Uiso   1.00
C72    C     0.35690   0.29700   0.86000   0.01267  Uiso   1.00
C73    C     0.87930   0.13660   0.02660   0.01267  Uiso   1.00
C74    C     0.17710   0.33720   0.83590   0.01267  Uiso   1.00
C75    C     0.00000   0.24260   0.96580   0.01267  Uiso   1.00
C76    C     0.31120   0.56220   0.73060   0.01267  Uiso   1.00
C77    C     0.39210   0.48150   0.67160   0.01267  Uiso   1.00
C78    C     0.26260   0.27020   0.70600   0.01267  Uiso   1.00
C79    C     0.10000   0.25060   0.71010   0.01267  Uiso   1.00
C80    C     0.74870   0.10890   0.05130   0.01267  Uiso   1.00
C81    C     0.80290   0.20610   0.82160   0.01267  Uiso   1.00
C82    C     0.09680   0.46900   0.86190   0.01267  Uiso   1.00
C83    C     0.04380   0.46110   0.81250   0.01267  Uiso   1.00
C84    C     0.24190   0.58130   0.75090   0.01267  Uiso   1.00
C85    C     0.78790   0.10100   0.95060   0.01267  Uiso   1.00
C86    C     0.98870   0.47800   0.72750   0.01267  Uiso   1.00
C87    C     0.68330   0.33750   0.84460   0.01267  Uiso   1.00
C88    C     0.85750   0.29590   0.87040   0.01267  Uiso   1.00
C89    C     0.09240   0.08220   0.98370   0.01267  Uiso   1.00
C90    C     0.94470   0.29710   0.97970   0.01267  Uiso   1.00
C91    C     0.98440   0.42070   0.95730   0.01267  Uiso   1.00
C92    C     0.64910   0.07570   0.97530   0.01267  Uiso   1.00
C93    C     0.88100   0.21260   0.80960   0.01267  Uiso   1.00
C94    C     0.86210   0.12170   0.96730   0.01267  Uiso   1.00
C95    C     0.14280   0.22850   0.66360   0.01267  Uiso   1.00
C96    C     0.71450   0.28060   0.88280   0.01267  Uiso   1.00
C97    C     0.17650   0.10110   0.89990   0.01267  Uiso   1.00
C98    C     0.89940   0.37800   0.72430   0.01267  Uiso   1.00
C99    C     0.22170   0.23680   0.66220   0.01267  Uiso   1.00
C100   C     0.10050   0.56300   0.75790   0.01267  Uiso   1.00
C101   C     0.14920   0.06140   0.94800   0.01267  Uiso   1.00
C102   C     0.38050   0.17790   0.88610   0.01267  Uiso   1.00
C103   C     0.46440   0.14780   0.96930   0.01267  Uiso   1.00
C104   C     0.87070   0.35890   0.90850   0.01267  Uiso   1.00
C105   C     0.40530   0.32060   0.90470   0.01267  Uiso   1.00
C106   C     0.62960   0.44820   0.77740   0.01267  Uiso   1.00
C107   C     0.96360   0.50310   0.67250   0.01267  Uiso   1.00
C108   C     0.34550   0.22630   0.85150   0.01267  Uiso   1.00
C109   C     0.91200   0.16480   0.77150   0.01267  Uiso   1.00
C110   C     0.86540   0.11430   0.74660   0.01267  Uiso   1.00
C111   C     0.44240   0.27070   0.93900   0.01267  Uiso   1.00
C112   C     0.75490   0.15410   0.79560   0.01267  Uiso   1.00
C113   C     0.87440   0.40170   0.67160   0.01267  Uiso   1.00
C114   C     0.90660   0.46570   0.64630   0.01267  Uiso   1.00
C115   C     0.60180   0.50640   0.73980   0.01267  Uiso   1.00
C116   C     0.66200   0.39480   0.75400   0.01267  Uiso   1.00
C117   C     0.68840   0.34160   0.78810   0.01267  Uiso   1.00
C118   C     0.78870   0.10980   0.75780   0.01267  Uiso   1.00
C119   C     0.14000   0.28390   0.75610   0.01267  Uiso   1.00
C120   C     0.06940   0.41440   0.95830   0.01267  Uiso   1.00
C121   C     0.17300   0.37170   0.89520   0.01267  Uiso   1.00
C122   C     0.14460   0.16350   0.88540   0.01267  Uiso   1.00
C123   C     0.73060   0.09650   0.99330   0.01267  Uiso   1.00
C124   C     0.17670   0.53880   0.74160   0.01267  Uiso   1.00
C125   C     0.82190   0.13000   0.06670   0.01267  Uiso   1.00
C126   C     0.18490   0.47160   0.71480   0.01267  Uiso   1.00
C127   C     0.95650   0.41790   0.75300   0.01267  Uiso   1.00
C128   C     0.25400   0.45430   0.69540   0.01267  Uiso   1.00
C129   C     0.31840   0.49860   0.70160   0.01267  Uiso   1.00
C130   C     0.42810   0.20110   0.93040   0.01267  Uiso   1.00
C131   C     0.31950   0.35030   0.82110   0.01267  Uiso   1.00
C132   C     0.95790   0.16140   0.04660   0.01267  Uiso   1.00
C133   C     0.62680   0.94910   0.66490   0.01267  Uiso   1.00
C134   C     0.65220   0.89060   0.63160   0.01267  Uiso   1.00
C135   C     0.21990   0.79360   0.74630   0.01267  Uiso   1.00
C136   C     0.08790   0.68600   0.57830   0.01267  Uiso   1.00
C137   C     0.06300   0.64730   0.53030   0.01267  Uiso   1.00
C138   C     0.35690   0.79700   0.64000   0.01267  Uiso   1.00
C139   C     0.87930   0.63660   0.47340   0.01267  Uiso   1.00
C140   C     0.17710   0.83720   0.66410   0.01267  Uiso   1.00
C141   C     0.00000   0.74260   0.53420   0.01267  Uiso   1.00
C142   C     0.31120   0.06220   0.76940   0.01267  Uiso   1.00
C143   C     0.39210   0.98150   0.82840   0.01267  Uiso   1.00
C144   C     0.26260   0.77020   0.79400   0.01267  Uiso   1.00
C145   C     0.10000   0.75060   0.78990   0.01267  Uiso   1.00
C146   C     0.74870   0.60890   0.44870   0.01267  Uiso   1.00
C147   C     0.80290   0.70610   0.67840   0.01267  Uiso   1.00
C148   C     0.09680   0.96900   0.63810   0.01267  Uiso   1.00
C149   C     0.04380   0.96110   0.68750   0.01267  Uiso   1.00
C150   C     0.24190   0.08130   0.74910   0.01267  Uiso   1.00
C151   C     0.78790   0.60100   0.54940   0.01267  Uiso   1.00
C152   C     0.98870   0.97800   0.77250   0.01267  Uiso   1.00
C153   C     0.68330   0.83750   0.65540   0.01267  Uiso   1.00
C154   C     0.85750   0.79590   0.62960   0.01267  Uiso   1.00
C155   C     0.09240   0.58220   0.51630   0.01267  Uiso   1.00
C156   C     0.94470   0.79710   0.52030   0.01267  Uiso   1.00
C157   C     0.98440   0.92070   0.54270   0.01267  Uiso   1.00
C158   C     0.64910   0.57570   0.52470   0.01267  Uiso   1.00
C159   C     0.88100   0.71260   0.69040   0.01267  Uiso   1.00
C160   C     0.86210   0.62170   0.53270   0.01267  Uiso   1.00
C161   C     0.14280   0.72850   0.83640   0.01267  Uiso   1.00
C162   C     0.71450   0.78060   0.61720   0.01267  Uiso   1.00
C163   C     0.17650   0.60110   0.60010   0.01267  Uiso   1.00
C164   C     0.89940   0.87800   0.77570   0.01267  Uiso   1.00
C165   C     0.22170   0.73680   0.83780   0.01267  Uiso   1.00
C166   C     0.10050   0.06300   0.74210   0.01267  Uiso   1.00
C167   C     0.14920   0.56140   0.55200   0.01267  Uiso   1.00
C168   C     0.38050   0.67790   0.61390   0.01267  Uiso   1.00
C169   C     0.46440   0.64780   0.53070   0.01267  Uiso   1.00
C170   C     0.87070   0.85890   0.59150   0.01267  Uiso   1.00
C171   C     0.40530   0.82060   0.59530   0.01267  Uiso   1.00
C172   C     0.62960   0.94820   0.72260   0.01267  Uiso   1.00
C173   C     0.96360   0.00310   0.82750   0.01267  Uiso   1.00
C174   C     0.34550   0.72630   0.64850   0.01267  Uiso   1.00
C175   C     0.91200   0.66480   0.72850   0.01267  Uiso   1.00
C176   C     0.86540   0.61430   0.75340   0.01267  Uiso   1.00
C177   C     0.44240   0.77070   0.56100   0.01267  Uiso   1.00
C178   C     0.75490   0.65410   0.70440   0.01267  Uiso   1.00
C179   C     0.87440   0.90170   0.82840   0.01267  Uiso   1.00
C180   C     0.90660   0.96570   0.85370   0.01267  Uiso   1.00
C181   C     0.60180   0.00640   0.76020   0.01267  Uiso   1.00
C182   C     0.66200   0.89480   0.74600   0.01267  Uiso   1.00
C183   C     0.68840   0.84160   0.71190   0.01267  Uiso   1.00
C184   C     0.78870   0.60980   0.74220   0.01267  Uiso   1.00
C185   C     0.14000   0.78390   0.74390   0.01267  Uiso   1.00
C186   C     0.06940   0.91440   0.54170   0.01267  Uiso   1.00
C187   C     0.17300   0.87170   0.60480   0.01267  Uiso   1.00
C188   C     0.14460   0.66350   0.61460   0.01267  Uiso   1.00
C189   C     0.73060   0.59650   0.50670   0.01267  Uiso   1.00
C190   C     0.17670   0.03880   0.75840   0.01267  Uiso   1.00
C191   C     0.82190   0.63000   0.43330   0.01267  Uiso   1.00
C192   C     0.18490   0.97160   0.78520   0.01267  Uiso   1.00
C193   C     0.95650   0.91790   0.74700   0.01267  Uiso   1.00
C194   C     0.25400   0.95430   0.80460   0.01267  Uiso   1.00
C195   C     0.31840   0.99860   0.79840   0.01267  Uiso   1.00
C196   C     0.42810   0.70110   0.56960   0.01267  Uiso   1.00
C197   C     0.31950   0.85030   0.67890   0.01267  Uiso   1.00
C198   C     0.95790   0.66140   0.45340   0.01267  Uiso   1.00
C199   C     0.37320   0.55090   0.16490   0.01267  Uiso   1.00
C200   C     0.34780   0.60940   0.13160   0.01267  Uiso   1.00
C201   C     0.78010   0.70640   0.24630   0.01267  Uiso   1.00
C202   C     0.91210   0.81400   0.07830   0.01267  Uiso   1.00
C203   C     0.93700   0.85270   0.03030   0.01267  Uiso   1.00
C204   C     0.64310   0.70300   0.14000   0.01267  Uiso   1.00
C205   C     0.12070   0.86340   0.97340   0.01267  Uiso   1.00
C206   C     0.82290   0.66280   0.16410   0.01267  Uiso   1.00
C207   C     0.00000   0.75740   0.03420   0.01267  Uiso   1.00
C208   C     0.68880   0.43780   0.26940   0.01267  Uiso   1.00
C209   C     0.60790   0.51850   0.32840   0.01267  Uiso   1.00
C210   C     0.73740   0.72980   0.29400   0.01267  Uiso   1.00
C211   C     0.90000   0.74940   0.28990   0.01267  Uiso   1.00
C212   C     0.25130   0.89110   0.94870   0.01267  Uiso   1.00
C213   C     0.19710   0.79390   0.17840   0.01267  Uiso   1.00
C214   C     0.90320   0.53100   0.13810   0.01267  Uiso   1.00
C215   C     0.95620   0.53890   0.18750   0.01267  Uiso   1.00
C216   C     0.75810   0.41870   0.24910   0.01267  Uiso   1.00
C217   C     0.21210   0.89900   0.04940   0.01267  Uiso   1.00
C218   C     0.01130   0.52200   0.27250   0.01267  Uiso   1.00
C219   C     0.31670   0.66250   0.15540   0.01267  Uiso   1.00
C220   C     0.14250   0.70410   0.12960   0.01267  Uiso   1.00
C221   C     0.90760   0.91780   0.01630   0.01267  Uiso   1.00
C222   C     0.05530   0.70290   0.02030   0.01267  Uiso   1.00
C223   C     0.01560   0.57930   0.04270   0.01267  Uiso   1.00
C224   C     0.35090   0.92430   0.02470   0.01267  Uiso   1.00
C225   C     0.11900   0.78740   0.19040   0.01267  Uiso   1.00
C226   C     0.13790   0.87830   0.03270   0.01267  Uiso   1.00
C227   C     0.85720   0.77150   0.33640   0.01267  Uiso   1.00
C228   C     0.28550   0.71940   0.11720   0.01267  Uiso   1.00
C229   C     0.82350   0.89890   0.10010   0.01267  Uiso   1.00
C230   C     0.10060   0.62200   0.27570   0.01267  Uiso   1.00
C231   C     0.77830   0.76320   0.33780   0.01267  Uiso   1.00
C232   C     0.89950   0.43700   0.24210   0.01267  Uiso   1.00
C233   C     0.85080   0.93860   0.05200   0.01267  Uiso   1.00
C234   C     0.61950   0.82210   0.11390   0.01267  Uiso   1.00
C235   C     0.53560   0.85220   0.03070   0.01267  Uiso   1.00
C236   C     0.12930   0.64110   0.09150   0.01267  Uiso   1.00
C237   C     0.59470   0.67940   0.09530   0.01267  Uiso   1.00
C238   C     0.37040   0.55180   0.22260   0.01267  Uiso   1.00
C239   C     0.03640   0.49690   0.32750   0.01267  Uiso   1.00
C240   C     0.65450   0.77370   0.14850   0.01267  Uiso   1.00
C241   C     0.08800   0.83520   0.22850   0.01267  Uiso   1.00
C242   C     0.13460   0.88570   0.25340   0.01267  Uiso   1.00
C243   C     0.55760   0.72930   0.06100   0.01267  Uiso   1.00
C244   C     0.24510   0.84590   0.20440   0.01267  Uiso   1.00
C245   C     0.12560   0.59830   0.32840   0.01267  Uiso   1.00
C246   C     0.09340   0.53430   0.35370   0.01267  Uiso   1.00
C247   C     0.39820   0.49360   0.26020   0.01267  Uiso   1.00
C248   C     0.33800   0.60520   0.24600   0.01267  Uiso   1.00
C249   C     0.31160   0.65840   0.21190   0.01267  Uiso   1.00
C250   C     0.21130   0.89020   0.24220   0.01267  Uiso   1.00
C251   C     0.86000   0.71610   0.24390   0.01267  Uiso   1.00
C252   C     0.93060   0.58560   0.04170   0.01267  Uiso   1.00
C253   C     0.82700   0.62830   0.10480   0.01267  Uiso   1.00
C254   C     0.85540   0.83650   0.11460   0.01267  Uiso   1.00
C255   C     0.26940   0.90350   0.00670   0.01267  Uiso   1.00
C256   C     0.82330   0.46120   0.25840   0.01267  Uiso   1.00
C257   C     0.17810   0.87000   0.93330   0.01267  Uiso   1.00
C258   C     0.81510   0.52840   0.28520   0.01267  Uiso   1.00
C259   C     0.04350   0.58210   0.24700   0.01267  Uiso   1.00
C260   C     0.74600   0.54570   0.30460   0.01267  Uiso   1.00
C261   C     0.68160   0.50140   0.29840   0.01267  Uiso   1.00
C262   C     0.57190   0.79890   0.06960   0.01267  Uiso   1.00
C263   C     0.68050   0.64970   0.17890   0.01267  Uiso   1.00
C264   C     0.04210   0.83860   0.95340   0.01267  Uiso   1.00
N1     N     0.99230   0.31520   0.49780   0.01267  Uiso   1.00
N2     N     0.75770   0.17110   0.30490   0.01267  Uiso   1.00
N3     N     0.88450   0.18860   0.30950   0.01267  Uiso   1.00
N4     N     0.90240   0.09690   0.39760   0.01267  Uiso   1.00
N5     N     0.95640   0.99450   0.26710   0.01267  Uiso   1.00
N6     N     0.05230   0.14670   0.43380   0.01267  Uiso   1.00
N7     N     0.95310   0.25250   0.41950   0.01267  Uiso   1.00
N8     N     0.00730   0.09260   0.30630   0.01267  Uiso   1.00
N9     N     0.21070   0.24010   0.36120   0.01267  Uiso   1.00
N10    N     0.08640   0.23130   0.34060   0.01267  Uiso   1.00
N11    N     0.00770   0.18480   0.99780   0.01267  Uiso   1.00
N12    N     0.24230   0.32890   0.80490   0.01267  Uiso   1.00
N13    N     0.11550   0.31140   0.80950   0.01267  Uiso   1.00
N14    N     0.09760   0.40310   0.89760   0.01267  Uiso   1.00
N15    N     0.04360   0.50550   0.76710   0.01267  Uiso   1.00
N16    N     0.94770   0.35330   0.93380   0.01267  Uiso   1.00
N17    N     0.04690   0.24750   0.91950   0.01267  Uiso   1.00
N18    N     0.99270   0.40740   0.80630   0.01267  Uiso   1.00
N19    N     0.78930   0.25990   0.86120   0.01267  Uiso   1.00
N20    N     0.91360   0.26870   0.84060   0.01267  Uiso   1.00
N21    N     0.00770   0.68480   0.50220   0.01267  Uiso   1.00
N22    N     0.24230   0.82890   0.69510   0.01267  Uiso   1.00
N23    N     0.11550   0.81140   0.69050   0.01267  Uiso   1.00
N24    N     0.09760   0.90310   0.60240   0.01267  Uiso   1.00
N25    N     0.04360   0.00550   0.73290   0.01267  Uiso   1.00
N26    N     0.94770   0.85330   0.56620   0.01267  Uiso   1.00
N27    N     0.04690   0.74750   0.58050   0.01267  Uiso   1.00
N28    N     0.99270   0.90740   0.69370   0.01267  Uiso   1.00
N29    N     0.78930   0.75990   0.63880   0.01267  Uiso   1.00
N30    N     0.91360   0.76870   0.65940   0.01267  Uiso   1.00
N31    N     0.99230   0.81520   0.00220   0.01267  Uiso   1.00
N32    N     0.75770   0.67110   0.19510   0.01267  Uiso   1.00
N33    N     0.88450   0.68860   0.19050   0.01267  Uiso   1.00
N34    N     0.90240   0.59690   0.10240   0.01267  Uiso   1.00
N35    N     0.95640   0.49450   0.23290   0.01267  Uiso   1.00
N36    N     0.05230   0.64670   0.06620   0.01267  Uiso   1.00
N37    N     0.95310   0.75250   0.08050   0.01267  Uiso   1.00
N38    N     0.00730   0.59260   0.19370   0.01267  Uiso   1.00
N39    N     0.21070   0.74010   0.13880   0.01267  Uiso   1.00
N40    N     0.08640   0.73130   0.15940   0.01267  Uiso   1.00
O1     O     0.52980   0.41400   0.45000   0.01267  Uiso   1.00
O2     O     0.46910   0.53890   0.42233   0.01267  Uiso   1.00
O3     O     0.44840   0.35560   0.32750   0.01267  Uiso   1.00
O4     O     0.51270   0.33020   0.51880   0.01267  Uiso   1.00
O5     O     0.40000   0.00170   0.18650   0.01267  Uiso   1.00
O6     O     0.60930   0.71050   0.40700   0.01267  Uiso   1.00
O7     O     0.47030   0.66170   0.35350   0.01267  Uiso   1.00
O8     O     0.36550   0.42000   0.42140   0.01267  Uiso   1.00
O9     O     0.39740   0.44250   0.51540   0.01267  Uiso   1.00
O10    O     0.55640   0.96940   0.17040   0.01267  Uiso   1.00
O11    O     0.60440   0.07880   0.14970   0.01267  Uiso   1.00
O12    O     0.41410   0.93720   0.26410   0.01267  Uiso   1.00
O13    O     0.47020   0.08600   0.95000   0.01267  Uiso   1.00
O14    O     0.53090   0.96110   0.92233   0.01267  Uiso   1.00
O15    O     0.55160   0.14440   0.82750   0.01267  Uiso   1.00
O16    O     0.48730   0.16980   0.01880   0.01267  Uiso   1.00
O17    O     0.60000   0.49830   0.68650   0.01267  Uiso   1.00
O18    O     0.39070   0.78950   0.90700   0.01267  Uiso   1.00
O19    O     0.52970   0.83830   0.85350   0.01267  Uiso   1.00
O20    O     0.63450   0.08000   0.92140   0.01267  Uiso   1.00
O21    O     0.60260   0.05750   0.01540   0.01267  Uiso   1.00
O22    O     0.44360   0.53060   0.67040   0.01267  Uiso   1.00
O23    O     0.39560   0.42120   0.64970   0.01267  Uiso   1.00
O24    O     0.58590   0.56280   0.76410   0.01267  Uiso   1.00
O25    O     0.47020   0.58600   0.55000   0.01267  Uiso   1.00
O26    O     0.53090   0.46110   0.57767   0.01267  Uiso   1.00
O27    O     0.55160   0.64440   0.67250   0.01267  Uiso   1.00
O28    O     0.48730   0.66980   0.48120   0.01267  Uiso   1.00
O29    O     0.60000   0.99830   0.81350   0.01267  Uiso   1.00
O30    O     0.39070   0.28950   0.59300   0.01267  Uiso   1.00
O31    O     0.52970   0.33830   0.64650   0.01267  Uiso   1.00
O32    O     0.63450   0.58000   0.57860   0.01267  Uiso   1.00
O33    O     0.60260   0.55750   0.48460   0.01267  Uiso   1.00
O34    O     0.44360   0.03060   0.82960   0.01267  Uiso   1.00
O35    O     0.39560   0.92120   0.85030   0.01267  Uiso   1.00
O36    O     0.58590   0.06280   0.73590   0.01267  Uiso   1.00
O37    O     0.52980   0.91400   0.05000   0.01267  Uiso   1.00
O38    O     0.46910   0.03890   0.07767   0.01267  Uiso   1.00
O39    O     0.44840   0.85560   0.17250   0.01267  Uiso   1.00
O40    O     0.51270   0.83020   0.98120   0.01267  Uiso   1.00
O41    O     0.40000   0.50170   0.31350   0.01267  Uiso   1.00
O42    O     0.60930   0.21050   0.09300   0.01267  Uiso   1.00
O43    O     0.47030   0.16170   0.14650   0.01267  Uiso   1.00
O44    O     0.36550   0.92000   0.07860   0.01267  Uiso   1.00
O45    O     0.39740   0.94250   0.98460   0.01267  Uiso   1.00
O46    O     0.55640   0.46940   0.32960   0.01267  Uiso   1.00
O47    O     0.60440   0.57880   0.35030   0.01267  Uiso   1.00
O48    O     0.41410   0.43720   0.23590   0.01267  Uiso   1.00
N41    N     0.95780   0.61720   0.89070   0.01267  Uiso   1.00
O49    O     0.90430   0.57510   0.89580   0.01267  Uiso   1.00
O50    O     0.92540   0.67020   0.90490   0.01267  Uiso   1.00
O51    O     0.01130   0.61500   0.88300   0.01267  Uiso   1.00
N42    N     0.04220   0.88280   0.39070   0.01267  Uiso   1.00
O52    O     0.09570   0.92490   0.39580   0.01267  Uiso   1.00
O53    O     0.07460   0.82980   0.40490   0.01267  Uiso   1.00
O54    O     0.98870   0.88500   0.38300   0.01267  Uiso   1.00
N43    N     0.04220   0.38280   0.10930   0.01267  Uiso   1.00
O55    O     0.09570   0.42490   0.10420   0.01267  Uiso   1.00
O56    O     0.07460   0.32980   0.09510   0.01267  Uiso   1.00
O57    O     0.98870   0.38500   0.11700   0.01267  Uiso   1.00
N44    N     0.95780   0.11720   0.60930   0.01267  Uiso   1.00
O58    O     0.90430   0.07510   0.60420   0.01267  Uiso   1.00
O59    O     0.92540   0.17020   0.59510   0.01267  Uiso   1.00
O60    O     0.01130   0.11500   0.61700   0.01267  Uiso   1.00
Cl1    Cl    0.78060   0.91318   0.45579   0.01267  Uiso   1.00
Cl2    Cl    0.21940   0.58682   0.95579   0.01267  Uiso   1.00
Cl3    Cl    0.21940   0.08682   0.54421   0.01267  Uiso   1.00
Cl4    Cl    0.78060   0.41318   0.04421   0.01267  Uiso   1.00
