data_image0
_cell_length_a       10.728
_cell_length_b       13.79
_cell_length_c       19.576
_cell_angle_alpha    90
_cell_angle_beta     90
_cell_angle_gamma    104.49

_symmetry_space_group_name_H-M    P 1
_symmetry_int_tables_number       1

loop_
  _symmetry_equiv_pos_as_xyz
  'x, y, z'

loop_
  _atom_site_label
  _atom_site_occupancy
  _atom_site_fract_x
  _atom_site_fract_y
  _atom_site_fract_z
  _atom_site_thermal_displace_type
  _atom_site_B_iso_or_equiv
  _atom_site_type_symbol
  Ni1      1.0000 0.75409  0.20476  0.97439  Biso   1.000  Ni
  Ni2      1.0000 0.59494  0.36062  0.88175  Biso   1.000  Ni
  Ni3      1.0000 0.24591  0.29524  0.47439  Biso   1.000  Ni
  Ni4      1.0000 0.40506  0.13938  0.38175  Biso   1.000  Ni
  Ni5      1.0000 0.24591  0.79524  0.02561  Biso   1.000  Ni
  Ni6      1.0000 0.40506  0.63938  0.11825  Biso   1.000  Ni
  Ni7      1.0000 0.75409  0.70476  0.52561  Biso   1.000  Ni
  Ni8      1.0000 0.59494  0.86062  0.61825  Biso   1.000  Ni
  H1       1.0000 0.68200  0.90460  0.91030  Biso   1.000  H
  H2       1.0000 0.59430  0.74850  0.86320  Biso   1.000  H
  H3       1.0000 0.56090  0.73320  0.74770  Biso   1.000  H
  H4       1.0000 0.69240  0.02050  0.72340  Biso   1.000  H
  H5       1.0000 0.13020  0.94830  0.80600  Biso   1.000  H
  H6       1.0000 0.11240  0.82850  0.88810  Biso   1.000  H
  H7       1.0000 0.40080  0.99390  0.98750  Biso   1.000  H
  H8       1.0000 0.28850  0.09820  0.81540  Biso   1.000  H
  H9       1.0000 0.84040  0.46180  0.11960  Biso   1.000  H
  H10      1.0000 0.84800  0.60470  0.18370  Biso   1.000  H
  H11      1.0000 0.67390  0.67200  0.18720  Biso   1.000  H
  H12      1.0000 0.48820  0.47170  0.05900  Biso   1.000  H
  H13      1.0000 0.30200  0.33860  0.03280  Biso   1.000  H
  H14      1.0000 0.22070  0.19310  0.97070  Biso   1.000  H
  H15      1.0000 0.00630  0.14510  0.94470  Biso   1.000  H
  H16      1.0000 0.94820  0.38120  0.03520  Biso   1.000  H
  H17      1.0000 0.31800  0.59540  0.41030  Biso   1.000  H
  H18      1.0000 0.40570  0.75150  0.36320  Biso   1.000  H
  H19      1.0000 0.43910  0.76680  0.24770  Biso   1.000  H
  H20      1.0000 0.30760  0.47950  0.22340  Biso   1.000  H
  H21      1.0000 0.86980  0.55170  0.30600  Biso   1.000  H
  H22      1.0000 0.88760  0.67150  0.38810  Biso   1.000  H
  H23      1.0000 0.59920  0.50610  0.48750  Biso   1.000  H
  H24      1.0000 0.71150  0.40180  0.31540  Biso   1.000  H
  H25      1.0000 0.15960  0.03820  0.61960  Biso   1.000  H
  H26      1.0000 0.15200  0.89530  0.68370  Biso   1.000  H
  H27      1.0000 0.32610  0.82800  0.68720  Biso   1.000  H
  H28      1.0000 0.51180  0.02830  0.55900  Biso   1.000  H
  H29      1.0000 0.69800  0.16140  0.53280  Biso   1.000  H
  H30      1.0000 0.77930  0.30690  0.47070  Biso   1.000  H
  H31      1.0000 0.99370  0.35490  0.44470  Biso   1.000  H
  H32      1.0000 0.05180  0.11880  0.53520  Biso   1.000  H
  H33      1.0000 0.31800  0.09540  0.08970  Biso   1.000  H
  H34      1.0000 0.40570  0.25150  0.13680  Biso   1.000  H
  H35      1.0000 0.43910  0.26680  0.25230  Biso   1.000  H
  H36      1.0000 0.30760  0.97950  0.27660  Biso   1.000  H
  H37      1.0000 0.86980  0.05170  0.19400  Biso   1.000  H
  H38      1.0000 0.88760  0.17150  0.11190  Biso   1.000  H
  H39      1.0000 0.59920  0.00610  0.01250  Biso   1.000  H
  H40      1.0000 0.71150  0.90180  0.18460  Biso   1.000  H
  H41      1.0000 0.15960  0.53820  0.88040  Biso   1.000  H
  H42      1.0000 0.15200  0.39530  0.81630  Biso   1.000  H
  H43      1.0000 0.32610  0.32800  0.81280  Biso   1.000  H
  H44      1.0000 0.51180  0.52830  0.94100  Biso   1.000  H
  H45      1.0000 0.69800  0.66140  0.96720  Biso   1.000  H
  H46      1.0000 0.77930  0.80690  0.02930  Biso   1.000  H
  H47      1.0000 0.99370  0.85490  0.05530  Biso   1.000  H
  H48      1.0000 0.05180  0.61880  0.96480  Biso   1.000  H
  H49      1.0000 0.68200  0.40460  0.58970  Biso   1.000  H
  H50      1.0000 0.59430  0.24850  0.63680  Biso   1.000  H
  H51      1.0000 0.56090  0.23320  0.75230  Biso   1.000  H
  H52      1.0000 0.69240  0.52050  0.77660  Biso   1.000  H
  H53      1.0000 0.13020  0.44830  0.69400  Biso   1.000  H
  H54      1.0000 0.11240  0.32850  0.61190  Biso   1.000  H
  H55      1.0000 0.40080  0.49390  0.51250  Biso   1.000  H
  H56      1.0000 0.28850  0.59820  0.68460  Biso   1.000  H
  H57      1.0000 0.84040  0.96180  0.38040  Biso   1.000  H
  H58      1.0000 0.84800  0.10470  0.31630  Biso   1.000  H
  H59      1.0000 0.67390  0.17200  0.31280  Biso   1.000  H
  H60      1.0000 0.48820  0.97170  0.44100  Biso   1.000  H
  H61      1.0000 0.30200  0.83860  0.46720  Biso   1.000  H
  H62      1.0000 0.22070  0.69310  0.52930  Biso   1.000  H
  H63      1.0000 0.00630  0.64510  0.55530  Biso   1.000  H
  H64      1.0000 0.94820  0.88120  0.46480  Biso   1.000  H
  C1       1.0000 0.75220  0.08400  0.84849  Biso   1.000  C
  C2       1.0000 0.69870  0.98010  0.82079  Biso   1.000  C
  C3       1.0000 0.66750  0.89760  0.86350  Biso   1.000  C
  C4       1.0000 0.61650  0.80490  0.83550  Biso   1.000  C
  C5       1.0000 0.59660  0.79630  0.76610  Biso   1.000  C
  C6       1.0000 0.67420  0.96490  0.75202  Biso   1.000  C
  C7       1.0000 0.18650  0.95920  0.84290  Biso   1.000  C
  C8       1.0000 0.17780  0.88710  0.89180  Biso   1.000  C
  C9       1.0000 0.34720  0.98400  0.94944  Biso   1.000  C
  C10      1.0000 0.28270  0.04750  0.84750  Biso   1.000  C
  C11      1.0000 0.36730  0.05950  0.90164  Biso   1.000  C
  C12      1.0000 0.47770  0.15010  0.90965  Biso   1.000  C
  C13      1.0000 0.64980  0.36460  0.03313  Biso   1.000  C
  C14      1.0000 0.66020  0.44990  0.08224  Biso   1.000  C
  C15      1.0000 0.77070  0.49060  0.12020  Biso   1.000  C
  C16      1.0000 0.77460  0.57510  0.15880  Biso   1.000  C
  C17      1.0000 0.67000  0.61560  0.16040  Biso   1.000  C
  C18      1.0000 0.56080  0.49700  0.08562  Biso   1.000  C
  C19      1.0000 0.17440  0.47120  0.08120  Biso   1.000  C
  C20      1.0000 0.13130  0.37460  0.04186  Biso   1.000  C
  C21      1.0000 0.21500  0.31870  0.02170  Biso   1.000  C
  C22      1.0000 0.16650  0.23220  0.98490  Biso   1.000  C
  C23      1.0000 0.03730  0.20350  0.96960  Biso   1.000  C
  C24      1.0000 0.00370  0.34200  0.02296  Biso   1.000  C
  C25      1.0000 0.24780  0.41600  0.34849  Biso   1.000  C
  C26      1.0000 0.30130  0.51990  0.32079  Biso   1.000  C
  C27      1.0000 0.33250  0.60240  0.36350  Biso   1.000  C
  C28      1.0000 0.38350  0.69510  0.33550  Biso   1.000  C
  C29      1.0000 0.40340  0.70370  0.26610  Biso   1.000  C
  C30      1.0000 0.32580  0.53510  0.25202  Biso   1.000  C
  C31      1.0000 0.81350  0.54080  0.34290  Biso   1.000  C
  C32      1.0000 0.82220  0.61290  0.39180  Biso   1.000  C
  C33      1.0000 0.65280  0.51600  0.44944  Biso   1.000  C
  C34      1.0000 0.71730  0.45250  0.34750  Biso   1.000  C
  C35      1.0000 0.63270  0.44050  0.40164  Biso   1.000  C
  C36      1.0000 0.52230  0.34990  0.40965  Biso   1.000  C
  C37      1.0000 0.35020  0.13540  0.53313  Biso   1.000  C
  C38      1.0000 0.33980  0.05010  0.58224  Biso   1.000  C
  C39      1.0000 0.22930  0.00940  0.62020  Biso   1.000  C
  C40      1.0000 0.22540  0.92490  0.65880  Biso   1.000  C
  C41      1.0000 0.33000  0.88440  0.66040  Biso   1.000  C
  C42      1.0000 0.43920  0.00300  0.58562  Biso   1.000  C
  C43      1.0000 0.82560  0.02880  0.58120  Biso   1.000  C
  C44      1.0000 0.86870  0.12540  0.54186  Biso   1.000  C
  C45      1.0000 0.78500  0.18130  0.52170  Biso   1.000  C
  C46      1.0000 0.83350  0.26780  0.48490  Biso   1.000  C
  C47      1.0000 0.96270  0.29650  0.46960  Biso   1.000  C
  C48      1.0000 0.99630  0.15800  0.52296  Biso   1.000  C
  C49      1.0000 0.24780  0.91600  0.15151  Biso   1.000  C
  C50      1.0000 0.30130  0.01990  0.17921  Biso   1.000  C
  C51      1.0000 0.33250  0.10240  0.13650  Biso   1.000  C
  C52      1.0000 0.38350  0.19510  0.16450  Biso   1.000  C
  C53      1.0000 0.40340  0.20370  0.23390  Biso   1.000  C
  C54      1.0000 0.32580  0.03510  0.24798  Biso   1.000  C
  C55      1.0000 0.81350  0.04080  0.15710  Biso   1.000  C
  C56      1.0000 0.82220  0.11290  0.10820  Biso   1.000  C
  C57      1.0000 0.65280  0.01600  0.05056  Biso   1.000  C
  C58      1.0000 0.71730  0.95250  0.15250  Biso   1.000  C
  C59      1.0000 0.63270  0.94050  0.09836  Biso   1.000  C
  C60      1.0000 0.52230  0.84990  0.09035  Biso   1.000  C
  C61      1.0000 0.35020  0.63540  0.96687  Biso   1.000  C
  C62      1.0000 0.33980  0.55010  0.91776  Biso   1.000  C
  C63      1.0000 0.22930  0.50940  0.87980  Biso   1.000  C
  C64      1.0000 0.22540  0.42490  0.84120  Biso   1.000  C
  C65      1.0000 0.33000  0.38440  0.83960  Biso   1.000  C
  C66      1.0000 0.43920  0.50300  0.91438  Biso   1.000  C
  C67      1.0000 0.82560  0.52880  0.91880  Biso   1.000  C
  C68      1.0000 0.86870  0.62540  0.95814  Biso   1.000  C
  C69      1.0000 0.78500  0.68130  0.97830  Biso   1.000  C
  C70      1.0000 0.83350  0.76780  0.01510  Biso   1.000  C
  C71      1.0000 0.96270  0.79650  0.03040  Biso   1.000  C
  C72      1.0000 0.99630  0.65800  0.97704  Biso   1.000  C
  C73      1.0000 0.75220  0.58400  0.65151  Biso   1.000  C
  C74      1.0000 0.69870  0.48010  0.67921  Biso   1.000  C
  C75      1.0000 0.66750  0.39760  0.63650  Biso   1.000  C
  C76      1.0000 0.61650  0.30490  0.66450  Biso   1.000  C
  C77      1.0000 0.59660  0.29630  0.73390  Biso   1.000  C
  C78      1.0000 0.67420  0.46490  0.74798  Biso   1.000  C
  C79      1.0000 0.18650  0.45920  0.65710  Biso   1.000  C
  C80      1.0000 0.17780  0.38710  0.60820  Biso   1.000  C
  C81      1.0000 0.34720  0.48400  0.55056  Biso   1.000  C
  C82      1.0000 0.28270  0.54750  0.65250  Biso   1.000  C
  C83      1.0000 0.36730  0.55950  0.59836  Biso   1.000  C
  C84      1.0000 0.47770  0.65010  0.59035  Biso   1.000  C
  C85      1.0000 0.64980  0.86460  0.46687  Biso   1.000  C
  C86      1.0000 0.66020  0.94990  0.41776  Biso   1.000  C
  C87      1.0000 0.77070  0.99060  0.37980  Biso   1.000  C
  C88      1.0000 0.77460  0.07510  0.34120  Biso   1.000  C
  C89      1.0000 0.67000  0.11560  0.33960  Biso   1.000  C
  C90      1.0000 0.56080  0.99700  0.41438  Biso   1.000  C
  C91      1.0000 0.17440  0.97120  0.41880  Biso   1.000  C
  C92      1.0000 0.13130  0.87460  0.45814  Biso   1.000  C
  C93      1.0000 0.21500  0.81870  0.47830  Biso   1.000  C
  C94      1.0000 0.16650  0.73220  0.51510  Biso   1.000  C
  C95      1.0000 0.03730  0.70350  0.53040  Biso   1.000  C
  C96      1.0000 0.00370  0.84200  0.47704  Biso   1.000  C
  N1       1.0000 0.62560  0.87474  0.72418  Biso   1.000  N
  N2       1.0000 0.25740  0.89774  0.94535  Biso   1.000  N
  N3       1.0000 0.56230  0.57693  0.12455  Biso   1.000  N
  N4       1.0000 0.95500  0.25729  0.98851  Biso   1.000  N
  N5       1.0000 0.37440  0.62526  0.22418  Biso   1.000  N
  N6       1.0000 0.74260  0.60226  0.44535  Biso   1.000  N
  N7       1.0000 0.43770  0.92307  0.62455  Biso   1.000  N
  N8       1.0000 0.04500  0.24271  0.48851  Biso   1.000  N
  N9       1.0000 0.37440  0.12526  0.27582  Biso   1.000  N
  N10      1.0000 0.74260  0.10226  0.05465  Biso   1.000  N
  N11      1.0000 0.43770  0.42307  0.87545  Biso   1.000  N
  N12      1.0000 0.04500  0.74271  0.01149  Biso   1.000  N
  N13      1.0000 0.62560  0.37474  0.77582  Biso   1.000  N
  N14      1.0000 0.25740  0.39774  0.55465  Biso   1.000  N
  N15      1.0000 0.56230  0.07693  0.37545  Biso   1.000  N
  N16      1.0000 0.95500  0.75729  0.51149  Biso   1.000  N
  O1       1.0000 0.77610  0.09038  0.91126  Biso   1.000  O
  O2       1.0000 0.76470  0.15574  0.80756  Biso   1.000  O
  O3       1.0000 0.55790  0.14521  0.95500  Biso   1.000  O
  O4       1.0000 0.47890  0.22185  0.86981  Biso   1.000  O
  O5       1.0000 0.56510  0.35536  0.98762  Biso   1.000  O
  O6       1.0000 0.72890  0.31223  0.04025  Biso   1.000  O
  O7       1.0000 0.09270  0.51883  0.09440  Biso   1.000  O
  O8       1.0000 0.29120  0.49699  0.09774  Biso   1.000  O
  O9       1.0000 0.76000  0.30215  0.89052  Biso   1.000  O
  O10      1.0000 0.22390  0.40962  0.41126  Biso   1.000  O
  O11      1.0000 0.23530  0.34426  0.30756  Biso   1.000  O
  O12      1.0000 0.44210  0.35479  0.45500  Biso   1.000  O
  O13      1.0000 0.52110  0.27815  0.36981  Biso   1.000  O
  O14      1.0000 0.43490  0.14464  0.48762  Biso   1.000  O
  O15      1.0000 0.27110  0.18777  0.54025  Biso   1.000  O
  O16      1.0000 0.90730  0.98117  0.59440  Biso   1.000  O
  O17      1.0000 0.70880  0.00301  0.59774  Biso   1.000  O
  O18      1.0000 0.24000  0.19785  0.39052  Biso   1.000  O
  O19      1.0000 0.22390  0.90962  0.08874  Biso   1.000  O
  O20      1.0000 0.23530  0.84426  0.19244  Biso   1.000  O
  O21      1.0000 0.44210  0.85479  0.04500  Biso   1.000  O
  O22      1.0000 0.52110  0.77815  0.13019  Biso   1.000  O
  O23      1.0000 0.43490  0.64464  0.01238  Biso   1.000  O
  O24      1.0000 0.27110  0.68777  0.95975  Biso   1.000  O
  O25      1.0000 0.90730  0.48117  0.90560  Biso   1.000  O
  O26      1.0000 0.70880  0.50301  0.90226  Biso   1.000  O
  O27      1.0000 0.24000  0.69785  0.10948  Biso   1.000  O
  O28      1.0000 0.77610  0.59038  0.58874  Biso   1.000  O
  O29      1.0000 0.76470  0.65574  0.69244  Biso   1.000  O
  O30      1.0000 0.55790  0.64521  0.54500  Biso   1.000  O
  O31      1.0000 0.47890  0.72185  0.63019  Biso   1.000  O
  O32      1.0000 0.56510  0.85536  0.51238  Biso   1.000  O
  O33      1.0000 0.72890  0.81223  0.45975  Biso   1.000  O
  O34      1.0000 0.09270  0.01883  0.40560  Biso   1.000  O
  O35      1.0000 0.29120  0.99699  0.40226  Biso   1.000  O
  O36      1.0000 0.76000  0.80215  0.60948  Biso   1.000  O
