data_image0
_cell_length_a       14.0216
_cell_length_b       14.0216
_cell_length_c       16.681
_cell_angle_alpha    80.931
_cell_angle_beta     80.931
_cell_angle_gamma    61.5274

_symmetry_space_group_name_H-M    P 1
_symmetry_int_tables_number       1

loop_
  _symmetry_equiv_pos_as_xyz
  'x, y, z'

loop_
  _atom_site_label
  _atom_site_occupancy
  _atom_site_fract_x
  _atom_site_fract_y
  _atom_site_fract_z
  _atom_site_thermal_displace_type
  _atom_site_B_iso_or_equiv
  _atom_site_type_symbol
  Fe1      1.0000 0.83852  0.78084  0.41854  Biso   1.000  Fe
  Fe2      1.0000 0.21916  0.16148  0.08146  Biso   1.000  Fe
  Fe3      1.0000 0.16148  0.21916  0.58146  Biso   1.000  Fe
  Fe4      1.0000 0.78084  0.83852  0.91854  Biso   1.000  Fe
  Ni1      1.0000 0.95421  0.59069  0.69327  Biso   1.000  Ni
  Ni2      1.0000 0.40931  0.04579  0.80673  Biso   1.000  Ni
  Ni3      1.0000 0.04579  0.40931  0.30673  Biso   1.000  Ni
  Ni4      1.0000 0.59069  0.95421  0.19327  Biso   1.000  Ni
  Ni5      1.0000 0.10595  0.89405  0.25000  Biso   1.000  Ni
  Ni6      1.0000 0.89405  0.10595  0.75000  Biso   1.000  Ni
  H1       1.0000 0.07630  0.66950  0.71790  Biso   1.000  H
  H2       1.0000 0.13470  0.59430  0.64800  Biso   1.000  H
  H3       1.0000 0.21970  0.54570  0.77360  Biso   1.000  H
  H4       1.0000 0.22500  0.45340  0.72980  Biso   1.000  H
  H5       1.0000 0.19520  0.42980  0.86060  Biso   1.000  H
  H6       1.0000 0.09070  0.54130  0.85960  Biso   1.000  H
  H7       1.0000 0.05550  0.40570  0.89580  Biso   1.000  H
  H8       1.0000 0.10920  0.35940  0.81260  Biso   1.000  H
  H9       1.0000 0.92260  0.52160  0.85770  Biso   1.000  H
  H10      1.0000 0.89590  0.43330  0.88250  Biso   1.000  H
  H11      1.0000 0.94690  0.37030  0.80550  Biso   1.000  H
  H12      1.0000 0.75850  0.52810  0.83890  Biso   1.000  H
  H13      1.0000 0.79330  0.41550  0.80960  Biso   1.000  H
  H14      1.0000 0.68400  0.57940  0.72970  Biso   1.000  H
  H15      1.0000 0.77120  0.47840  0.68680  Biso   1.000  H
  H16      1.0000 0.75370  0.67430  0.67550  Biso   1.000  H
  H17      1.0000 0.81650  0.58470  0.61590  Biso   1.000  H
  H18      1.0000 0.22180  0.93100  0.32970  Biso   1.000  H
  H19      1.0000 0.17500  0.86220  0.38770  Biso   1.000  H
  H20      1.0000 0.14060  0.04440  0.39490  Biso   1.000  H
  H21      1.0000 0.08470  0.97970  0.44700  Biso   1.000  H
  H22      1.0000 0.00780  0.15620  0.36980  Biso   1.000  H
  H23      1.0000 0.95160  0.09420  0.42560  Biso   1.000  H
  H24      1.0000 0.86360  0.11620  0.34100  Biso   1.000  H
  H25      1.0000 0.91750  0.18090  0.28610  Biso   1.000  H
  H26      1.0000 0.26580  0.69740  0.21140  Biso   1.000  H
  H27      1.0000 0.33050  0.92370  0.78210  Biso   1.000  H
  H28      1.0000 0.40570  0.86530  0.85200  Biso   1.000  H
  H29      1.0000 0.45430  0.78030  0.72640  Biso   1.000  H
  H30      1.0000 0.54660  0.77500  0.77020  Biso   1.000  H
  H31      1.0000 0.57020  0.80480  0.63940  Biso   1.000  H
  H32      1.0000 0.45870  0.90930  0.64040  Biso   1.000  H
  H33      1.0000 0.59430  0.94450  0.60420  Biso   1.000  H
  H34      1.0000 0.64060  0.89080  0.68740  Biso   1.000  H
  H35      1.0000 0.47840  0.07740  0.64230  Biso   1.000  H
  H36      1.0000 0.56670  0.10410  0.61750  Biso   1.000  H
  H37      1.0000 0.62970  0.05310  0.69450  Biso   1.000  H
  H38      1.0000 0.47190  0.24150  0.66110  Biso   1.000  H
  H39      1.0000 0.58450  0.20670  0.69040  Biso   1.000  H
  H40      1.0000 0.42060  0.31600  0.77030  Biso   1.000  H
  H41      1.0000 0.52160  0.22880  0.81320  Biso   1.000  H
  H42      1.0000 0.32570  0.24630  0.82450  Biso   1.000  H
  H43      1.0000 0.41530  0.18350  0.88410  Biso   1.000  H
  H44      1.0000 0.06900  0.77820  0.17030  Biso   1.000  H
  H45      1.0000 0.13780  0.82500  0.11230  Biso   1.000  H
  H46      1.0000 0.95560  0.85940  0.10510  Biso   1.000  H
  H47      1.0000 0.02030  0.91530  0.05300  Biso   1.000  H
  H48      1.0000 0.84380  0.99220  0.13020  Biso   1.000  H
  H49      1.0000 0.90580  0.04840  0.07440  Biso   1.000  H
  H50      1.0000 0.88380  0.13640  0.15900  Biso   1.000  H
  H51      1.0000 0.81910  0.08250  0.21390  Biso   1.000  H
  H52      1.0000 0.30260  0.73420  0.28860  Biso   1.000  H
  H53      1.0000 0.92370  0.33050  0.28210  Biso   1.000  H
  H54      1.0000 0.86530  0.40570  0.35200  Biso   1.000  H
  H55      1.0000 0.78030  0.45430  0.22640  Biso   1.000  H
  H56      1.0000 0.77500  0.54660  0.27020  Biso   1.000  H
  H57      1.0000 0.80480  0.57020  0.13940  Biso   1.000  H
  H58      1.0000 0.90930  0.45870  0.14040  Biso   1.000  H
  H59      1.0000 0.94450  0.59430  0.10420  Biso   1.000  H
  H60      1.0000 0.89080  0.64060  0.18740  Biso   1.000  H
  H61      1.0000 0.07740  0.47840  0.14230  Biso   1.000  H
  H62      1.0000 0.10410  0.56670  0.11750  Biso   1.000  H
  H63      1.0000 0.05310  0.62970  0.19450  Biso   1.000  H
  H64      1.0000 0.24150  0.47190  0.16110  Biso   1.000  H
  H65      1.0000 0.20670  0.58450  0.19040  Biso   1.000  H
  H66      1.0000 0.31600  0.42060  0.27030  Biso   1.000  H
  H67      1.0000 0.22880  0.52160  0.31320  Biso   1.000  H
  H68      1.0000 0.24630  0.32570  0.32450  Biso   1.000  H
  H69      1.0000 0.18350  0.41530  0.38410  Biso   1.000  H
  H70      1.0000 0.77820  0.06900  0.67030  Biso   1.000  H
  H71      1.0000 0.82500  0.13780  0.61230  Biso   1.000  H
  H72      1.0000 0.85940  0.95560  0.60510  Biso   1.000  H
  H73      1.0000 0.91530  0.02030  0.55300  Biso   1.000  H
  H74      1.0000 0.99220  0.84380  0.63020  Biso   1.000  H
  H75      1.0000 0.04840  0.90580  0.57440  Biso   1.000  H
  H76      1.0000 0.13640  0.88380  0.65900  Biso   1.000  H
  H77      1.0000 0.08250  0.81910  0.71390  Biso   1.000  H
  H78      1.0000 0.73420  0.30260  0.78860  Biso   1.000  H
  H79      1.0000 0.66950  0.07630  0.21790  Biso   1.000  H
  H80      1.0000 0.59430  0.13470  0.14800  Biso   1.000  H
  H81      1.0000 0.54570  0.21970  0.27360  Biso   1.000  H
  H82      1.0000 0.45340  0.22500  0.22980  Biso   1.000  H
  H83      1.0000 0.42980  0.19520  0.36060  Biso   1.000  H
  H84      1.0000 0.54130  0.09070  0.35960  Biso   1.000  H
  H85      1.0000 0.40570  0.05550  0.39580  Biso   1.000  H
  H86      1.0000 0.35940  0.10920  0.31260  Biso   1.000  H
  H87      1.0000 0.52160  0.92260  0.35770  Biso   1.000  H
  H88      1.0000 0.43330  0.89590  0.38250  Biso   1.000  H
  H89      1.0000 0.37030  0.94690  0.30550  Biso   1.000  H
  H90      1.0000 0.52810  0.75850  0.33890  Biso   1.000  H
  H91      1.0000 0.41550  0.79330  0.30960  Biso   1.000  H
  H92      1.0000 0.57940  0.68400  0.22970  Biso   1.000  H
  H93      1.0000 0.47840  0.77120  0.18680  Biso   1.000  H
  H94      1.0000 0.67430  0.75370  0.17550  Biso   1.000  H
  H95      1.0000 0.58470  0.81650  0.11590  Biso   1.000  H
  H96      1.0000 0.93100  0.22180  0.82970  Biso   1.000  H
  H97      1.0000 0.86220  0.17500  0.88770  Biso   1.000  H
  H98      1.0000 0.04440  0.14060  0.89490  Biso   1.000  H
  H99      1.0000 0.97970  0.08470  0.94700  Biso   1.000  H
  H100     1.0000 0.15620  0.00780  0.86980  Biso   1.000  H
  H101     1.0000 0.09420  0.95160  0.92560  Biso   1.000  H
  H102     1.0000 0.11620  0.86360  0.84100  Biso   1.000  H
  H103     1.0000 0.18090  0.91750  0.78610  Biso   1.000  H
  H104     1.0000 0.69740  0.26580  0.71140  Biso   1.000  H
  C1       1.0000 0.90140  0.72880  0.52120  Biso   1.000  C
  C2       1.0000 0.95850  0.80230  0.36560  Biso   1.000  C
  C3       1.0000 0.91480  0.63440  0.38720  Biso   1.000  C
  C4       1.0000 0.76520  0.93040  0.44550  Biso   1.000  C
  C5       1.0000 0.71660  0.75500  0.46510  Biso   1.000  C
  C6       1.0000 0.77150  0.83290  0.31830  Biso   1.000  C
  C7       1.0000 0.17500  0.51500  0.75800  Biso   1.000  C
  C8       1.0000 0.14100  0.48100  0.82700  Biso   1.000  C
  C9       1.0000 0.07200  0.43200  0.83900  Biso   1.000  C
  C10      1.0000 0.89530  0.44330  0.81800  Biso   1.000  C
  C11      1.0000 0.79400  0.48600  0.79900  Biso   1.000  C
  C12      1.0000 0.76160  0.53560  0.72200  Biso   1.000  C
  C13      1.0000 0.08860  0.01860  0.39100  Biso   1.000  C
  C14      1.0000 0.99270  0.09470  0.37430  Biso   1.000  C
  C15      1.0000 0.93630  0.10870  0.31010  Biso   1.000  C
  C16      1.0000 0.27120  0.09860  0.97880  Biso   1.000  C
  C17      1.0000 0.19770  0.04150  0.13440  Biso   1.000  C
  C18      1.0000 0.36560  0.08520  0.11280  Biso   1.000  C
  C19      1.0000 0.06960  0.23480  0.05450  Biso   1.000  C
  C20      1.0000 0.24500  0.28340  0.03490  Biso   1.000  C
  C21      1.0000 0.16710  0.22850  0.18170  Biso   1.000  C
  C22      1.0000 0.48500  0.82500  0.74200  Biso   1.000  C
  C23      1.0000 0.51900  0.85900  0.67300  Biso   1.000  C
  C24      1.0000 0.56800  0.92800  0.66100  Biso   1.000  C
  C25      1.0000 0.55670  0.10470  0.68200  Biso   1.000  C
  C26      1.0000 0.51400  0.20600  0.70100  Biso   1.000  C
  C27      1.0000 0.46440  0.23840  0.77800  Biso   1.000  C
  C28      1.0000 0.98140  0.91140  0.10900  Biso   1.000  C
  C29      1.0000 0.90530  0.00730  0.12570  Biso   1.000  C
  C30      1.0000 0.89130  0.06370  0.18990  Biso   1.000  C
  C31      1.0000 0.09860  0.27120  0.47880  Biso   1.000  C
  C32      1.0000 0.04150  0.19770  0.63440  Biso   1.000  C
  C33      1.0000 0.08520  0.36560  0.61280  Biso   1.000  C
  C34      1.0000 0.23480  0.06960  0.55450  Biso   1.000  C
  C35      1.0000 0.28340  0.24500  0.53490  Biso   1.000  C
  C36      1.0000 0.22850  0.16710  0.68170  Biso   1.000  C
  C37      1.0000 0.82500  0.48500  0.24200  Biso   1.000  C
  C38      1.0000 0.85900  0.51900  0.17300  Biso   1.000  C
  C39      1.0000 0.92800  0.56800  0.16100  Biso   1.000  C
  C40      1.0000 0.10470  0.55670  0.18200  Biso   1.000  C
  C41      1.0000 0.20600  0.51400  0.20100  Biso   1.000  C
  C42      1.0000 0.23840  0.46440  0.27800  Biso   1.000  C
  C43      1.0000 0.91140  0.98140  0.60900  Biso   1.000  C
  C44      1.0000 0.00730  0.90530  0.62570  Biso   1.000  C
  C45      1.0000 0.06370  0.89130  0.68990  Biso   1.000  C
  C46      1.0000 0.72880  0.90140  0.02120  Biso   1.000  C
  C47      1.0000 0.80230  0.95850  0.86560  Biso   1.000  C
  C48      1.0000 0.63440  0.91480  0.88720  Biso   1.000  C
  C49      1.0000 0.93040  0.76520  0.94550  Biso   1.000  C
  C50      1.0000 0.75500  0.71660  0.96510  Biso   1.000  C
  C51      1.0000 0.83290  0.77150  0.81830  Biso   1.000  C
  C52      1.0000 0.51500  0.17500  0.25800  Biso   1.000  C
  C53      1.0000 0.48100  0.14100  0.32700  Biso   1.000  C
  C54      1.0000 0.43200  0.07200  0.33900  Biso   1.000  C
  C55      1.0000 0.44330  0.89530  0.31800  Biso   1.000  C
  C56      1.0000 0.48600  0.79400  0.29900  Biso   1.000  C
  C57      1.0000 0.53560  0.76160  0.22200  Biso   1.000  C
  C58      1.0000 0.01860  0.08860  0.89100  Biso   1.000  C
  C59      1.0000 0.09470  0.99270  0.87430  Biso   1.000  C
  C60      1.0000 0.10870  0.93630  0.81010  Biso   1.000  C
  N1       1.0000 0.93620  0.69160  0.58280  Biso   1.000  N
  N2       1.0000 0.02770  0.81890  0.32900  Biso   1.000  N
  N3       1.0000 0.96100  0.54780  0.36660  Biso   1.000  N
  N4       1.0000 0.72370  0.02090  0.45750  Biso   1.000  N
  N5       1.0000 0.64690  0.73350  0.49000  Biso   1.000  N
  N6       1.0000 0.72460  0.86700  0.26060  Biso   1.000  N
  N7       1.0000 0.09840  0.59660  0.70030  Biso   1.000  N
  N8       1.0000 0.96910  0.48830  0.80480  Biso   1.000  N
  N9       1.0000 0.80750  0.59850  0.67240  Biso   1.000  N
  N10      1.0000 0.15600  0.92740  0.34940  Biso   1.000  N
  N11      1.0000 0.30840  0.06380  0.91720  Biso   1.000  N
  N12      1.0000 0.18110  0.97230  0.17100  Biso   1.000  N
  N13      1.0000 0.45220  0.03900  0.13340  Biso   1.000  N
  N14      1.0000 0.97910  0.27630  0.04250  Biso   1.000  N
  N15      1.0000 0.26650  0.35310  0.01000  Biso   1.000  N
  N16      1.0000 0.13300  0.27540  0.23940  Biso   1.000  N
  N17      1.0000 0.40340  0.90160  0.79970  Biso   1.000  N
  N18      1.0000 0.51170  0.03090  0.69520  Biso   1.000  N
  N19      1.0000 0.40150  0.19250  0.82760  Biso   1.000  N
  N20      1.0000 0.07260  0.84400  0.15060  Biso   1.000  N
  N21      1.0000 0.06380  0.30840  0.41720  Biso   1.000  N
  N22      1.0000 0.97230  0.18110  0.67100  Biso   1.000  N
  N23      1.0000 0.03900  0.45220  0.63340  Biso   1.000  N
  N24      1.0000 0.27630  0.97910  0.54250  Biso   1.000  N
  N25      1.0000 0.35310  0.26650  0.51000  Biso   1.000  N
  N26      1.0000 0.27540  0.13300  0.73940  Biso   1.000  N
  N27      1.0000 0.90160  0.40340  0.29970  Biso   1.000  N
  N28      1.0000 0.03090  0.51170  0.19520  Biso   1.000  N
  N29      1.0000 0.19250  0.40150  0.32760  Biso   1.000  N
  N30      1.0000 0.84400  0.07260  0.65060  Biso   1.000  N
  N31      1.0000 0.69160  0.93620  0.08280  Biso   1.000  N
  N32      1.0000 0.81890  0.02770  0.82900  Biso   1.000  N
  N33      1.0000 0.54780  0.96100  0.86660  Biso   1.000  N
  N34      1.0000 0.02090  0.72370  0.95750  Biso   1.000  N
  N35      1.0000 0.73350  0.64690  0.99000  Biso   1.000  N
  N36      1.0000 0.86700  0.72460  0.76060  Biso   1.000  N
  N37      1.0000 0.59660  0.09840  0.20030  Biso   1.000  N
  N38      1.0000 0.48830  0.96910  0.30480  Biso   1.000  N
  N39      1.0000 0.59850  0.80750  0.17240  Biso   1.000  N
  N40      1.0000 0.92740  0.15600  0.84940  Biso   1.000  N
  N41      1.0000 0.95840  0.04160  0.25000  Biso   1.000  N
  N42      1.0000 0.04160  0.95840  0.75000  Biso   1.000  N
  O1       1.0000 0.25340  0.74660  0.25000  Biso   1.000  O
  O2       1.0000 0.74660  0.25340  0.75000  Biso   1.000  O
