data_image0
_cell_length_a       13.9337
_cell_length_b       13.9337
_cell_length_c       16.599
_cell_angle_alpha    80.8041
_cell_angle_beta     80.8041
_cell_angle_gamma    61.254

_symmetry_space_group_name_H-M    P 1
_symmetry_int_tables_number       1

loop_
  _symmetry_equiv_pos_as_xyz
  'x, y, z'

loop_
  _atom_site_label
  _atom_site_occupancy
  _atom_site_fract_x
  _atom_site_fract_y
  _atom_site_fract_z
  _atom_site_thermal_displace_type
  _atom_site_B_iso_or_equiv
  _atom_site_type_symbol
  Co1      1.0000 0.83751  0.78155  0.41769  Biso   1.000  Co
  Co2      1.0000 0.21845  0.16249  0.08231  Biso   1.000  Co
  Co3      1.0000 0.16249  0.21845  0.58231  Biso   1.000  Co
  Co4      1.0000 0.78155  0.83751  0.91769  Biso   1.000  Co
  Ni1      1.0000 0.95573  0.59163  0.69169  Biso   1.000  Ni
  Ni2      1.0000 0.40837  0.04427  0.80831  Biso   1.000  Ni
  Ni3      1.0000 0.04427  0.40837  0.30831  Biso   1.000  Ni
  Ni4      1.0000 0.59163  0.95573  0.19169  Biso   1.000  Ni
  Ni5      1.0000 0.10820  0.89180  0.25000  Biso   1.000  Ni
  Ni6      1.0000 0.89180  0.10820  0.75000  Biso   1.000  Ni
  H1       1.0000 0.13660  0.59180  0.64580  Biso   1.000  H
  H2       1.0000 0.07760  0.66960  0.71490  Biso   1.000  H
  H3       1.0000 0.22840  0.45380  0.72840  Biso   1.000  H
  H4       1.0000 0.22170  0.54910  0.77020  Biso   1.000  H
  H5       1.0000 0.19560  0.43300  0.86150  Biso   1.000  H
  H6       1.0000 0.09050  0.54590  0.85890  Biso   1.000  H
  H7       1.0000 0.10920  0.36400  0.80900  Biso   1.000  H
  H8       1.0000 0.05650  0.40650  0.89420  Biso   1.000  H
  H9       1.0000 0.93120  0.54820  0.84290  Biso   1.000  H
  H10      1.0000 0.94520  0.37300  0.79850  Biso   1.000  H
  H11      1.0000 0.90130  0.42350  0.88180  Biso   1.000  H
  H12      1.0000 0.75480  0.54180  0.83790  Biso   1.000  H
  H13      1.0000 0.77760  0.42680  0.81890  Biso   1.000  H
  H14      1.0000 0.68330  0.57490  0.72350  Biso   1.000  H
  H15      1.0000 0.78070  0.47190  0.68710  Biso   1.000  H
  H16      1.0000 0.81530  0.58710  0.61650  Biso   1.000  H
  H17      1.0000 0.75310  0.67370  0.67940  Biso   1.000  H
  H18      1.0000 0.17440  0.86000  0.38920  Biso   1.000  H
  H19      1.0000 0.22540  0.92580  0.33100  Biso   1.000  H
  H20      1.0000 0.08420  0.98340  0.44690  Biso   1.000  H
  H21      1.0000 0.13880  0.04760  0.39100  Biso   1.000  H
  H22      1.0000 0.94760  0.09520  0.42370  Biso   1.000  H
  H23      1.0000 0.00230  0.15930  0.36760  Biso   1.000  H
  H24      1.0000 0.86280  0.11280  0.33860  Biso   1.000  H
  H25      1.0000 0.91520  0.17960  0.28330  Biso   1.000  H
  H26      1.0000 0.25640  0.67980  0.25000  Biso   1.000  H
  H27      1.0000 0.40820  0.86340  0.85420  Biso   1.000  H
  H28      1.0000 0.33040  0.92240  0.78510  Biso   1.000  H
  H29      1.0000 0.54620  0.77160  0.77160  Biso   1.000  H
  H30      1.0000 0.45090  0.77830  0.72980  Biso   1.000  H
  H31      1.0000 0.56700  0.80440  0.63850  Biso   1.000  H
  H32      1.0000 0.45410  0.90950  0.64110  Biso   1.000  H
  H33      1.0000 0.63600  0.89080  0.69100  Biso   1.000  H
  H34      1.0000 0.59350  0.94350  0.60580  Biso   1.000  H
  H35      1.0000 0.45180  0.06880  0.65710  Biso   1.000  H
  H36      1.0000 0.62700  0.05480  0.70150  Biso   1.000  H
  H37      1.0000 0.57650  0.09870  0.61820  Biso   1.000  H
  H38      1.0000 0.45820  0.24520  0.66210  Biso   1.000  H
  H39      1.0000 0.57320  0.22240  0.68110  Biso   1.000  H
  H40      1.0000 0.42510  0.31670  0.77650  Biso   1.000  H
  H41      1.0000 0.52810  0.21930  0.81290  Biso   1.000  H
  H42      1.0000 0.41290  0.18470  0.88350  Biso   1.000  H
  H43      1.0000 0.32630  0.24690  0.82060  Biso   1.000  H
  H44      1.0000 0.14000  0.82560  0.11080  Biso   1.000  H
  H45      1.0000 0.07420  0.77460  0.16900  Biso   1.000  H
  H46      1.0000 0.01660  0.91580  0.05310  Biso   1.000  H
  H47      1.0000 0.95240  0.86120  0.10900  Biso   1.000  H
  H48      1.0000 0.90480  0.05240  0.07630  Biso   1.000  H
  H49      1.0000 0.84070  0.99770  0.13240  Biso   1.000  H
  H50      1.0000 0.88720  0.13720  0.16140  Biso   1.000  H
  H51      1.0000 0.82040  0.08480  0.21670  Biso   1.000  H
  H52      1.0000 0.32020  0.74360  0.25000  Biso   1.000  H
  H53      1.0000 0.86340  0.40820  0.35420  Biso   1.000  H
  H54      1.0000 0.92240  0.33040  0.28510  Biso   1.000  H
  H55      1.0000 0.77160  0.54620  0.27160  Biso   1.000  H
  H56      1.0000 0.77830  0.45090  0.22980  Biso   1.000  H
  H57      1.0000 0.80440  0.56700  0.13850  Biso   1.000  H
  H58      1.0000 0.90950  0.45410  0.14110  Biso   1.000  H
  H59      1.0000 0.89080  0.63600  0.19100  Biso   1.000  H
  H60      1.0000 0.94350  0.59350  0.10580  Biso   1.000  H
  H61      1.0000 0.06880  0.45180  0.15710  Biso   1.000  H
  H62      1.0000 0.05480  0.62700  0.20150  Biso   1.000  H
  H63      1.0000 0.09870  0.57650  0.11820  Biso   1.000  H
  H64      1.0000 0.24520  0.45820  0.16210  Biso   1.000  H
  H65      1.0000 0.22240  0.57320  0.18110  Biso   1.000  H
  H66      1.0000 0.31670  0.42510  0.27650  Biso   1.000  H
  H67      1.0000 0.21930  0.52810  0.31290  Biso   1.000  H
  H68      1.0000 0.18470  0.41290  0.38350  Biso   1.000  H
  H69      1.0000 0.24690  0.32630  0.32060  Biso   1.000  H
  H70      1.0000 0.82560  0.14000  0.61080  Biso   1.000  H
  H71      1.0000 0.77460  0.07420  0.66900  Biso   1.000  H
  H72      1.0000 0.91580  0.01660  0.55310  Biso   1.000  H
  H73      1.0000 0.86120  0.95240  0.60900  Biso   1.000  H
  H74      1.0000 0.05240  0.90480  0.57630  Biso   1.000  H
  H75      1.0000 0.99770  0.84070  0.63240  Biso   1.000  H
  H76      1.0000 0.13720  0.88720  0.66140  Biso   1.000  H
  H77      1.0000 0.08480  0.82040  0.71670  Biso   1.000  H
  H78      1.0000 0.74360  0.32020  0.75000  Biso   1.000  H
  H79      1.0000 0.59180  0.13660  0.14580  Biso   1.000  H
  H80      1.0000 0.66960  0.07760  0.21490  Biso   1.000  H
  H81      1.0000 0.45380  0.22840  0.22840  Biso   1.000  H
  H82      1.0000 0.54910  0.22170  0.27020  Biso   1.000  H
  H83      1.0000 0.43300  0.19560  0.36150  Biso   1.000  H
  H84      1.0000 0.54590  0.09050  0.35890  Biso   1.000  H
  H85      1.0000 0.36400  0.10920  0.30900  Biso   1.000  H
  H86      1.0000 0.40650  0.05650  0.39420  Biso   1.000  H
  H87      1.0000 0.54820  0.93120  0.34290  Biso   1.000  H
  H88      1.0000 0.37300  0.94520  0.29850  Biso   1.000  H
  H89      1.0000 0.42350  0.90130  0.38180  Biso   1.000  H
  H90      1.0000 0.54180  0.75480  0.33790  Biso   1.000  H
  H91      1.0000 0.42680  0.77760  0.31890  Biso   1.000  H
  H92      1.0000 0.57490  0.68330  0.22350  Biso   1.000  H
  H93      1.0000 0.47190  0.78070  0.18710  Biso   1.000  H
  H94      1.0000 0.58710  0.81530  0.11650  Biso   1.000  H
  H95      1.0000 0.67370  0.75310  0.17940  Biso   1.000  H
  H96      1.0000 0.86000  0.17440  0.88920  Biso   1.000  H
  H97      1.0000 0.92580  0.22540  0.83100  Biso   1.000  H
  H98      1.0000 0.98340  0.08420  0.94690  Biso   1.000  H
  H99      1.0000 0.04760  0.13880  0.89100  Biso   1.000  H
  H100     1.0000 0.09520  0.94760  0.92370  Biso   1.000  H
  H101     1.0000 0.15930  0.00230  0.86760  Biso   1.000  H
  H102     1.0000 0.11280  0.86280  0.83860  Biso   1.000  H
  H103     1.0000 0.17960  0.91520  0.78330  Biso   1.000  H
  H104     1.0000 0.67980  0.25640  0.75000  Biso   1.000  H
  C1       1.0000 0.89890  0.73090  0.51910  Biso   1.000  C
  C2       1.0000 0.95750  0.80130  0.36640  Biso   1.000  C
  C3       1.0000 0.91190  0.63610  0.38780  Biso   1.000  C
  C4       1.0000 0.76470  0.93070  0.44450  Biso   1.000  C
  C5       1.0000 0.71620  0.75680  0.46380  Biso   1.000  C
  C6       1.0000 0.77250  0.83290  0.31800  Biso   1.000  C
  C7       1.0000 0.18300  0.51500  0.75600  Biso   1.000  C
  C8       1.0000 0.13800  0.48000  0.83100  Biso   1.000  C
  C9       1.0000 0.07400  0.42600  0.83700  Biso   1.000  C
  C10      1.0000 0.90000  0.44000  0.82200  Biso   1.000  C
  C11      1.0000 0.79100  0.49100  0.80100  Biso   1.000  C
  C12      1.0000 0.75560  0.53560  0.71200  Biso   1.000  C
  C13      1.0000 0.09500  0.01300  0.39100  Biso   1.000  C
  C14      1.0000 0.99300  0.09300  0.37400  Biso   1.000  C
  C15      1.0000 0.93290  0.11090  0.30900  Biso   1.000  C
  C16      1.0000 0.26910  0.10110  0.98090  Biso   1.000  C
  C17      1.0000 0.19870  0.04250  0.13360  Biso   1.000  C
  C18      1.0000 0.36390  0.08810  0.11220  Biso   1.000  C
  C19      1.0000 0.06930  0.23530  0.05550  Biso   1.000  C
  C20      1.0000 0.24320  0.28380  0.03620  Biso   1.000  C
  C21      1.0000 0.16710  0.22750  0.18200  Biso   1.000  C
  C22      1.0000 0.48500  0.81700  0.74400  Biso   1.000  C
  C23      1.0000 0.52000  0.86200  0.66900  Biso   1.000  C
  C24      1.0000 0.57400  0.92600  0.66300  Biso   1.000  C
  C25      1.0000 0.56000  0.10000  0.67800  Biso   1.000  C
  C26      1.0000 0.50900  0.20900  0.69900  Biso   1.000  C
  C27      1.0000 0.46440  0.24440  0.78800  Biso   1.000  C
  C28      1.0000 0.98700  0.90500  0.10900  Biso   1.000  C
  C29      1.0000 0.90700  0.00700  0.12600  Biso   1.000  C
  C30      1.0000 0.88910  0.06710  0.19100  Biso   1.000  C
  C31      1.0000 0.10110  0.26910  0.48090  Biso   1.000  C
  C32      1.0000 0.04250  0.19870  0.63360  Biso   1.000  C
  C33      1.0000 0.08810  0.36390  0.61220  Biso   1.000  C
  C34      1.0000 0.23530  0.06930  0.55550  Biso   1.000  C
  C35      1.0000 0.28380  0.24320  0.53620  Biso   1.000  C
  C36      1.0000 0.22750  0.16710  0.68200  Biso   1.000  C
  C37      1.0000 0.81700  0.48500  0.24400  Biso   1.000  C
  C38      1.0000 0.86200  0.52000  0.16900  Biso   1.000  C
  C39      1.0000 0.92600  0.57400  0.16300  Biso   1.000  C
  C40      1.0000 0.10000  0.56000  0.17800  Biso   1.000  C
  C41      1.0000 0.20900  0.50900  0.19900  Biso   1.000  C
  C42      1.0000 0.24440  0.46440  0.28800  Biso   1.000  C
  C43      1.0000 0.90500  0.98700  0.60900  Biso   1.000  C
  C44      1.0000 0.00700  0.90700  0.62600  Biso   1.000  C
  C45      1.0000 0.06710  0.88910  0.69100  Biso   1.000  C
  C46      1.0000 0.73090  0.89890  0.01910  Biso   1.000  C
  C47      1.0000 0.80130  0.95750  0.86640  Biso   1.000  C
  C48      1.0000 0.63610  0.91190  0.88780  Biso   1.000  C
  C49      1.0000 0.93070  0.76470  0.94450  Biso   1.000  C
  C50      1.0000 0.75680  0.71620  0.96380  Biso   1.000  C
  C51      1.0000 0.83290  0.77250  0.81800  Biso   1.000  C
  C52      1.0000 0.51500  0.18300  0.25600  Biso   1.000  C
  C53      1.0000 0.48000  0.13800  0.33100  Biso   1.000  C
  C54      1.0000 0.42600  0.07400  0.33700  Biso   1.000  C
  C55      1.0000 0.44000  0.90000  0.32200  Biso   1.000  C
  C56      1.0000 0.49100  0.79100  0.30100  Biso   1.000  C
  C57      1.0000 0.53560  0.75560  0.21200  Biso   1.000  C
  C58      1.0000 0.01300  0.09500  0.89100  Biso   1.000  C
  C59      1.0000 0.09300  0.99300  0.87400  Biso   1.000  C
  C60      1.0000 0.11090  0.93290  0.80900  Biso   1.000  C
  N1       1.0000 0.93440  0.69440  0.58050  Biso   1.000  N
  N2       1.0000 0.02860  0.81740  0.32950  Biso   1.000  N
  N3       1.0000 0.95730  0.55050  0.36700  Biso   1.000  N
  N4       1.0000 0.72180  0.02200  0.45690  Biso   1.000  N
  N5       1.0000 0.64390  0.73510  0.48940  Biso   1.000  N
  N6       1.0000 0.72670  0.86810  0.25990  Biso   1.000  N
  N7       1.0000 0.10070  0.59870  0.69770  Biso   1.000  N
  N8       1.0000 0.96770  0.49170  0.80440  Biso   1.000  N
  N9       1.0000 0.80620  0.60080  0.67160  Biso   1.000  N
  N10      1.0000 0.15970  0.92170  0.34950  Biso   1.000  N
  N11      1.0000 0.30560  0.06560  0.91950  Biso   1.000  N
  N12      1.0000 0.18260  0.97140  0.17050  Biso   1.000  N
  N13      1.0000 0.44950  0.04270  0.13300  Biso   1.000  N
  N14      1.0000 0.97800  0.27820  0.04310  Biso   1.000  N
  N15      1.0000 0.26490  0.35610  0.01060  Biso   1.000  N
  N16      1.0000 0.13190  0.27330  0.24010  Biso   1.000  N
  N17      1.0000 0.40130  0.89930  0.80230  Biso   1.000  N
  N18      1.0000 0.50830  0.03230  0.69560  Biso   1.000  N
  N19      1.0000 0.39920  0.19380  0.82840  Biso   1.000  N
  N20      1.0000 0.07830  0.84030  0.15050  Biso   1.000  N
  N21      1.0000 0.06560  0.30560  0.41950  Biso   1.000  N
  N22      1.0000 0.97140  0.18260  0.67050  Biso   1.000  N
  N23      1.0000 0.04270  0.44950  0.63300  Biso   1.000  N
  N24      1.0000 0.27820  0.97800  0.54310  Biso   1.000  N
  N25      1.0000 0.35610  0.26490  0.51060  Biso   1.000  N
  N26      1.0000 0.27330  0.13190  0.74010  Biso   1.000  N
  N27      1.0000 0.89930  0.40130  0.30230  Biso   1.000  N
  N28      1.0000 0.03230  0.50830  0.19560  Biso   1.000  N
  N29      1.0000 0.19380  0.39920  0.32840  Biso   1.000  N
  N30      1.0000 0.84030  0.07830  0.65050  Biso   1.000  N
  N31      1.0000 0.69440  0.93440  0.08050  Biso   1.000  N
  N32      1.0000 0.81740  0.02860  0.82950  Biso   1.000  N
  N33      1.0000 0.55050  0.95730  0.86700  Biso   1.000  N
  N34      1.0000 0.02200  0.72180  0.95690  Biso   1.000  N
  N35      1.0000 0.73510  0.64390  0.98940  Biso   1.000  N
  N36      1.0000 0.86810  0.72670  0.75990  Biso   1.000  N
  N37      1.0000 0.59870  0.10070  0.19770  Biso   1.000  N
  N38      1.0000 0.49170  0.96770  0.30440  Biso   1.000  N
  N39      1.0000 0.60080  0.80620  0.17160  Biso   1.000  N
  N40      1.0000 0.92170  0.15970  0.84950  Biso   1.000  N
  N41      1.0000 0.95870  0.04130  0.25000  Biso   1.000  N
  N42      1.0000 0.04130  0.95870  0.75000  Biso   1.000  N
  O1       1.0000 0.25800  0.74200  0.25000  Biso   1.000  O
  O2       1.0000 0.74200  0.25800  0.75000  Biso   1.000  O
