data_image0
_cell_length_a       14.2287
_cell_length_b       14.2287
_cell_length_c       16.475
_cell_angle_alpha    81.3798
_cell_angle_beta     81.3798
_cell_angle_gamma    61.4248

_symmetry_space_group_name_H-M    P 1
_symmetry_int_tables_number       1

loop_
  _symmetry_equiv_pos_as_xyz
  'x, y, z'

loop_
  _atom_site_label
  _atom_site_occupancy
  _atom_site_fract_x
  _atom_site_fract_y
  _atom_site_fract_z
  _atom_site_thermal_displace_type
  _atom_site_B_iso_or_equiv
  _atom_site_type_symbol
  Co1      1.0000 0.85088  0.77198  0.41366  Biso   1.000  Co
  Co2      1.0000 0.22802  0.14912  0.08634  Biso   1.000  Co
  Co3      1.0000 0.14912  0.22802  0.58634  Biso   1.000  Co
  Co4      1.0000 0.77198  0.85088  0.91366  Biso   1.000  Co
  Ni1      1.0000 0.94429  0.59563  0.69541  Biso   1.000  Ni
  Ni2      1.0000 0.40437  0.05571  0.80459  Biso   1.000  Ni
  Ni3      1.0000 0.05571  0.40437  0.30459  Biso   1.000  Ni
  Ni4      1.0000 0.59563  0.94429  0.19541  Biso   1.000  Ni
  Ni5      1.0000 0.10930  0.89070  0.25000  Biso   1.000  Ni
  Ni6      1.0000 0.89070  0.10930  0.75000  Biso   1.000  Ni
  H1       1.0000 0.06100  0.66520  0.73530  Biso   1.000  H
  H2       1.0000 0.12340  0.59240  0.66430  Biso   1.000  H
  H3       1.0000 0.19280  0.44940  0.74820  Biso   1.000  H
  H4       1.0000 0.20320  0.53660  0.78690  Biso   1.000  H
  H5       1.0000 0.06610  0.55350  0.87370  Biso   1.000  H
  H6       1.0000 0.16740  0.44260  0.88170  Biso   1.000  H
  H7       1.0000 0.02980  0.40900  0.89990  Biso   1.000  H
  H8       1.0000 0.08450  0.37570  0.81280  Biso   1.000  H
  H9       1.0000 0.90790  0.55830  0.84810  Biso   1.000  H
  H10      1.0000 0.87580  0.43280  0.87710  Biso   1.000  H
  H11      1.0000 0.91840  0.39400  0.78960  Biso   1.000  H
  H12      1.0000 0.73570  0.57170  0.82540  Biso   1.000  H
  H13      1.0000 0.74290  0.46170  0.81530  Biso   1.000  H
  H14      1.0000 0.67160  0.58820  0.70790  Biso   1.000  H
  H15      1.0000 0.77070  0.48430  0.67980  Biso   1.000  H
  H16      1.0000 0.81180  0.59820  0.61030  Biso   1.000  H
  H17      1.0000 0.74940  0.68320  0.67340  Biso   1.000  H
  H18      1.0000 0.22690  0.92010  0.33090  Biso   1.000  H
  H19      1.0000 0.17010  0.86370  0.39040  Biso   1.000  H
  H20      1.0000 0.10210  0.98090  0.44320  Biso   1.000  H
  H21      1.0000 0.14970  0.04110  0.37800  Biso   1.000  H
  H22      1.0000 0.96900  0.07900  0.42750  Biso   1.000  H
  H23      1.0000 0.01800  0.14780  0.37510  Biso   1.000  H
  H24      1.0000 0.88170  0.11110  0.34290  Biso   1.000  H
  H25      1.0000 0.94170  0.16650  0.28620  Biso   1.000  H
  H26      1.0000 0.25660  0.67960  0.25000  Biso   1.000  H
  H27      1.0000 0.33480  0.93900  0.76470  Biso   1.000  H
  H28      1.0000 0.40760  0.87660  0.83570  Biso   1.000  H
  H29      1.0000 0.55060  0.80720  0.75180  Biso   1.000  H
  H30      1.0000 0.46340  0.79680  0.71310  Biso   1.000  H
  H31      1.0000 0.44650  0.93390  0.62630  Biso   1.000  H
  H32      1.0000 0.55740  0.83260  0.61830  Biso   1.000  H
  H33      1.0000 0.59100  0.97020  0.60010  Biso   1.000  H
  H34      1.0000 0.62430  0.91550  0.68720  Biso   1.000  H
  H35      1.0000 0.44170  0.09210  0.65190  Biso   1.000  H
  H36      1.0000 0.56720  0.12420  0.62290  Biso   1.000  H
  H37      1.0000 0.60600  0.08160  0.71040  Biso   1.000  H
  H38      1.0000 0.42830  0.26430  0.67460  Biso   1.000  H
  H39      1.0000 0.53830  0.25710  0.68470  Biso   1.000  H
  H40      1.0000 0.41180  0.32840  0.79210  Biso   1.000  H
  H41      1.0000 0.51570  0.22930  0.82020  Biso   1.000  H
  H42      1.0000 0.40180  0.18820  0.88970  Biso   1.000  H
  H43      1.0000 0.31680  0.25060  0.82660  Biso   1.000  H
  H44      1.0000 0.07990  0.77310  0.16910  Biso   1.000  H
  H45      1.0000 0.13630  0.82990  0.10960  Biso   1.000  H
  H46      1.0000 0.01910  0.89790  0.05680  Biso   1.000  H
  H47      1.0000 0.95890  0.85030  0.12200  Biso   1.000  H
  H48      1.0000 0.92100  0.03100  0.07250  Biso   1.000  H
  H49      1.0000 0.85220  0.98200  0.12490  Biso   1.000  H
  H50      1.0000 0.88890  0.11830  0.15710  Biso   1.000  H
  H51      1.0000 0.83350  0.05830  0.21380  Biso   1.000  H
  H52      1.0000 0.32040  0.74340  0.25000  Biso   1.000  H
  H53      1.0000 0.93900  0.33480  0.26470  Biso   1.000  H
  H54      1.0000 0.87660  0.40760  0.33570  Biso   1.000  H
  H55      1.0000 0.80720  0.55060  0.25180  Biso   1.000  H
  H56      1.0000 0.79680  0.46340  0.21310  Biso   1.000  H
  H57      1.0000 0.93390  0.44650  0.12630  Biso   1.000  H
  H58      1.0000 0.83260  0.55740  0.11830  Biso   1.000  H
  H59      1.0000 0.97020  0.59100  0.10010  Biso   1.000  H
  H60      1.0000 0.91550  0.62430  0.18720  Biso   1.000  H
  H61      1.0000 0.09210  0.44170  0.15190  Biso   1.000  H
  H62      1.0000 0.12420  0.56720  0.12290  Biso   1.000  H
  H63      1.0000 0.08160  0.60600  0.21040  Biso   1.000  H
  H64      1.0000 0.26430  0.42830  0.17460  Biso   1.000  H
  H65      1.0000 0.25710  0.53830  0.18470  Biso   1.000  H
  H66      1.0000 0.32840  0.41180  0.29210  Biso   1.000  H
  H67      1.0000 0.22930  0.51570  0.32020  Biso   1.000  H
  H68      1.0000 0.18820  0.40180  0.38970  Biso   1.000  H
  H69      1.0000 0.25060  0.31680  0.32660  Biso   1.000  H
  H70      1.0000 0.77310  0.07990  0.66910  Biso   1.000  H
  H71      1.0000 0.82990  0.13630  0.60960  Biso   1.000  H
  H72      1.0000 0.89790  0.01910  0.55680  Biso   1.000  H
  H73      1.0000 0.85030  0.95890  0.62200  Biso   1.000  H
  H74      1.0000 0.03100  0.92100  0.57250  Biso   1.000  H
  H75      1.0000 0.98200  0.85220  0.62490  Biso   1.000  H
  H76      1.0000 0.11830  0.88890  0.65710  Biso   1.000  H
  H77      1.0000 0.05830  0.83350  0.71380  Biso   1.000  H
  H78      1.0000 0.74340  0.32040  0.75000  Biso   1.000  H
  H79      1.0000 0.66520  0.06100  0.23530  Biso   1.000  H
  H80      1.0000 0.59240  0.12340  0.16430  Biso   1.000  H
  H81      1.0000 0.44940  0.19280  0.24820  Biso   1.000  H
  H82      1.0000 0.53660  0.20320  0.28690  Biso   1.000  H
  H83      1.0000 0.55350  0.06610  0.37370  Biso   1.000  H
  H84      1.0000 0.44260  0.16740  0.38170  Biso   1.000  H
  H85      1.0000 0.40900  0.02980  0.39990  Biso   1.000  H
  H86      1.0000 0.37570  0.08450  0.31280  Biso   1.000  H
  H87      1.0000 0.55830  0.90790  0.34810  Biso   1.000  H
  H88      1.0000 0.43280  0.87580  0.37710  Biso   1.000  H
  H89      1.0000 0.39400  0.91840  0.28960  Biso   1.000  H
  H90      1.0000 0.57170  0.73570  0.32540  Biso   1.000  H
  H91      1.0000 0.46170  0.74290  0.31530  Biso   1.000  H
  H92      1.0000 0.58820  0.67160  0.20790  Biso   1.000  H
  H93      1.0000 0.48430  0.77070  0.17980  Biso   1.000  H
  H94      1.0000 0.59820  0.81180  0.11030  Biso   1.000  H
  H95      1.0000 0.68320  0.74940  0.17340  Biso   1.000  H
  H96      1.0000 0.92010  0.22690  0.83090  Biso   1.000  H
  H97      1.0000 0.86370  0.17010  0.89040  Biso   1.000  H
  H98      1.0000 0.98090  0.10210  0.94320  Biso   1.000  H
  H99      1.0000 0.04110  0.14970  0.87800  Biso   1.000  H
  H100     1.0000 0.07900  0.96900  0.92750  Biso   1.000  H
  H101     1.0000 0.14780  0.01800  0.87510  Biso   1.000  H
  H102     1.0000 0.11110  0.88170  0.84290  Biso   1.000  H
  H103     1.0000 0.16650  0.94170  0.78620  Biso   1.000  H
  H104     1.0000 0.67960  0.25660  0.75000  Biso   1.000  H
  C1       1.0000 0.90970  0.72230  0.51600  Biso   1.000  C
  C2       1.0000 0.96630  0.79690  0.36330  Biso   1.000  C
  C3       1.0000 0.92370  0.63070  0.38250  Biso   1.000  C
  C4       1.0000 0.77770  0.91690  0.44180  Biso   1.000  C
  C5       1.0000 0.73260  0.75040  0.45980  Biso   1.000  C
  C6       1.0000 0.78500  0.82120  0.31420  Biso   1.000  C
  C7       1.0000 0.15400  0.50800  0.77400  Biso   1.000  C
  C8       1.0000 0.11800  0.49000  0.84700  Biso   1.000  C
  C9       1.0000 0.04200  0.43600  0.84500  Biso   1.000  C
  C10      1.0000 0.86030  0.45630  0.81400  Biso   1.000  C
  C11      1.0000 0.75270  0.52670  0.79200  Biso   1.000  C
  C12      1.0000 0.74920  0.54720  0.70800  Biso   1.000  C
  C13      1.0000 0.10000  0.00400  0.39200  Biso   1.000  C
  C14      1.0000 0.00800  0.08800  0.37500  Biso   1.000  C
  C15      1.0000 0.93800  0.09800  0.31200  Biso   1.000  C
  C16      1.0000 0.27770  0.09030  0.98400  Biso   1.000  C
  C17      1.0000 0.20310  0.03370  0.13670  Biso   1.000  C
  C18      1.0000 0.36930  0.07630  0.11750  Biso   1.000  C
  C19      1.0000 0.08310  0.22230  0.05820  Biso   1.000  C
  C20      1.0000 0.24960  0.26740  0.04020  Biso   1.000  C
  C21      1.0000 0.17880  0.21500  0.18580  Biso   1.000  C
  C22      1.0000 0.49200  0.84600  0.72600  Biso   1.000  C
  C23      1.0000 0.51000  0.88200  0.65300  Biso   1.000  C
  C24      1.0000 0.56400  0.95800  0.65500  Biso   1.000  C
  C25      1.0000 0.54370  0.13970  0.68600  Biso   1.000  C
  C26      1.0000 0.47330  0.24730  0.70800  Biso   1.000  C
  C27      1.0000 0.45280  0.25080  0.79200  Biso   1.000  C
  C28      1.0000 0.99600  0.90000  0.10800  Biso   1.000  C
  C29      1.0000 0.91200  0.99200  0.12500  Biso   1.000  C
  C30      1.0000 0.90200  0.06200  0.18800  Biso   1.000  C
  C31      1.0000 0.09030  0.27770  0.48400  Biso   1.000  C
  C32      1.0000 0.03370  0.20310  0.63670  Biso   1.000  C
  C33      1.0000 0.07630  0.36930  0.61750  Biso   1.000  C
  C34      1.0000 0.22230  0.08310  0.55820  Biso   1.000  C
  C35      1.0000 0.26740  0.24960  0.54020  Biso   1.000  C
  C36      1.0000 0.21500  0.17880  0.68580  Biso   1.000  C
  C37      1.0000 0.84600  0.49200  0.22600  Biso   1.000  C
  C38      1.0000 0.88200  0.51000  0.15300  Biso   1.000  C
  C39      1.0000 0.95800  0.56400  0.15500  Biso   1.000  C
  C40      1.0000 0.13970  0.54370  0.18600  Biso   1.000  C
  C41      1.0000 0.24730  0.47330  0.20800  Biso   1.000  C
  C42      1.0000 0.25080  0.45280  0.29200  Biso   1.000  C
  C43      1.0000 0.90000  0.99600  0.60800  Biso   1.000  C
  C44      1.0000 0.99200  0.91200  0.62500  Biso   1.000  C
  C45      1.0000 0.06200  0.90200  0.68800  Biso   1.000  C
  C46      1.0000 0.72230  0.90970  0.01600  Biso   1.000  C
  C47      1.0000 0.79690  0.96630  0.86330  Biso   1.000  C
  C48      1.0000 0.63070  0.92370  0.88250  Biso   1.000  C
  C49      1.0000 0.91690  0.77770  0.94180  Biso   1.000  C
  C50      1.0000 0.75040  0.73260  0.95980  Biso   1.000  C
  C51      1.0000 0.82120  0.78500  0.81420  Biso   1.000  C
  C52      1.0000 0.50800  0.15400  0.27400  Biso   1.000  C
  C53      1.0000 0.49000  0.11800  0.34700  Biso   1.000  C
  C54      1.0000 0.43600  0.04200  0.34500  Biso   1.000  C
  C55      1.0000 0.45630  0.86030  0.31400  Biso   1.000  C
  C56      1.0000 0.52670  0.75270  0.29200  Biso   1.000  C
  C57      1.0000 0.54720  0.74920  0.20800  Biso   1.000  C
  C58      1.0000 0.00400  0.10000  0.89200  Biso   1.000  C
  C59      1.0000 0.08800  0.00800  0.87500  Biso   1.000  C
  C60      1.0000 0.09800  0.93800  0.81200  Biso   1.000  C
  N1       1.0000 0.94110  0.68690  0.58040  Biso   1.000  N
  N2       1.0000 0.03120  0.81620  0.32890  Biso   1.000  N
  N3       1.0000 0.96920  0.54680  0.36100  Biso   1.000  N
  N4       1.0000 0.73500  0.00360  0.45620  Biso   1.000  N
  N5       1.0000 0.66120  0.73400  0.48490  Biso   1.000  N
  N6       1.0000 0.73610  0.85450  0.25750  Biso   1.000  N
  N7       1.0000 0.08380  0.59760  0.71570  Biso   1.000  N
  N8       1.0000 0.94150  0.50270  0.81070  Biso   1.000  N
  N9       1.0000 0.80040  0.60960  0.66660  Biso   1.000  N
  N10      1.0000 0.15960  0.92100  0.34970  Biso   1.000  N
  N11      1.0000 0.31310  0.05890  0.91960  Biso   1.000  N
  N12      1.0000 0.18380  0.96880  0.17110  Biso   1.000  N
  N13      1.0000 0.45320  0.03080  0.13900  Biso   1.000  N
  N14      1.0000 0.99640  0.26500  0.04380  Biso   1.000  N
  N15      1.0000 0.26600  0.33880  0.01510  Biso   1.000  N
  N16      1.0000 0.14550  0.26390  0.24250  Biso   1.000  N
  N17      1.0000 0.40240  0.91620  0.78430  Biso   1.000  N
  N18      1.0000 0.49730  0.05850  0.68930  Biso   1.000  N
  N19      1.0000 0.39040  0.19960  0.83340  Biso   1.000  N
  N20      1.0000 0.07900  0.84040  0.15030  Biso   1.000  N
  N21      1.0000 0.05890  0.31310  0.41960  Biso   1.000  N
  N22      1.0000 0.96880  0.18380  0.67110  Biso   1.000  N
  N23      1.0000 0.03080  0.45320  0.63900  Biso   1.000  N
  N24      1.0000 0.26500  0.99640  0.54380  Biso   1.000  N
  N25      1.0000 0.33880  0.26600  0.51510  Biso   1.000  N
  N26      1.0000 0.26390  0.14550  0.74250  Biso   1.000  N
  N27      1.0000 0.91620  0.40240  0.28430  Biso   1.000  N
  N28      1.0000 0.05850  0.49730  0.18930  Biso   1.000  N
  N29      1.0000 0.19960  0.39040  0.33340  Biso   1.000  N
  N30      1.0000 0.84040  0.07900  0.65030  Biso   1.000  N
  N31      1.0000 0.68690  0.94110  0.08040  Biso   1.000  N
  N32      1.0000 0.81620  0.03120  0.82890  Biso   1.000  N
  N33      1.0000 0.54680  0.96920  0.86100  Biso   1.000  N
  N34      1.0000 0.00360  0.73500  0.95620  Biso   1.000  N
  N35      1.0000 0.73400  0.66120  0.98490  Biso   1.000  N
  N36      1.0000 0.85450  0.73610  0.75750  Biso   1.000  N
  N37      1.0000 0.59760  0.08380  0.21570  Biso   1.000  N
  N38      1.0000 0.50270  0.94150  0.31070  Biso   1.000  N
  N39      1.0000 0.60960  0.80040  0.16660  Biso   1.000  N
  N40      1.0000 0.92100  0.15960  0.84970  Biso   1.000  N
  N41      1.0000 0.96600  0.03400  0.25000  Biso   1.000  N
  N42      1.0000 0.03400  0.96600  0.75000  Biso   1.000  N
  O1       1.0000 0.25550  0.74450  0.25000  Biso   1.000  O
  O2       1.0000 0.74450  0.25550  0.75000  Biso   1.000  O
