data_image0
_cell_length_a       9.4462
_cell_length_b       9.4462
_cell_length_c       15.759
_cell_angle_alpha    90
_cell_angle_beta     90
_cell_angle_gamma    120

_symmetry_space_group_name_H-M    "P 1"
_symmetry_int_tables_number       1

loop_
  _symmetry_equiv_pos_as_xyz
  'x, y, z'

loop_
  _atom_site_label
  _atom_site_occupancy
  _atom_site_fract_x
  _atom_site_fract_y
  _atom_site_fract_z
  _atom_site_thermal_displace_type
  _atom_site_B_iso_or_equiv
  _atom_site_type_symbol
  P1       1.0000 0.16996  0.38704  0.91915  Biso   1.000  P
  O1       1.0000 0.02190  0.21190  0.93447  Biso   1.000  O
  O2       1.0000 0.18020  0.41550  0.82087  Biso   1.000  O
  O3       1.0000 0.13990  0.51450  0.95844  Biso   1.000  O
  O4       1.0000 0.80240  0.50920  0.88576  Biso   1.000  O
  H1       1.0000 0.82720  0.55100  0.83640  Biso   1.000  H
  O5       1.0000 0.31830  0.38390  0.95154  Biso   1.000  O
  H2       1.0000 0.88320  0.55360  0.92010  Biso   1.000  H
  P2       1.0000 0.61296  0.78292  0.25248  Biso   1.000  P
  O6       1.0000 0.78810  0.81000  0.26780  Biso   1.000  O
  O7       1.0000 0.58450  0.76470  0.15420  Biso   1.000  O
  O8       1.0000 0.48550  0.62540  0.29177  Biso   1.000  O
  O9       1.0000 0.49080  0.29320  0.21909  Biso   1.000  O
  H3       1.0000 0.44900  0.27620  0.16973  Biso   1.000  H
  O10      1.0000 0.61610  0.93440  0.28487  Biso   1.000  O
  H4       1.0000 0.44640  0.32960  0.25343  Biso   1.000  H
  P3       1.0000 0.21708  0.83004  0.58582  Biso   1.000  P
  O11      1.0000 0.19000  0.97810  0.60114  Biso   1.000  O
  O12      1.0000 0.23530  0.81980  0.48754  Biso   1.000  O
  O13      1.0000 0.37460  0.86010  0.62511  Biso   1.000  O
  O14      1.0000 0.70680  0.19760  0.55243  Biso   1.000  O
  H5       1.0000 0.72380  0.17280  0.50307  Biso   1.000  H
  O15      1.0000 0.06560  0.68170  0.61821  Biso   1.000  O
  H6       1.0000 0.67040  0.11680  0.58677  Biso   1.000  H
  P4       1.0000 0.83004  0.61296  0.41915  Biso   1.000  P
  O16      1.0000 0.97810  0.78810  0.43447  Biso   1.000  O
  O17      1.0000 0.81980  0.58450  0.32087  Biso   1.000  O
  O18      1.0000 0.86010  0.48550  0.45844  Biso   1.000  O
  O19      1.0000 0.19760  0.49080  0.38576  Biso   1.000  O
  H7       1.0000 0.17280  0.44900  0.33640  Biso   1.000  H
  O20      1.0000 0.68170  0.61610  0.45154  Biso   1.000  O
  H8       1.0000 0.11680  0.44640  0.42010  Biso   1.000  H
  P5       1.0000 0.38704  0.21708  0.75248  Biso   1.000  P
  O21      1.0000 0.21190  0.19000  0.76780  Biso   1.000  O
  O22      1.0000 0.41550  0.23530  0.65420  Biso   1.000  O
  O23      1.0000 0.51450  0.37460  0.79177  Biso   1.000  O
  O24      1.0000 0.50920  0.70680  0.71909  Biso   1.000  O
  H9       1.0000 0.55100  0.72380  0.66973  Biso   1.000  H
  O25      1.0000 0.38390  0.06560  0.78487  Biso   1.000  O
  H10      1.0000 0.55360  0.67040  0.75343  Biso   1.000  H
  P6       1.0000 0.78292  0.16996  0.08582  Biso   1.000  P
  O26      1.0000 0.81000  0.02190  0.10114  Biso   1.000  O
  O27      1.0000 0.76470  0.18020  0.98754  Biso   1.000  O
  O28      1.0000 0.62540  0.13990  0.12511  Biso   1.000  O
  O29      1.0000 0.29320  0.80240  0.05243  Biso   1.000  O
  H11      1.0000 0.27620  0.82720  0.00307  Biso   1.000  H
  O30      1.0000 0.93440  0.31830  0.11821  Biso   1.000  O
  H12      1.0000 0.32960  0.88320  0.08677  Biso   1.000  H
  P7       1.0000 0.38704  0.16996  0.41418  Biso   1.000  P
  O31      1.0000 0.21190  0.02190  0.39886  Biso   1.000  O
  O32      1.0000 0.41550  0.18020  0.51246  Biso   1.000  O
  O33      1.0000 0.51450  0.13990  0.37489  Biso   1.000  O
  O34      1.0000 0.50920  0.80240  0.44757  Biso   1.000  O
  H13      1.0000 0.55100  0.82720  0.49693  Biso   1.000  H
  O35      1.0000 0.38390  0.31830  0.38179  Biso   1.000  O
  H14      1.0000 0.55360  0.88320  0.41323  Biso   1.000  H
  P8       1.0000 0.78292  0.61296  0.08085  Biso   1.000  P
  O36      1.0000 0.81000  0.78810  0.06553  Biso   1.000  O
  O37      1.0000 0.76470  0.58450  0.17913  Biso   1.000  O
  O38      1.0000 0.62540  0.48550  0.04156  Biso   1.000  O
  O39      1.0000 0.29320  0.49080  0.11424  Biso   1.000  O
  H15      1.0000 0.27620  0.44900  0.16360  Biso   1.000  H
  O40      1.0000 0.93440  0.61610  0.04846  Biso   1.000  O
  H16      1.0000 0.32960  0.44640  0.07990  Biso   1.000  H
  P9       1.0000 0.83004  0.21708  0.74752  Biso   1.000  P
  O41      1.0000 0.97810  0.19000  0.73220  Biso   1.000  O
  O42      1.0000 0.81980  0.23530  0.84580  Biso   1.000  O
  O43      1.0000 0.86010  0.37460  0.70823  Biso   1.000  O
  O44      1.0000 0.19760  0.70680  0.78091  Biso   1.000  O
  H17      1.0000 0.17280  0.72380  0.83027  Biso   1.000  H
  O45      1.0000 0.68170  0.06560  0.71513  Biso   1.000  O
  H18      1.0000 0.11680  0.67040  0.74657  Biso   1.000  H
  P10      1.0000 0.61296  0.83004  0.91418  Biso   1.000  P
  O46      1.0000 0.78810  0.97810  0.89886  Biso   1.000  O
  O47      1.0000 0.58450  0.81980  0.01246  Biso   1.000  O
  O48      1.0000 0.48550  0.86010  0.87489  Biso   1.000  O
  O49      1.0000 0.49080  0.19760  0.94757  Biso   1.000  O
  H19      1.0000 0.44900  0.17280  0.99693  Biso   1.000  H
  O50      1.0000 0.61610  0.68170  0.88179  Biso   1.000  O
  H20      1.0000 0.44640  0.11680  0.91323  Biso   1.000  H
  P11      1.0000 0.21708  0.38704  0.58085  Biso   1.000  P
  O51      1.0000 0.19000  0.21190  0.56553  Biso   1.000  O
  O52      1.0000 0.23530  0.41550  0.67913  Biso   1.000  O
  O53      1.0000 0.37460  0.51450  0.54156  Biso   1.000  O
  O54      1.0000 0.70680  0.50920  0.61424  Biso   1.000  O
  H21      1.0000 0.72380  0.55100  0.66360  Biso   1.000  H
  O55      1.0000 0.06560  0.38390  0.54846  Biso   1.000  O
  H22      1.0000 0.67040  0.55360  0.57990  Biso   1.000  H
  P12      1.0000 0.16996  0.78292  0.24752  Biso   1.000  P
  O56      1.0000 0.02190  0.81000  0.23220  Biso   1.000  O
  O57      1.0000 0.18020  0.76470  0.34580  Biso   1.000  O
  O58      1.0000 0.13990  0.62540  0.20823  Biso   1.000  O
  O59      1.0000 0.80240  0.29320  0.28091  Biso   1.000  O
  H23      1.0000 0.82720  0.27620  0.33027  Biso   1.000  H
  O60      1.0000 0.31830  0.93440  0.21513  Biso   1.000  O
  H24      1.0000 0.88320  0.32960  0.24657  Biso   1.000  H
  Mg1      1.0000 0.55164  0.44836  0.91667  Biso   1.000  Mg
  Mg2      1.0000 0.55164  0.10329  0.25000  Biso   1.000  Mg
  Mg3      1.0000 0.89671  0.44836  0.58333  Biso   1.000  Mg
  Mg4      1.0000 0.44836  0.55164  0.41667  Biso   1.000  Mg
  Mg5      1.0000 0.44836  0.89671  0.75000  Biso   1.000  Mg
  Mg6      1.0000 0.10329  0.55164  0.08333  Biso   1.000  Mg
  B1       1.0000 0.15100  0.30200  0.75000  Biso   1.000  B
  B2       1.0000 0.69800  0.84900  0.08333  Biso   1.000  B
  B3       1.0000 0.15100  0.84900  0.41667  Biso   1.000  B
  B4       1.0000 0.84900  0.69800  0.25000  Biso   1.000  B
  B5       1.0000 0.30200  0.15100  0.58333  Biso   1.000  B
  B6       1.0000 0.84900  0.15100  0.91667  Biso   1.000  B
