data_image0
_cell_length_a       13.6159
_cell_length_b       14.4797
_cell_length_c       16.0372
_cell_angle_alpha    116.836
_cell_angle_beta     96.234
_cell_angle_gamma    90

_symmetry_space_group_name_H-M    P 1
_symmetry_int_tables_number       1

loop_
  _symmetry_equiv_pos_as_xyz
  'x, y, z'

loop_
  _atom_site_label
  _atom_site_occupancy
  _atom_site_fract_x
  _atom_site_fract_y
  _atom_site_fract_z
  _atom_site_thermal_displace_type
  _atom_site_B_iso_or_equiv
  _atom_site_type_symbol
  Gd1      1.0000 0.46562  0.39205  0.36620  Biso   1.000  Gd
  Gd2      1.0000 0.03438  0.02585  0.63380  Biso   1.000  Gd
  Gd3      1.0000 0.53438  0.60795  0.63380  Biso   1.000  Gd
  Gd4      1.0000 0.96562  0.97415  0.36620  Biso   1.000  Gd
  H1       1.0000 0.90640  0.12650  0.93880  Biso   1.000  H
  H2       1.0000 0.95570  0.36800  0.88900  Biso   1.000  H
  H3       1.0000 0.31130  0.42970  0.25460  Biso   1.000  H
  H4       1.0000 0.27820  0.46470  0.34220  Biso   1.000  H
  H5       1.0000 0.92600  0.70270  0.31720  Biso   1.000  H
  H6       1.0000 0.78300  0.73350  0.53320  Biso   1.000  H
  H7       1.0000 0.90340  0.47910  0.03020  Biso   1.000  H
  H8       1.0000 0.73020  0.48120  0.28540  Biso   1.000  H
  H9       1.0000 0.85180  0.24000  0.08040  Biso   1.000  H
  H10      1.0000 0.40460  0.17850  0.35700  Biso   1.000  H
  H11      1.0000 0.59360  0.18770  0.06120  Biso   1.000  H
  H12      1.0000 0.54430  0.47900  0.11100  Biso   1.000  H
  H13      1.0000 0.18870  0.17510  0.74540  Biso   1.000  H
  H14      1.0000 0.22180  0.12250  0.65780  Biso   1.000  H
  H15      1.0000 0.57400  0.38550  0.68280  Biso   1.000  H
  H16      1.0000 0.71700  0.20030  0.46680  Biso   1.000  H
  H17      1.0000 0.59660  0.44890  0.96980  Biso   1.000  H
  H18      1.0000 0.76980  0.19580  0.71460  Biso   1.000  H
  H19      1.0000 0.64820  0.15960  0.91960  Biso   1.000  H
  H20      1.0000 0.09540  0.82150  0.64300  Biso   1.000  H
  H21      1.0000 0.09360  0.87350  0.06120  Biso   1.000  H
  H22      1.0000 0.04430  0.63200  0.11100  Biso   1.000  H
  H23      1.0000 0.68870  0.57030  0.74540  Biso   1.000  H
  H24      1.0000 0.72180  0.53530  0.65780  Biso   1.000  H
  H25      1.0000 0.07400  0.29730  0.68280  Biso   1.000  H
  H26      1.0000 0.21700  0.26650  0.46680  Biso   1.000  H
  H27      1.0000 0.09660  0.52090  0.96980  Biso   1.000  H
  H28      1.0000 0.26980  0.51880  0.71460  Biso   1.000  H
  H29      1.0000 0.14820  0.76000  0.91960  Biso   1.000  H
  H30      1.0000 0.59540  0.82150  0.64300  Biso   1.000  H
  H31      1.0000 0.40640  0.81230  0.93880  Biso   1.000  H
  H32      1.0000 0.45570  0.52100  0.88900  Biso   1.000  H
  H33      1.0000 0.81130  0.82490  0.25460  Biso   1.000  H
  H34      1.0000 0.77820  0.87750  0.34220  Biso   1.000  H
  H35      1.0000 0.42600  0.61450  0.31720  Biso   1.000  H
  H36      1.0000 0.28300  0.79970  0.53320  Biso   1.000  H
  H37      1.0000 0.40340  0.55110  0.03020  Biso   1.000  H
  H38      1.0000 0.23020  0.80420  0.28540  Biso   1.000  H
  H39      1.0000 0.35180  0.84040  0.08040  Biso   1.000  H
  H40      1.0000 0.90460  0.17850  0.35700  Biso   1.000  H
  C1       1.0000 0.66610  0.56080  0.45200  Biso   1.000  C
  C2       1.0000 0.97310  0.16480  0.80740  Biso   1.000  C
  C3       1.0000 0.93590  0.23810  0.89860  Biso   1.000  C
  C4       1.0000 0.90540  0.19710  0.95660  Biso   1.000  C
  C5       1.0000 0.93480  0.34140  0.92760  Biso   1.000  C
  C6       1.0000 0.91690  0.83790  0.49520  Biso   1.000  C
  C7       1.0000 0.86190  0.73530  0.43360  Biso   1.000  C
  C8       1.0000 0.88100  0.67720  0.34240  Biso   1.000  C
  C9       1.0000 0.79410  0.69600  0.47060  Biso   1.000  C
  C10      1.0000 0.74340  0.60150  0.41440  Biso   1.000  C
  C11      1.0000 0.83360  0.58180  0.28880  Biso   1.000  C
  C12      1.0000 0.87400  0.36950  0.06860  Biso   1.000  C
  C13      1.0000 0.90390  0.40830  0.01200  Biso   1.000  C
  C14      1.0000 0.76380  0.54490  0.32360  Biso   1.000  C
  C15      1.0000 0.87370  0.26560  0.04140  Biso   1.000  C
  C16      1.0000 0.36860  0.17260  0.30200  Biso   1.000  C
  C17      1.0000 0.83390  0.10880  0.54800  Biso   1.000  C
  C18      1.0000 0.52690  0.35740  0.19260  Biso   1.000  C
  C19      1.0000 0.56410  0.33950  0.10140  Biso   1.000  C
  C20      1.0000 0.59460  0.24050  0.04340  Biso   1.000  C
  C21      1.0000 0.56520  0.41380  0.07240  Biso   1.000  C
  C22      1.0000 0.58310  0.34270  0.50480  Biso   1.000  C
  C23      1.0000 0.63810  0.30170  0.56640  Biso   1.000  C
  C24      1.0000 0.61900  0.33480  0.65760  Biso   1.000  C
  C25      1.0000 0.70590  0.22540  0.52940  Biso   1.000  C
  C26      1.0000 0.75660  0.18710  0.58560  Biso   1.000  C
  C27      1.0000 0.66640  0.29300  0.71120  Biso   1.000  C
  C28      1.0000 0.62600  0.30090  0.93140  Biso   1.000  C
  C29      1.0000 0.59610  0.39630  0.98800  Biso   1.000  C
  C30      1.0000 0.73620  0.22130  0.67640  Biso   1.000  C
  C31      1.0000 0.62630  0.22420  0.95860  Biso   1.000  C
  C32      1.0000 0.13140  0.87060  0.69800  Biso   1.000  C
  C33      1.0000 0.33390  0.43920  0.54800  Biso   1.000  C
  C34      1.0000 0.02690  0.83520  0.19260  Biso   1.000  C
  C35      1.0000 0.06410  0.76190  0.10140  Biso   1.000  C
  C36      1.0000 0.09460  0.80290  0.04340  Biso   1.000  C
  C37      1.0000 0.06520  0.65860  0.07240  Biso   1.000  C
  C38      1.0000 0.08310  0.16210  0.50480  Biso   1.000  C
  C39      1.0000 0.13810  0.26470  0.56640  Biso   1.000  C
  C40      1.0000 0.11900  0.32280  0.65760  Biso   1.000  C
  C41      1.0000 0.20590  0.30400  0.52940  Biso   1.000  C
  C42      1.0000 0.25660  0.39850  0.58560  Biso   1.000  C
  C43      1.0000 0.16640  0.41820  0.71120  Biso   1.000  C
  C44      1.0000 0.12600  0.63050  0.93140  Biso   1.000  C
  C45      1.0000 0.09610  0.59170  0.98800  Biso   1.000  C
  C46      1.0000 0.23620  0.45510  0.67640  Biso   1.000  C
  C47      1.0000 0.12630  0.73440  0.95860  Biso   1.000  C
  C48      1.0000 0.63140  0.82740  0.69800  Biso   1.000  C
  C49      1.0000 0.16610  0.89120  0.45200  Biso   1.000  C
  C50      1.0000 0.47310  0.64260  0.80740  Biso   1.000  C
  C51      1.0000 0.43590  0.66050  0.89860  Biso   1.000  C
  C52      1.0000 0.40540  0.75950  0.95660  Biso   1.000  C
  C53      1.0000 0.43480  0.58620  0.92760  Biso   1.000  C
  C54      1.0000 0.41690  0.65730  0.49520  Biso   1.000  C
  C55      1.0000 0.36190  0.69830  0.43360  Biso   1.000  C
  C56      1.0000 0.38100  0.66520  0.34240  Biso   1.000  C
  C57      1.0000 0.29410  0.77460  0.47060  Biso   1.000  C
  C58      1.0000 0.24340  0.81290  0.41440  Biso   1.000  C
  C59      1.0000 0.33360  0.70700  0.28880  Biso   1.000  C
  C60      1.0000 0.37400  0.69910  0.06860  Biso   1.000  C
  C61      1.0000 0.40390  0.60370  0.01200  Biso   1.000  C
  C62      1.0000 0.26380  0.77870  0.32360  Biso   1.000  C
  C63      1.0000 0.37370  0.77580  0.04140  Biso   1.000  C
  C64      1.0000 0.86860  0.12940  0.30200  Biso   1.000  C
  N1       1.0000 0.86280  0.52460  0.19500  Biso   1.000  N
  N2       1.0000 0.84420  0.43040  0.16180  Biso   1.000  N
  N3       1.0000 0.63720  0.32960  0.80500  Biso   1.000  N
  N4       1.0000 0.65580  0.26860  0.83820  Biso   1.000  N
  N5       1.0000 0.13720  0.47540  0.80500  Biso   1.000  N
  N6       1.0000 0.15580  0.56960  0.83820  Biso   1.000  N
  N7       1.0000 0.36280  0.67040  0.19500  Biso   1.000  N
  N8       1.0000 0.34420  0.73140  0.16180  Biso   1.000  N
  O1       1.0000 0.62630  0.47370  0.39900  Biso   1.000  O
  O2       1.0000 0.64850  0.61671  0.53362  Biso   1.000  O
  O3       1.0000 0.96400  0.06940  0.78040  Biso   1.000  O
  O4       1.0000 0.01240  0.20310  0.76220  Biso   1.000  O
  O5       1.0000 0.93000  0.86871  0.58262  Biso   1.000  O
  O6       1.0000 0.95030  0.89010  0.45860  Biso   1.000  O
  O7       1.0000 0.30460  0.41510  0.29940  Biso   1.000  O
  O8       1.0000 0.38200  0.22470  0.28440  Biso   1.000  O
  O9       1.0000 0.87370  0.07470  0.60100  Biso   1.000  O
  O10      1.0000 0.85150  0.08309  0.46638  Biso   1.000  O
  O11      1.0000 0.53600  0.28900  0.21960  Biso   1.000  O
  O12      1.0000 0.48760  0.44090  0.23780  Biso   1.000  O
  O13      1.0000 0.57000  0.28609  0.41738  Biso   1.000  O
  O14      1.0000 0.54970  0.43150  0.54140  Biso   1.000  O
  O15      1.0000 0.19540  0.11570  0.70060  Biso   1.000  O
  O16      1.0000 0.11800  0.94030  0.71560  Biso   1.000  O
  O17      1.0000 0.37370  0.52630  0.60100  Biso   1.000  O
  O18      1.0000 0.35150  0.38329  0.46638  Biso   1.000  O
  O19      1.0000 0.03600  0.93060  0.21960  Biso   1.000  O
  O20      1.0000 0.98760  0.79690  0.23780  Biso   1.000  O
  O21      1.0000 0.07000  0.13129  0.41738  Biso   1.000  O
  O22      1.0000 0.04970  0.10990  0.54140  Biso   1.000  O
  O23      1.0000 0.69540  0.58490  0.70060  Biso   1.000  O
  O24      1.0000 0.61800  0.77530  0.71560  Biso   1.000  O
  O25      1.0000 0.12630  0.92530  0.39900  Biso   1.000  O
  O26      1.0000 0.14850  0.91691  0.53362  Biso   1.000  O
  O27      1.0000 0.46400  0.71100  0.78040  Biso   1.000  O
  O28      1.0000 0.51240  0.55910  0.76220  Biso   1.000  O
  O29      1.0000 0.43000  0.71391  0.58262  Biso   1.000  O
  O30      1.0000 0.45030  0.56850  0.45860  Biso   1.000  O
  O31      1.0000 0.80460  0.88430  0.29940  Biso   1.000  O
  O32      1.0000 0.88200  0.05970  0.28440  Biso   1.000  O
