data_image0
_cell_length_a       9.6083
_cell_length_b       16.036
_cell_length_c       14.084
_cell_angle_alpha    90
_cell_angle_beta     90
_cell_angle_gamma    90

_symmetry_space_group_name_H-M    "P 1"
_symmetry_int_tables_number       1

loop_
  _symmetry_equiv_pos_as_xyz
  'x, y, z'

loop_
  _atom_site_label
  _atom_site_occupancy
  _atom_site_fract_x
  _atom_site_fract_y
  _atom_site_fract_z
  _atom_site_thermal_displace_type
  _atom_site_B_iso_or_equiv
  _atom_site_type_symbol
  Zn1      1.0000 0.04010  0.42021  0.89320  Biso   1.000  Zn
  O1       1.0000 0.84880  0.39780  0.86170  Biso   1.000  O
  O2       1.0000 0.64840  0.32350  0.80390  Biso   1.000  O
  O3       1.0000 0.83540  0.35687  0.68770  Biso   1.000  O
  O4       1.0000 0.07990  0.53810  0.88780  Biso   1.000  O
  O5       1.0000 0.91290  0.62660  0.98350  Biso   1.000  O
  O6       1.0000 0.05950  0.69019  0.85470  Biso   1.000  O
  P1       1.0000 0.75858  0.38431  0.77600  Biso   1.000  P
  H1       1.0000 0.72000  0.46300  0.75800  Biso   1.000  H
  P2       1.0000 0.98286  0.61216  0.88788  Biso   1.000  P
  H2       1.0000 0.87600  0.60200  0.82800  Biso   1.000  H
  Zn2      1.0000 0.45990  0.07979  0.39320  Biso   1.000  Zn
  O7       1.0000 0.65120  0.10220  0.36170  Biso   1.000  O
  O8       1.0000 0.85160  0.17650  0.30390  Biso   1.000  O
  O9       1.0000 0.66460  0.14313  0.18770  Biso   1.000  O
  O10      1.0000 0.42010  0.96190  0.38780  Biso   1.000  O
  O11      1.0000 0.58710  0.87340  0.48350  Biso   1.000  O
  O12      1.0000 0.44050  0.80981  0.35470  Biso   1.000  O
  P3       1.0000 0.74142  0.11569  0.27600  Biso   1.000  P
  H3       1.0000 0.78000  0.03700  0.25800  Biso   1.000  H
  P4       1.0000 0.51714  0.88784  0.38788  Biso   1.000  P
  H4       1.0000 0.62400  0.89800  0.32800  Biso   1.000  H
  Zn3      1.0000 0.95990  0.42021  0.60680  Biso   1.000  Zn
  O13      1.0000 0.15120  0.39780  0.63830  Biso   1.000  O
  O14      1.0000 0.35160  0.32350  0.69610  Biso   1.000  O
  O15      1.0000 0.16460  0.35687  0.81230  Biso   1.000  O
  O16      1.0000 0.92010  0.53810  0.61220  Biso   1.000  O
  O17      1.0000 0.08710  0.62660  0.51650  Biso   1.000  O
  O18      1.0000 0.94050  0.69019  0.64530  Biso   1.000  O
  P5       1.0000 0.24142  0.38431  0.72400  Biso   1.000  P
  H5       1.0000 0.28000  0.46300  0.74200  Biso   1.000  H
  P6       1.0000 0.01714  0.61216  0.61212  Biso   1.000  P
  H6       1.0000 0.12400  0.60200  0.67200  Biso   1.000  H
  Zn4      1.0000 0.54010  0.07979  0.10680  Biso   1.000  Zn
  O19      1.0000 0.34880  0.10220  0.13830  Biso   1.000  O
  O20      1.0000 0.14840  0.17650  0.19610  Biso   1.000  O
  O21      1.0000 0.33540  0.14313  0.31230  Biso   1.000  O
  O22      1.0000 0.57990  0.96190  0.11220  Biso   1.000  O
  O23      1.0000 0.41290  0.87340  0.01650  Biso   1.000  O
  O24      1.0000 0.55950  0.80981  0.14530  Biso   1.000  O
  P7       1.0000 0.25858  0.11569  0.22400  Biso   1.000  P
  H7       1.0000 0.22000  0.03700  0.24200  Biso   1.000  H
  P8       1.0000 0.48286  0.88784  0.11212  Biso   1.000  P
  H8       1.0000 0.37600  0.89800  0.17200  Biso   1.000  H
  Zn5      1.0000 0.95990  0.57979  0.10680  Biso   1.000  Zn
  O25      1.0000 0.15120  0.60220  0.13830  Biso   1.000  O
  O26      1.0000 0.35160  0.67650  0.19610  Biso   1.000  O
  O27      1.0000 0.16460  0.64313  0.31230  Biso   1.000  O
  O28      1.0000 0.92010  0.46190  0.11220  Biso   1.000  O
  O29      1.0000 0.08710  0.37340  0.01650  Biso   1.000  O
  O30      1.0000 0.94050  0.30981  0.14530  Biso   1.000  O
  P9       1.0000 0.24142  0.61569  0.22400  Biso   1.000  P
  H9       1.0000 0.28000  0.53700  0.24200  Biso   1.000  H
  P10      1.0000 0.01714  0.38784  0.11212  Biso   1.000  P
  H10      1.0000 0.12400  0.39800  0.17200  Biso   1.000  H
  Zn6      1.0000 0.54010  0.92021  0.60680  Biso   1.000  Zn
  O31      1.0000 0.34880  0.89780  0.63830  Biso   1.000  O
  O32      1.0000 0.14840  0.82350  0.69610  Biso   1.000  O
  O33      1.0000 0.33540  0.85687  0.81230  Biso   1.000  O
  O34      1.0000 0.57990  0.03810  0.61220  Biso   1.000  O
  O35      1.0000 0.41290  0.12660  0.51650  Biso   1.000  O
  O36      1.0000 0.55950  0.19019  0.64530  Biso   1.000  O
  P11      1.0000 0.25858  0.88431  0.72400  Biso   1.000  P
  H11      1.0000 0.22000  0.96300  0.74200  Biso   1.000  H
  P12      1.0000 0.48286  0.11216  0.61212  Biso   1.000  P
  H12      1.0000 0.37600  0.10200  0.67200  Biso   1.000  H
  Zn7      1.0000 0.04010  0.57979  0.39320  Biso   1.000  Zn
  O37      1.0000 0.84880  0.60220  0.36170  Biso   1.000  O
  O38      1.0000 0.64840  0.67650  0.30390  Biso   1.000  O
  O39      1.0000 0.83540  0.64313  0.18770  Biso   1.000  O
  O40      1.0000 0.07990  0.46190  0.38780  Biso   1.000  O
  O41      1.0000 0.91290  0.37340  0.48350  Biso   1.000  O
  O42      1.0000 0.05950  0.30981  0.35470  Biso   1.000  O
  P13      1.0000 0.75858  0.61569  0.27600  Biso   1.000  P
  H13      1.0000 0.72000  0.53700  0.25800  Biso   1.000  H
  P14      1.0000 0.98286  0.38784  0.38788  Biso   1.000  P
  H14      1.0000 0.87600  0.39800  0.32800  Biso   1.000  H
  Zn8      1.0000 0.45990  0.92021  0.89320  Biso   1.000  Zn
  O43      1.0000 0.65120  0.89780  0.86170  Biso   1.000  O
  O44      1.0000 0.85160  0.82350  0.80390  Biso   1.000  O
  O45      1.0000 0.66460  0.85687  0.68770  Biso   1.000  O
  O46      1.0000 0.42010  0.03810  0.88780  Biso   1.000  O
  O47      1.0000 0.58710  0.12660  0.98350  Biso   1.000  O
  O48      1.0000 0.44050  0.19019  0.85470  Biso   1.000  O
  P15      1.0000 0.74142  0.88431  0.77600  Biso   1.000  P
  H15      1.0000 0.78000  0.96300  0.75800  Biso   1.000  H
  P16      1.0000 0.51714  0.11216  0.88788  Biso   1.000  P
  H16      1.0000 0.62400  0.10200  0.82800  Biso   1.000  H
  Zn9      1.0000 0.00000  0.76115  0.75000  Biso   1.000  Zn
  Zn10     1.0000 0.50000  0.73885  0.25000  Biso   1.000  Zn
  Zn11     1.0000 0.00000  0.23885  0.25000  Biso   1.000  Zn
  Zn12     1.0000 0.50000  0.26115  0.75000  Biso   1.000  Zn
