data_image0
_cell_length_a       11.1614
_cell_length_b       12.5675
_cell_length_c       31.0577
_cell_angle_alpha    90
_cell_angle_beta     90
_cell_angle_gamma    90

_symmetry_space_group_name_H-M    P 1
_symmetry_int_tables_number       1

loop_
  _symmetry_equiv_pos_as_xyz
  'x, y, z'

loop_
  _atom_site_label
  _atom_site_occupancy
  _atom_site_fract_x
  _atom_site_fract_y
  _atom_site_fract_z
  _atom_site_thermal_displace_type
  _atom_site_B_iso_or_equiv
  _atom_site_type_symbol
  Ag1      1.0000 0.67633  0.62168  0.73436  Biso   1.000  Ag
  Ag2      1.0000 0.81784  0.44155  0.91380  Biso   1.000  Ag
  Ag3      1.0000 0.32367  0.87832  0.23436  Biso   1.000  Ag
  Ag4      1.0000 0.18216  0.05845  0.41380  Biso   1.000  Ag
  Ag5      1.0000 0.17633  0.37832  0.76564  Biso   1.000  Ag
  Ag6      1.0000 0.31784  0.55845  0.58620  Biso   1.000  Ag
  Ag7      1.0000 0.82367  0.12168  0.26564  Biso   1.000  Ag
  Ag8      1.0000 0.68216  0.94155  0.08620  Biso   1.000  Ag
  Ag9      1.0000 0.32367  0.37832  0.26564  Biso   1.000  Ag
  Ag10     1.0000 0.18216  0.55845  0.08620  Biso   1.000  Ag
  Ag11     1.0000 0.67633  0.12168  0.76564  Biso   1.000  Ag
  Ag12     1.0000 0.81784  0.94155  0.58620  Biso   1.000  Ag
  Ag13     1.0000 0.82367  0.62168  0.23436  Biso   1.000  Ag
  Ag14     1.0000 0.68216  0.44155  0.41380  Biso   1.000  Ag
  Ag15     1.0000 0.17633  0.87832  0.73436  Biso   1.000  Ag
  Ag16     1.0000 0.31784  0.05845  0.91380  Biso   1.000  Ag
  H1       1.0000 0.70080  0.07910  0.00310  Biso   1.000  H
  H2       1.0000 0.41000  0.25400  0.97830  Biso   1.000  H
  H3       1.0000 0.32110  0.18160  0.03920  Biso   1.000  H
  H4       1.0000 0.42590  0.06200  0.08040  Biso   1.000  H
  H5       1.0000 0.48840  0.52700  0.66480  Biso   1.000  H
  H6       1.0000 0.49150  0.65000  0.65620  Biso   1.000  H
  H7       1.0000 0.41260  0.73000  0.76000  Biso   1.000  H
  H8       1.0000 0.44500  0.77370  0.71410  Biso   1.000  H
  H9       1.0000 0.41110  0.53840  0.77270  Biso   1.000  H
  H10      1.0000 0.44020  0.46010  0.73480  Biso   1.000  H
  H11      1.0000 0.30660  0.75110  0.65520  Biso   1.000  H
  H12      1.0000 0.18360  0.69330  0.66250  Biso   1.000  H
  H13      1.0000 0.22430  0.63940  0.77200  Biso   1.000  H
  H14      1.0000 0.13320  0.62460  0.73390  Biso   1.000  H
  H15      1.0000 0.29760  0.43770  0.67590  Biso   1.000  H
  H16      1.0000 0.17840  0.50390  0.67550  Biso   1.000  H
  H17      1.0000 0.29920  0.42090  0.50310  Biso   1.000  H
  H18      1.0000 0.59000  0.24600  0.47830  Biso   1.000  H
  H19      1.0000 0.67890  0.31840  0.53920  Biso   1.000  H
  H20      1.0000 0.57410  0.43800  0.58040  Biso   1.000  H
  H21      1.0000 0.51160  0.97300  0.16480  Biso   1.000  H
  H22      1.0000 0.50850  0.85000  0.15620  Biso   1.000  H
  H23      1.0000 0.58740  0.77000  0.26000  Biso   1.000  H
  H24      1.0000 0.55500  0.72630  0.21410  Biso   1.000  H
  H25      1.0000 0.58890  0.96160  0.27270  Biso   1.000  H
  H26      1.0000 0.55980  0.03990  0.23480  Biso   1.000  H
  H27      1.0000 0.69340  0.74890  0.15520  Biso   1.000  H
  H28      1.0000 0.81640  0.80670  0.16250  Biso   1.000  H
  H29      1.0000 0.77570  0.86060  0.27200  Biso   1.000  H
  H30      1.0000 0.86680  0.87540  0.23390  Biso   1.000  H
  H31      1.0000 0.70240  0.06230  0.17590  Biso   1.000  H
  H32      1.0000 0.82160  0.99610  0.17550  Biso   1.000  H
  H33      1.0000 0.20080  0.92090  0.49690  Biso   1.000  H
  H34      1.0000 0.91000  0.74600  0.52170  Biso   1.000  H
  H35      1.0000 0.82110  0.81840  0.46080  Biso   1.000  H
  H36      1.0000 0.92590  0.93800  0.41960  Biso   1.000  H
  H37      1.0000 0.98840  0.47300  0.83520  Biso   1.000  H
  H38      1.0000 0.99150  0.35000  0.84380  Biso   1.000  H
  H39      1.0000 0.91260  0.27000  0.74000  Biso   1.000  H
  H40      1.0000 0.94500  0.22630  0.78590  Biso   1.000  H
  H41      1.0000 0.91110  0.46160  0.72730  Biso   1.000  H
  H42      1.0000 0.94020  0.53990  0.76520  Biso   1.000  H
  H43      1.0000 0.80660  0.24890  0.84480  Biso   1.000  H
  H44      1.0000 0.68360  0.30670  0.83750  Biso   1.000  H
  H45      1.0000 0.72430  0.36060  0.72800  Biso   1.000  H
  H46      1.0000 0.63320  0.37540  0.76610  Biso   1.000  H
  H47      1.0000 0.79760  0.56230  0.82410  Biso   1.000  H
  H48      1.0000 0.67840  0.49610  0.82450  Biso   1.000  H
  H49      1.0000 0.79920  0.57910  0.99690  Biso   1.000  H
  H50      1.0000 0.09000  0.75400  0.02170  Biso   1.000  H
  H51      1.0000 0.17890  0.68160  0.96080  Biso   1.000  H
  H52      1.0000 0.07410  0.56200  0.91960  Biso   1.000  H
  H53      1.0000 0.01160  0.02700  0.33520  Biso   1.000  H
  H54      1.0000 0.00850  0.15000  0.34380  Biso   1.000  H
  H55      1.0000 0.08740  0.23000  0.24000  Biso   1.000  H
  H56      1.0000 0.05500  0.27370  0.28590  Biso   1.000  H
  H57      1.0000 0.08890  0.03840  0.22730  Biso   1.000  H
  H58      1.0000 0.05980  0.96010  0.26520  Biso   1.000  H
  H59      1.0000 0.19340  0.25110  0.34480  Biso   1.000  H
  H60      1.0000 0.31640  0.19330  0.33750  Biso   1.000  H
  H61      1.0000 0.27570  0.13940  0.22800  Biso   1.000  H
  H62      1.0000 0.36680  0.12460  0.26610  Biso   1.000  H
  H63      1.0000 0.20240  0.93770  0.32410  Biso   1.000  H
  H64      1.0000 0.32160  0.00390  0.32450  Biso   1.000  H
  H65      1.0000 0.29920  0.92090  0.99690  Biso   1.000  H
  H66      1.0000 0.59000  0.74600  0.02170  Biso   1.000  H
  H67      1.0000 0.67890  0.81840  0.96080  Biso   1.000  H
  H68      1.0000 0.57410  0.93800  0.91960  Biso   1.000  H
  H69      1.0000 0.51160  0.47300  0.33520  Biso   1.000  H
  H70      1.0000 0.50850  0.35000  0.34380  Biso   1.000  H
  H71      1.0000 0.58740  0.27000  0.24000  Biso   1.000  H
  H72      1.0000 0.55500  0.22630  0.28590  Biso   1.000  H
  H73      1.0000 0.58890  0.46160  0.22730  Biso   1.000  H
  H74      1.0000 0.55980  0.53990  0.26520  Biso   1.000  H
  H75      1.0000 0.69340  0.24890  0.34480  Biso   1.000  H
  H76      1.0000 0.81640  0.30670  0.33750  Biso   1.000  H
  H77      1.0000 0.77570  0.36060  0.22800  Biso   1.000  H
  H78      1.0000 0.86680  0.37540  0.26610  Biso   1.000  H
  H79      1.0000 0.70240  0.56230  0.32410  Biso   1.000  H
  H80      1.0000 0.82160  0.49610  0.32450  Biso   1.000  H
  H81      1.0000 0.70080  0.57910  0.49690  Biso   1.000  H
  H82      1.0000 0.41000  0.75400  0.52170  Biso   1.000  H
  H83      1.0000 0.32110  0.68160  0.46080  Biso   1.000  H
  H84      1.0000 0.42590  0.56200  0.41960  Biso   1.000  H
  H85      1.0000 0.48840  0.02700  0.83520  Biso   1.000  H
  H86      1.0000 0.49150  0.15000  0.84380  Biso   1.000  H
  H87      1.0000 0.41260  0.23000  0.74000  Biso   1.000  H
  H88      1.0000 0.44500  0.27370  0.78590  Biso   1.000  H
  H89      1.0000 0.41110  0.03840  0.72730  Biso   1.000  H
  H90      1.0000 0.44020  0.96010  0.76520  Biso   1.000  H
  H91      1.0000 0.30660  0.25110  0.84480  Biso   1.000  H
  H92      1.0000 0.18360  0.19330  0.83750  Biso   1.000  H
  H93      1.0000 0.22430  0.13940  0.72800  Biso   1.000  H
  H94      1.0000 0.13320  0.12460  0.76610  Biso   1.000  H
  H95      1.0000 0.29760  0.93770  0.82410  Biso   1.000  H
  H96      1.0000 0.17840  0.00390  0.82450  Biso   1.000  H
  H97      1.0000 0.79920  0.07910  0.50310  Biso   1.000  H
  H98      1.0000 0.09000  0.25400  0.47830  Biso   1.000  H
  H99      1.0000 0.17890  0.18160  0.53920  Biso   1.000  H
  H100     1.0000 0.07410  0.06200  0.58040  Biso   1.000  H
  H101     1.0000 0.01160  0.52700  0.16480  Biso   1.000  H
  H102     1.0000 0.00850  0.65000  0.15620  Biso   1.000  H
  H103     1.0000 0.08740  0.73000  0.26000  Biso   1.000  H
  H104     1.0000 0.05500  0.77370  0.21410  Biso   1.000  H
  H105     1.0000 0.08890  0.53840  0.27270  Biso   1.000  H
  H106     1.0000 0.05980  0.46010  0.23480  Biso   1.000  H
  H107     1.0000 0.19340  0.75110  0.15520  Biso   1.000  H
  H108     1.0000 0.31640  0.69330  0.16250  Biso   1.000  H
  H109     1.0000 0.27570  0.63940  0.27200  Biso   1.000  H
  H110     1.0000 0.36680  0.62460  0.23390  Biso   1.000  H
  H111     1.0000 0.20240  0.43770  0.17590  Biso   1.000  H
  H112     1.0000 0.32160  0.50390  0.17550  Biso   1.000  H
  H113     1.0000 0.20080  0.42090  0.00310  Biso   1.000  H
  H114     1.0000 0.91000  0.24600  0.97830  Biso   1.000  H
  H115     1.0000 0.82110  0.31840  0.03920  Biso   1.000  H
  H116     1.0000 0.92590  0.43800  0.08040  Biso   1.000  H
  H117     1.0000 0.98840  0.97300  0.66480  Biso   1.000  H
  H118     1.0000 0.99150  0.85000  0.65620  Biso   1.000  H
  H119     1.0000 0.91260  0.77000  0.76000  Biso   1.000  H
  H120     1.0000 0.94500  0.72630  0.71410  Biso   1.000  H
  H121     1.0000 0.91110  0.96160  0.77270  Biso   1.000  H
  H122     1.0000 0.94020  0.03990  0.73480  Biso   1.000  H
  H123     1.0000 0.80660  0.74890  0.65520  Biso   1.000  H
  H124     1.0000 0.68360  0.80670  0.66250  Biso   1.000  H
  H125     1.0000 0.72430  0.86060  0.77200  Biso   1.000  H
  H126     1.0000 0.63320  0.87540  0.73390  Biso   1.000  H
  H127     1.0000 0.79760  0.06230  0.67590  Biso   1.000  H
  H128     1.0000 0.67840  0.99610  0.67550  Biso   1.000  H
  C1       1.0000 0.62350  0.09990  0.01045  Biso   1.000  C
  C2       1.0000 0.56500  0.17230  0.98440  Biso   1.000  C
  C3       1.0000 0.45070  0.20460  0.99517  Biso   1.000  C
  C4       1.0000 0.39840  0.16200  0.03134  Biso   1.000  C
  C5       1.0000 0.46200  0.08990  0.05588  Biso   1.000  C
  C6       1.0000 0.45080  0.59420  0.67212  Biso   1.000  C
  C7       1.0000 0.40520  0.71640  0.72937  Biso   1.000  C
  C8       1.0000 0.40280  0.52740  0.74191  Biso   1.000  C
  C9       1.0000 0.26740  0.69410  0.67088  Biso   1.000  C
  C10      1.0000 0.21770  0.62660  0.74126  Biso   1.000  C
  C11      1.0000 0.26250  0.50570  0.68343  Biso   1.000  C
  C12      1.0000 0.37650  0.40010  0.51045  Biso   1.000  C
  C13      1.0000 0.43500  0.32770  0.48440  Biso   1.000  C
  C14      1.0000 0.54930  0.29540  0.49517  Biso   1.000  C
  C15      1.0000 0.60160  0.33800  0.53134  Biso   1.000  C
  C16      1.0000 0.53800  0.41010  0.55588  Biso   1.000  C
  C17      1.0000 0.54920  0.90580  0.17212  Biso   1.000  C
  C18      1.0000 0.59480  0.78360  0.22937  Biso   1.000  C
  C19      1.0000 0.59720  0.97260  0.24191  Biso   1.000  C
  C20      1.0000 0.73260  0.80590  0.17088  Biso   1.000  C
  C21      1.0000 0.78230  0.87340  0.24126  Biso   1.000  C
  C22      1.0000 0.73750  0.99430  0.18343  Biso   1.000  C
  C23      1.0000 0.12350  0.90010  0.48955  Biso   1.000  C
  C24      1.0000 0.06500  0.82770  0.51560  Biso   1.000  C
  C25      1.0000 0.95070  0.79540  0.50483  Biso   1.000  C
  C26      1.0000 0.89840  0.83800  0.46866  Biso   1.000  C
  C27      1.0000 0.96200  0.91010  0.44412  Biso   1.000  C
  C28      1.0000 0.95080  0.40580  0.82788  Biso   1.000  C
  C29      1.0000 0.90520  0.28360  0.77063  Biso   1.000  C
  C30      1.0000 0.90280  0.47260  0.75809  Biso   1.000  C
  C31      1.0000 0.76740  0.30590  0.82912  Biso   1.000  C
  C32      1.0000 0.71770  0.37340  0.75874  Biso   1.000  C
  C33      1.0000 0.76250  0.49430  0.81657  Biso   1.000  C
  C34      1.0000 0.87650  0.59990  0.98955  Biso   1.000  C
  C35      1.0000 0.93500  0.67230  0.01560  Biso   1.000  C
  C36      1.0000 0.04930  0.70460  0.00483  Biso   1.000  C
  C37      1.0000 0.10160  0.66200  0.96866  Biso   1.000  C
  C38      1.0000 0.03800  0.58990  0.94412  Biso   1.000  C
  C39      1.0000 0.04920  0.09420  0.32788  Biso   1.000  C
  C40      1.0000 0.09480  0.21640  0.27063  Biso   1.000  C
  C41      1.0000 0.09720  0.02740  0.25809  Biso   1.000  C
  C42      1.0000 0.23260  0.19410  0.32912  Biso   1.000  C
  C43      1.0000 0.28230  0.12660  0.25874  Biso   1.000  C
  C44      1.0000 0.23750  0.00570  0.31657  Biso   1.000  C
  C45      1.0000 0.37650  0.90010  0.98955  Biso   1.000  C
  C46      1.0000 0.43500  0.82770  0.01560  Biso   1.000  C
  C47      1.0000 0.54930  0.79540  0.00483  Biso   1.000  C
  C48      1.0000 0.60160  0.83800  0.96866  Biso   1.000  C
  C49      1.0000 0.53800  0.91010  0.94412  Biso   1.000  C
  C50      1.0000 0.54920  0.40580  0.32788  Biso   1.000  C
  C51      1.0000 0.59480  0.28360  0.27063  Biso   1.000  C
  C52      1.0000 0.59720  0.47260  0.25809  Biso   1.000  C
  C53      1.0000 0.73260  0.30590  0.32912  Biso   1.000  C
  C54      1.0000 0.78230  0.37340  0.25874  Biso   1.000  C
  C55      1.0000 0.73750  0.49430  0.31657  Biso   1.000  C
  C56      1.0000 0.62350  0.59990  0.48955  Biso   1.000  C
  C57      1.0000 0.56500  0.67230  0.51560  Biso   1.000  C
  C58      1.0000 0.45070  0.70460  0.50483  Biso   1.000  C
  C59      1.0000 0.39840  0.66200  0.46866  Biso   1.000  C
  C60      1.0000 0.46200  0.58990  0.44412  Biso   1.000  C
  C61      1.0000 0.45080  0.09420  0.82788  Biso   1.000  C
  C62      1.0000 0.40520  0.21640  0.77063  Biso   1.000  C
  C63      1.0000 0.40280  0.02740  0.75809  Biso   1.000  C
  C64      1.0000 0.26740  0.19410  0.82912  Biso   1.000  C
  C65      1.0000 0.21770  0.12660  0.75874  Biso   1.000  C
  C66      1.0000 0.26250  0.00570  0.81657  Biso   1.000  C
  C67      1.0000 0.87650  0.09990  0.51045  Biso   1.000  C
  C68      1.0000 0.93500  0.17230  0.48440  Biso   1.000  C
  C69      1.0000 0.04930  0.20460  0.49517  Biso   1.000  C
  C70      1.0000 0.10160  0.16200  0.53134  Biso   1.000  C
  C71      1.0000 0.03800  0.08990  0.55588  Biso   1.000  C
  C72      1.0000 0.04920  0.59420  0.17212  Biso   1.000  C
  C73      1.0000 0.09480  0.71640  0.22937  Biso   1.000  C
  C74      1.0000 0.09720  0.52740  0.24191  Biso   1.000  C
  C75      1.0000 0.23260  0.69410  0.17088  Biso   1.000  C
  C76      1.0000 0.28230  0.62660  0.24126  Biso   1.000  C
  C77      1.0000 0.23750  0.50570  0.18343  Biso   1.000  C
  C78      1.0000 0.12350  0.40010  0.01045  Biso   1.000  C
  C79      1.0000 0.06500  0.32770  0.98440  Biso   1.000  C
  C80      1.0000 0.95070  0.29540  0.99517  Biso   1.000  C
  C81      1.0000 0.89840  0.33800  0.03134  Biso   1.000  C
  C82      1.0000 0.96200  0.41010  0.05588  Biso   1.000  C
  C83      1.0000 0.95080  0.90580  0.67212  Biso   1.000  C
  C84      1.0000 0.90520  0.78360  0.72937  Biso   1.000  C
  C85      1.0000 0.90280  0.97260  0.74191  Biso   1.000  C
  C86      1.0000 0.76740  0.80590  0.67088  Biso   1.000  C
  C87      1.0000 0.71770  0.87340  0.74126  Biso   1.000  C
  C88      1.0000 0.76250  0.99430  0.68343  Biso   1.000  C
  S1       1.0000 0.63604  0.22116  0.93752  Biso   1.000  S
  S2       1.0000 0.36396  0.27884  0.43752  Biso   1.000  S
  S3       1.0000 0.13604  0.77884  0.56248  Biso   1.000  S
  S4       1.0000 0.86396  0.72116  0.06248  Biso   1.000  S
  S5       1.0000 0.36396  0.77884  0.06248  Biso   1.000  S
  S6       1.0000 0.63604  0.72116  0.56248  Biso   1.000  S
  S7       1.0000 0.86396  0.22116  0.43752  Biso   1.000  S
  S8       1.0000 0.13604  0.27884  0.93752  Biso   1.000  S
  N1       1.0000 0.57270  0.05820  0.04605  Biso   1.000  N
  N2       1.0000 0.46450  0.61395  0.71877  Biso   1.000  N
  N3       1.0000 0.32330  0.59120  0.65912  Biso   1.000  N
  N4       1.0000 0.27340  0.52270  0.73067  Biso   1.000  N
  N5       1.0000 0.27650  0.71495  0.71740  Biso   1.000  N
  N6       1.0000 0.42730  0.44180  0.54605  Biso   1.000  N
  N7       1.0000 0.53550  0.88605  0.21877  Biso   1.000  N
  N8       1.0000 0.67670  0.90880  0.15912  Biso   1.000  N
  N9       1.0000 0.72660  0.97730  0.23067  Biso   1.000  N
  N10      1.0000 0.72350  0.78505  0.21740  Biso   1.000  N
  N11      1.0000 0.07270  0.94180  0.45395  Biso   1.000  N
  N12      1.0000 0.96450  0.38605  0.78123  Biso   1.000  N
  N13      1.0000 0.82330  0.40880  0.84088  Biso   1.000  N
  N14      1.0000 0.77340  0.47730  0.76933  Biso   1.000  N
  N15      1.0000 0.77650  0.28505  0.78260  Biso   1.000  N
  N16      1.0000 0.92730  0.55820  0.95395  Biso   1.000  N
  N17      1.0000 0.03550  0.11395  0.28123  Biso   1.000  N
  N18      1.0000 0.17670  0.09120  0.34088  Biso   1.000  N
  N19      1.0000 0.22660  0.02270  0.26933  Biso   1.000  N
  N20      1.0000 0.22350  0.21495  0.28260  Biso   1.000  N
  N21      1.0000 0.42730  0.94180  0.95395  Biso   1.000  N
  N22      1.0000 0.53550  0.38605  0.28123  Biso   1.000  N
  N23      1.0000 0.67670  0.40880  0.34088  Biso   1.000  N
  N24      1.0000 0.72660  0.47730  0.26933  Biso   1.000  N
  N25      1.0000 0.72350  0.28505  0.28260  Biso   1.000  N
  N26      1.0000 0.57270  0.55820  0.45395  Biso   1.000  N
  N27      1.0000 0.46450  0.11395  0.78123  Biso   1.000  N
  N28      1.0000 0.32330  0.09120  0.84088  Biso   1.000  N
  N29      1.0000 0.27340  0.02270  0.76933  Biso   1.000  N
  N30      1.0000 0.27650  0.21495  0.78260  Biso   1.000  N
  N31      1.0000 0.92730  0.05820  0.54605  Biso   1.000  N
  N32      1.0000 0.03550  0.61395  0.21877  Biso   1.000  N
  N33      1.0000 0.17670  0.59120  0.15912  Biso   1.000  N
  N34      1.0000 0.22660  0.52270  0.23067  Biso   1.000  N
  N35      1.0000 0.22350  0.71495  0.21740  Biso   1.000  N
  N36      1.0000 0.07270  0.44180  0.04605  Biso   1.000  N
  N37      1.0000 0.96450  0.88605  0.71877  Biso   1.000  N
  N38      1.0000 0.82330  0.90880  0.65912  Biso   1.000  N
  N39      1.0000 0.77340  0.97730  0.73067  Biso   1.000  N
  N40      1.0000 0.77650  0.78505  0.71740  Biso   1.000  N
  O1       1.0000 0.71020  0.13500  0.92187  Biso   1.000  O
  O2       1.0000 0.54050  0.25120  0.90856  Biso   1.000  O
  O3       1.0000 0.70560  0.31080  0.95252  Biso   1.000  O
  O4       1.0000 0.28980  0.36500  0.42187  Biso   1.000  O
  O5       1.0000 0.45950  0.24880  0.40856  Biso   1.000  O
  O6       1.0000 0.29440  0.18920  0.45252  Biso   1.000  O
  O7       1.0000 0.21020  0.86500  0.57813  Biso   1.000  O
  O8       1.0000 0.04050  0.74880  0.59144  Biso   1.000  O
  O9       1.0000 0.20560  0.68920  0.54748  Biso   1.000  O
  O10      1.0000 0.78980  0.63500  0.07813  Biso   1.000  O
  O11      1.0000 0.95950  0.75120  0.09144  Biso   1.000  O
  O12      1.0000 0.79440  0.81080  0.04748  Biso   1.000  O
  O13      1.0000 0.28980  0.86500  0.07813  Biso   1.000  O
  O14      1.0000 0.45950  0.74880  0.09144  Biso   1.000  O
  O15      1.0000 0.29440  0.68920  0.04748  Biso   1.000  O
  O16      1.0000 0.71020  0.63500  0.57813  Biso   1.000  O
  O17      1.0000 0.54050  0.75120  0.59144  Biso   1.000  O
  O18      1.0000 0.70560  0.81080  0.54748  Biso   1.000  O
  O19      1.0000 0.78980  0.13500  0.42187  Biso   1.000  O
  O20      1.0000 0.95950  0.25120  0.40856  Biso   1.000  O
  O21      1.0000 0.79440  0.31080  0.45252  Biso   1.000  O
  O22      1.0000 0.21020  0.36500  0.92187  Biso   1.000  O
  O23      1.0000 0.04050  0.24880  0.90856  Biso   1.000  O
  O24      1.0000 0.20560  0.18920  0.95252  Biso   1.000  O
