data_image0
_cell_length_a       11.346
_cell_length_b       11.759
_cell_length_c       11.963
_cell_angle_alpha    119.437
_cell_angle_beta     90
_cell_angle_gamma    90

_symmetry_space_group_name_H-M    P 1
_symmetry_int_tables_number       1

loop_
  _symmetry_equiv_pos_as_xyz
  'x, y, z'

loop_
  _atom_site_label
  _atom_site_occupancy
  _atom_site_fract_x
  _atom_site_fract_y
  _atom_site_fract_z
  _atom_site_thermal_displace_type
  _atom_site_B_iso_or_equiv
  _atom_site_type_symbol
  Ag1      1.0000 0.52492  0.14113  0.49262  Biso   1.000  Ag
  Ag2      1.0000 0.02492  0.85887  0.50738  Biso   1.000  Ag
  Ag3      1.0000 0.02492  0.35149  0.49262  Biso   1.000  Ag
  Ag4      1.0000 0.52492  0.64851  0.50738  Biso   1.000  Ag
  Ag5      1.0000 0.70176  0.17392  1.00000  Biso   1.000  Ag
  Ag6      1.0000 0.20176  0.82608  1.00000  Biso   1.000  Ag
  H1       1.0000 0.81880  0.08680  0.57140  Biso   1.000  H
  H2       1.0000 0.77510  0.95780  0.45180  Biso   1.000  H
  H3       1.0000 0.58120  0.87090  0.45720  Biso   1.000  H
  H4       1.0000 0.50250  0.94510  0.58020  Biso   1.000  H
  H5       1.0000 0.57120  0.14210  0.76020  Biso   1.000  H
  H6       1.0000 0.69560  0.19850  0.75660  Biso   1.000  H
  H7       1.0000 0.66640  0.87120  0.78100  Biso   1.000  H
  H8       1.0000 0.55350  0.94520  0.77480  Biso   1.000  H
  H9       1.0000 0.86200  0.95780  0.77500  Biso   1.000  H
  H10      1.0000 0.87260  0.08640  0.76660  Biso   1.000  H
  H11      1.0000 0.79250  0.75930  0.59280  Biso   1.000  H
  H12      1.0000 0.75840  0.75820  0.46520  Biso   1.000  H
  H13      1.0000 0.31880  0.91320  0.42860  Biso   1.000  H
  H14      1.0000 0.27510  0.04220  0.54820  Biso   1.000  H
  H15      1.0000 0.08120  0.12910  0.54280  Biso   1.000  H
  H16      1.0000 0.00250  0.05490  0.41980  Biso   1.000  H
  H17      1.0000 0.07120  0.85790  0.23980  Biso   1.000  H
  H18      1.0000 0.19560  0.80150  0.24340  Biso   1.000  H
  H19      1.0000 0.16640  0.12880  0.21900  Biso   1.000  H
  H20      1.0000 0.05350  0.05480  0.22520  Biso   1.000  H
  H21      1.0000 0.36200  0.04220  0.22500  Biso   1.000  H
  H22      1.0000 0.37260  0.91360  0.23340  Biso   1.000  H
  H23      1.0000 0.29250  0.24070  0.40720  Biso   1.000  H
  H24      1.0000 0.25840  0.24180  0.53480  Biso   1.000  H
  H25      1.0000 0.31880  0.48460  0.57140  Biso   1.000  H
  H26      1.0000 0.27510  0.49400  0.45180  Biso   1.000  H
  H27      1.0000 0.08120  0.58630  0.45720  Biso   1.000  H
  H28      1.0000 0.00250  0.63510  0.58020  Biso   1.000  H
  H29      1.0000 0.07120  0.61810  0.76020  Biso   1.000  H
  H30      1.0000 0.19560  0.55810  0.75660  Biso   1.000  H
  H31      1.0000 0.16640  0.90980  0.78100  Biso   1.000  H
  H32      1.0000 0.05350  0.82960  0.77480  Biso   1.000  H
  H33      1.0000 0.36200  0.81720  0.77500  Biso   1.000  H
  H34      1.0000 0.37260  0.68020  0.76660  Biso   1.000  H
  H35      1.0000 0.29250  0.83350  0.59280  Biso   1.000  H
  H36      1.0000 0.25840  0.70700  0.46520  Biso   1.000  H
  H37      1.0000 0.81880  0.51540  0.42860  Biso   1.000  H
  H38      1.0000 0.77510  0.50600  0.54820  Biso   1.000  H
  H39      1.0000 0.58120  0.41370  0.54280  Biso   1.000  H
  H40      1.0000 0.50250  0.36490  0.41980  Biso   1.000  H
  H41      1.0000 0.57120  0.38190  0.23980  Biso   1.000  H
  H42      1.0000 0.69560  0.44190  0.24340  Biso   1.000  H
  H43      1.0000 0.66640  0.09020  0.21900  Biso   1.000  H
  H44      1.0000 0.55350  0.17040  0.22520  Biso   1.000  H
  H45      1.0000 0.86200  0.18280  0.22500  Biso   1.000  H
  H46      1.0000 0.87260  0.31980  0.23340  Biso   1.000  H
  H47      1.0000 0.79250  0.16650  0.40720  Biso   1.000  H
  H48      1.0000 0.75840  0.29300  0.53480  Biso   1.000  H
  C1       1.0000 0.77360  0.00760  0.54480  Biso   1.000  C
  C2       1.0000 0.58300  0.92231  0.55022  Biso   1.000  C
  C3       1.0000 0.65140  0.11854  0.72948  Biso   1.000  C
  C4       1.0000 0.63390  0.92197  0.74434  Biso   1.000  C
  C5       1.0000 0.82640  0.00768  0.73896  Biso   1.000  C
  C6       1.0000 0.75760  0.81058  0.55796  Biso   1.000  C
  C7       1.0000 0.27360  0.99240  0.45520  Biso   1.000  C
  C8       1.0000 0.08300  0.07769  0.44978  Biso   1.000  C
  C9       1.0000 0.15140  0.88146  0.27052  Biso   1.000  C
  C10      1.0000 0.13390  0.07803  0.25566  Biso   1.000  C
  C11      1.0000 0.32640  0.99232  0.26104  Biso   1.000  C
  C12      1.0000 0.25760  0.18942  0.44204  Biso   1.000  C
  C13      1.0000 0.27360  0.53720  0.54480  Biso   1.000  C
  C14      1.0000 0.08300  0.62791  0.55022  Biso   1.000  C
  C15      1.0000 0.15140  0.61094  0.72948  Biso   1.000  C
  C16      1.0000 0.13390  0.82237  0.74434  Biso   1.000  C
  C17      1.0000 0.32640  0.73128  0.73896  Biso   1.000  C
  C18      1.0000 0.25760  0.74738  0.55796  Biso   1.000  C
  C19      1.0000 0.77360  0.46280  0.45520  Biso   1.000  C
  C20      1.0000 0.58300  0.37209  0.44978  Biso   1.000  C
  C21      1.0000 0.65140  0.38906  0.27052  Biso   1.000  C
  C22      1.0000 0.63390  0.17763  0.25566  Biso   1.000  C
  C23      1.0000 0.82640  0.26872  0.26104  Biso   1.000  C
  C24      1.0000 0.75760  0.25262  0.44204  Biso   1.000  C
  N1       1.0000 0.65090  0.04232  0.58844  Biso   1.000  N
  N2       1.0000 0.70510  0.04338  0.78760  Biso   1.000  N
  N3       1.0000 0.63420  0.84260  0.60300  Biso   1.000  N
  N4       1.0000 0.82920  0.92975  0.59750  Biso   1.000  N
  N5       1.0000 0.15090  0.95768  0.41156  Biso   1.000  N
  N6       1.0000 0.20510  0.95662  0.21240  Biso   1.000  N
  N7       1.0000 0.13420  0.15740  0.39700  Biso   1.000  N
  N8       1.0000 0.32920  0.07025  0.40250  Biso   1.000  N
  N9       1.0000 0.15090  0.54612  0.58844  Biso   1.000  N
  N10      1.0000 0.20510  0.74422  0.78760  Biso   1.000  N
  N11      1.0000 0.13420  0.76040  0.60300  Biso   1.000  N
  N12      1.0000 0.32920  0.66775  0.59750  Biso   1.000  N
  N13      1.0000 0.65090  0.45388  0.41156  Biso   1.000  N
  N14      1.0000 0.70510  0.25578  0.21240  Biso   1.000  N
  N15      1.0000 0.63420  0.23960  0.39700  Biso   1.000  N
  N16      1.0000 0.82920  0.33225  0.40250  Biso   1.000  N
