data_image0
_cell_length_a       18.087
_cell_length_b       24.867
_cell_length_c       17.611
_cell_angle_alpha    90
_cell_angle_beta     90
_cell_angle_gamma    90

_symmetry_space_group_name_H-M    "P 1"
_symmetry_int_tables_number       1

loop_
  _symmetry_equiv_pos_as_xyz
  'x, y, z'

loop_
  _atom_site_label
  _atom_site_occupancy
  _atom_site_fract_x
  _atom_site_fract_y
  _atom_site_fract_z
  _atom_site_thermal_displace_type
  _atom_site_B_iso_or_equiv
  _atom_site_type_symbol
  Zn1      1.0000 0.03642  0.56437  0.18593  Biso   1.000  Zn
  Zn2      1.0000 0.93714  0.31804  0.24036  Biso   1.000  Zn
  C1       1.0000 0.02470  0.51710  0.34190  Biso   1.000  C
  C2       1.0000 0.83530  0.18390  0.26830  Biso   1.000  C
  C3       1.0000 0.98500  0.43840  0.17860  Biso   1.000  C
  C4       1.0000 0.03800  0.44100  0.97230  Biso   1.000  C
  H1       1.0000 0.08100  0.44730  0.94260  Biso   1.000  H
  C5       1.0000 0.91560  0.41770  0.97890  Biso   1.000  C
  H2       1.0000 0.87040  0.40830  0.95480  Biso   1.000  H
  C6       1.0000 0.09390  0.13260  0.30050  Biso   1.000  C
  C7       1.0000 0.96670  0.39020  0.36750  Biso   1.000  C
  C8       1.0000 0.02960  0.16830  0.29090  Biso   1.000  C
  C9       1.0000 0.97820  0.42230  0.29850  Biso   1.000  C
  C10      1.0000 0.02390  0.22280  0.27600  Biso   1.000  C
  C11      1.0000 0.00410  0.47410  0.28840  Biso   1.000  C
  C12      1.0000 0.91310  0.18920  0.27680  Biso   1.000  C
  C13      1.0000 0.98150  0.43250  0.09440  Biso   1.000  C
  C14      1.0000 0.04370  0.44340  0.04970  Biso   1.000  C
  H3       1.0000 0.08940  0.45250  0.07290  Biso   1.000  H
  C15      1.0000 0.91740  0.41800  0.05770  Biso   1.000  C
  H4       1.0000 0.87470  0.40820  0.08600  Biso   1.000  H
  C16      1.0000 0.71170  0.17750  0.31380  Biso   1.000  C
  H5       1.0000 0.68120  0.17550  0.35760  Biso   1.000  H
  C17      1.0000 0.19060  0.53450  0.22160  Biso   1.000  C
  H6       1.0000 0.17290  0.53030  0.27210  Biso   1.000  H
  C18      1.0000 0.08020  0.26440  0.26590  Biso   1.000  C
  C19      1.0000 0.30750  0.50570  0.26840  Biso   1.000  C
  H7       1.0000 0.27980  0.50450  0.31620  Biso   1.000  H
  H8       1.0000 0.34880  0.53100  0.27330  Biso   1.000  H
  H9       1.0000 0.32680  0.46980  0.25670  Biso   1.000  H
  C20      1.0000 0.79980  0.18390  0.20300  Biso   1.000  C
  H10      1.0000 0.82890  0.18480  0.15810  Biso   1.000  H
  C21      1.0000 0.93060  0.27410  0.97340  Biso   1.000  C
  H11      1.0000 0.91870  0.23580  0.96810  Biso   1.000  H
  H12      1.0000 0.93800  0.28990  0.92300  Biso   1.000  H
  H13      1.0000 0.88980  0.29250  0.99920  Biso   1.000  H
  C22      1.0000 0.99190  0.29260  0.08790  Biso   1.000  C
  H14      1.0000 0.03720  0.29590  0.11480  Biso   1.000  H
  C23      1.0000 0.72140  0.18280  0.19350  Biso   1.000  C
  H15      1.0000 0.70020  0.18630  0.14440  Biso   1.000  H
  C24      1.0000 0.28810  0.52990  0.13090  Biso   1.000  C
  H16      1.0000 0.31390  0.49700  0.11530  Biso   1.000  H
  H17      1.0000 0.32260  0.56030  0.12980  Biso   1.000  H
  H18      1.0000 0.24700  0.53690  0.09610  Biso   1.000  H
  C25      1.0000 0.07070  0.27360  0.97780  Biso   1.000  C
  H19      1.0000 0.11030  0.28420  0.01270  Biso   1.000  H
  H20      1.0000 0.07210  0.29660  0.93260  Biso   1.000  H
  H21      1.0000 0.07750  0.23600  0.96260  Biso   1.000  H
  C26      1.0000 0.78620  0.18040  0.32390  Biso   1.000  C
  H22      1.0000 0.80430  0.18000  0.37460  Biso   1.000  H
  N1       1.0000 0.99660  0.27990  0.01700  Biso   1.000  N
  N2       1.0000 0.96510  0.40000  0.22820  Biso   1.000  N
  N3       1.0000 0.00930  0.48420  0.21180  Biso   1.000  N
  N4       1.0000 0.95960  0.14820  0.29240  Biso   1.000  N
  N5       1.0000 0.95180  0.23640  0.26620  Biso   1.000  N
  N6       1.0000 0.68120  0.17720  0.25010  Biso   1.000  N
  N7       1.0000 0.25940  0.52300  0.20810  Biso   1.000  N
  N8       1.0000 0.97220  0.42960  0.93550  Biso   1.000  N
  O1       1.0000 0.94690  0.34220  0.35960  Biso   1.000  O
  O2       1.0000 0.97780  0.41260  0.43200  Biso   1.000  O
  O3       1.0000 0.04500  0.56090  0.31690  Biso   1.000  O
  O4       1.0000 0.01760  0.50740  0.41340  Biso   1.000  O
  H23      1.0000 0.97260  0.50340  0.42390  Biso   1.000  H
  O5       1.0000 0.08060  0.08450  0.30850  Biso   1.000  O
  O6       1.0000 0.15860  0.15350  0.30090  Biso   1.000  O
  O7       1.0000 0.06320  0.31010  0.24620  Biso   1.000  O
  O8       1.0000 0.14870  0.25100  0.27810  Biso   1.000  O
  H24      1.0000 0.17090  0.24800  0.23640  Biso   1.000  H
  O9       1.0000 0.14660  0.55060  0.17270  Biso   1.000  O
  O10      1.0000 0.93480  0.30070  0.12440  Biso   1.000  O
  Zn3      1.0000 0.46358  0.93563  0.18593  Biso   1.000  Zn
  Zn4      1.0000 0.56286  0.18196  0.24036  Biso   1.000  Zn
  C27      1.0000 0.47530  0.98290  0.34190  Biso   1.000  C
  C28      1.0000 0.66470  0.31610  0.26830  Biso   1.000  C
  C29      1.0000 0.51500  0.06160  0.17860  Biso   1.000  C
  C30      1.0000 0.46200  0.05900  0.97230  Biso   1.000  C
  H25      1.0000 0.41900  0.05270  0.94260  Biso   1.000  H
  C31      1.0000 0.58440  0.08230  0.97890  Biso   1.000  C
  H26      1.0000 0.62960  0.09170  0.95480  Biso   1.000  H
  C32      1.0000 0.40610  0.36740  0.30050  Biso   1.000  C
  C33      1.0000 0.53330  0.10980  0.36750  Biso   1.000  C
  C34      1.0000 0.47040  0.33170  0.29090  Biso   1.000  C
  C35      1.0000 0.52180  0.07770  0.29850  Biso   1.000  C
  C36      1.0000 0.47610  0.27720  0.27600  Biso   1.000  C
  C37      1.0000 0.49590  0.02590  0.28840  Biso   1.000  C
  C38      1.0000 0.58690  0.31080  0.27680  Biso   1.000  C
  C39      1.0000 0.51850  0.06750  0.09440  Biso   1.000  C
  C40      1.0000 0.45630  0.05660  0.04970  Biso   1.000  C
  H27      1.0000 0.41060  0.04750  0.07290  Biso   1.000  H
  C41      1.0000 0.58260  0.08200  0.05770  Biso   1.000  C
  H28      1.0000 0.62530  0.09180  0.08600  Biso   1.000  H
  C42      1.0000 0.78830  0.32250  0.31380  Biso   1.000  C
  H29      1.0000 0.81880  0.32450  0.35760  Biso   1.000  H
  C43      1.0000 0.30940  0.96550  0.22160  Biso   1.000  C
  H30      1.0000 0.32710  0.96970  0.27210  Biso   1.000  H
  C44      1.0000 0.41980  0.23560  0.26590  Biso   1.000  C
  C45      1.0000 0.19250  0.99430  0.26840  Biso   1.000  C
  H31      1.0000 0.22020  0.99550  0.31620  Biso   1.000  H
  H32      1.0000 0.15120  0.96900  0.27330  Biso   1.000  H
  H33      1.0000 0.17320  0.03020  0.25670  Biso   1.000  H
  C46      1.0000 0.70020  0.31610  0.20300  Biso   1.000  C
  H34      1.0000 0.67110  0.31520  0.15810  Biso   1.000  H
  C47      1.0000 0.56940  0.22590  0.97340  Biso   1.000  C
  H35      1.0000 0.58130  0.26420  0.96810  Biso   1.000  H
  H36      1.0000 0.56200  0.21010  0.92300  Biso   1.000  H
  H37      1.0000 0.61020  0.20750  0.99920  Biso   1.000  H
  C48      1.0000 0.50810  0.20740  0.08790  Biso   1.000  C
  H38      1.0000 0.46280  0.20410  0.11480  Biso   1.000  H
  C49      1.0000 0.77860  0.31720  0.19350  Biso   1.000  C
  H39      1.0000 0.79980  0.31370  0.14440  Biso   1.000  H
  C50      1.0000 0.21190  0.97010  0.13090  Biso   1.000  C
  H40      1.0000 0.18610  0.00300  0.11530  Biso   1.000  H
  H41      1.0000 0.17740  0.93970  0.12980  Biso   1.000  H
  H42      1.0000 0.25300  0.96310  0.09610  Biso   1.000  H
  C51      1.0000 0.42930  0.22640  0.97780  Biso   1.000  C
  H43      1.0000 0.38970  0.21580  0.01270  Biso   1.000  H
  H44      1.0000 0.42790  0.20340  0.93260  Biso   1.000  H
  H45      1.0000 0.42250  0.26400  0.96260  Biso   1.000  H
  C52      1.0000 0.71380  0.31960  0.32390  Biso   1.000  C
  H46      1.0000 0.69570  0.32000  0.37460  Biso   1.000  H
  N9       1.0000 0.50340  0.22010  0.01700  Biso   1.000  N
  N10      1.0000 0.53490  0.10000  0.22820  Biso   1.000  N
  N11      1.0000 0.49070  0.01580  0.21180  Biso   1.000  N
  N12      1.0000 0.54040  0.35180  0.29240  Biso   1.000  N
  N13      1.0000 0.54820  0.26360  0.26620  Biso   1.000  N
  N14      1.0000 0.81880  0.32280  0.25010  Biso   1.000  N
  N15      1.0000 0.24060  0.97700  0.20810  Biso   1.000  N
  N16      1.0000 0.52780  0.07040  0.93550  Biso   1.000  N
  O11      1.0000 0.55310  0.15780  0.35960  Biso   1.000  O
  O12      1.0000 0.52220  0.08740  0.43200  Biso   1.000  O
  O13      1.0000 0.45500  0.93910  0.31690  Biso   1.000  O
  O14      1.0000 0.48240  0.99260  0.41340  Biso   1.000  O
  H47      1.0000 0.52740  0.99660  0.42390  Biso   1.000  H
  O15      1.0000 0.41940  0.41550  0.30850  Biso   1.000  O
  O16      1.0000 0.34140  0.34650  0.30090  Biso   1.000  O
  O17      1.0000 0.43680  0.18990  0.24620  Biso   1.000  O
  O18      1.0000 0.35130  0.24900  0.27810  Biso   1.000  O
  H48      1.0000 0.32910  0.25200  0.23640  Biso   1.000  H
  O19      1.0000 0.35340  0.94940  0.17270  Biso   1.000  O
  O20      1.0000 0.56520  0.19930  0.12440  Biso   1.000  O
  Zn5      1.0000 0.96358  0.06437  0.31407  Biso   1.000  Zn
  Zn6      1.0000 0.06286  0.81804  0.25964  Biso   1.000  Zn
  C53      1.0000 0.97530  0.01710  0.15810  Biso   1.000  C
  C54      1.0000 0.16470  0.68390  0.23170  Biso   1.000  C
  C55      1.0000 0.01500  0.93840  0.32140  Biso   1.000  C
  C56      1.0000 0.96200  0.94100  0.52770  Biso   1.000  C
  H49      1.0000 0.91900  0.94730  0.55740  Biso   1.000  H
  C57      1.0000 0.08440  0.91770  0.52110  Biso   1.000  C
  H50      1.0000 0.12960  0.90830  0.54520  Biso   1.000  H
  C58      1.0000 0.90610  0.63260  0.19950  Biso   1.000  C
  C59      1.0000 0.03330  0.89020  0.13250  Biso   1.000  C
  C60      1.0000 0.97040  0.66830  0.20910  Biso   1.000  C
  C61      1.0000 0.02180  0.92230  0.20150  Biso   1.000  C
  C62      1.0000 0.97610  0.72280  0.22400  Biso   1.000  C
  C63      1.0000 0.99590  0.97410  0.21160  Biso   1.000  C
  C64      1.0000 0.08690  0.68920  0.22320  Biso   1.000  C
  C65      1.0000 0.01850  0.93250  0.40560  Biso   1.000  C
  C66      1.0000 0.95630  0.94340  0.45030  Biso   1.000  C
  H51      1.0000 0.91060  0.95250  0.42710  Biso   1.000  H
  C67      1.0000 0.08260  0.91800  0.44230  Biso   1.000  C
  H52      1.0000 0.12530  0.90820  0.41400  Biso   1.000  H
  C68      1.0000 0.28830  0.67750  0.18620  Biso   1.000  C
  H53      1.0000 0.31880  0.67550  0.14240  Biso   1.000  H
  C69      1.0000 0.80940  0.03450  0.27840  Biso   1.000  C
  H54      1.0000 0.82710  0.03030  0.22790  Biso   1.000  H
  C70      1.0000 0.91980  0.76440  0.23410  Biso   1.000  C
  C71      1.0000 0.69250  0.00570  0.23160  Biso   1.000  C
  H55      1.0000 0.72020  0.00450  0.18380  Biso   1.000  H
  H56      1.0000 0.65120  0.03100  0.22670  Biso   1.000  H
  H57      1.0000 0.67320  0.96980  0.24330  Biso   1.000  H
  C72      1.0000 0.20020  0.68390  0.29700  Biso   1.000  C
  H58      1.0000 0.17110  0.68480  0.34190  Biso   1.000  H
  C73      1.0000 0.06940  0.77410  0.52660  Biso   1.000  C
  H59      1.0000 0.08130  0.73580  0.53190  Biso   1.000  H
  H60      1.0000 0.06200  0.78990  0.57700  Biso   1.000  H
  H61      1.0000 0.11020  0.79250  0.50080  Biso   1.000  H
  C74      1.0000 0.00810  0.79260  0.41210  Biso   1.000  C
  H62      1.0000 0.96280  0.79590  0.38520  Biso   1.000  H
  C75      1.0000 0.27860  0.68280  0.30650  Biso   1.000  C
  H63      1.0000 0.29980  0.68630  0.35560  Biso   1.000  H
  C76      1.0000 0.71190  0.02990  0.36910  Biso   1.000  C
  H64      1.0000 0.68610  0.99700  0.38470  Biso   1.000  H
  H65      1.0000 0.67740  0.06030  0.37020  Biso   1.000  H
  H66      1.0000 0.75300  0.03690  0.40390  Biso   1.000  H
  C77      1.0000 0.92930  0.77360  0.52220  Biso   1.000  C
  H67      1.0000 0.88970  0.78420  0.48730  Biso   1.000  H
  H68      1.0000 0.92790  0.79660  0.56740  Biso   1.000  H
  H69      1.0000 0.92250  0.73600  0.53740  Biso   1.000  H
  C78      1.0000 0.21380  0.68040  0.17610  Biso   1.000  C
  H70      1.0000 0.19570  0.68000  0.12540  Biso   1.000  H
  N17      1.0000 0.00340  0.77990  0.48300  Biso   1.000  N
  N18      1.0000 0.03490  0.90000  0.27180  Biso   1.000  N
  N19      1.0000 0.99070  0.98420  0.28820  Biso   1.000  N
  N20      1.0000 0.04040  0.64820  0.20760  Biso   1.000  N
  N21      1.0000 0.04820  0.73640  0.23380  Biso   1.000  N
  N22      1.0000 0.31880  0.67720  0.24990  Biso   1.000  N
  N23      1.0000 0.74060  0.02300  0.29190  Biso   1.000  N
  N24      1.0000 0.02780  0.92960  0.56450  Biso   1.000  N
  O21      1.0000 0.05310  0.84220  0.14040  Biso   1.000  O
  O22      1.0000 0.02220  0.91260  0.06800  Biso   1.000  O
  O23      1.0000 0.95500  0.06090  0.18310  Biso   1.000  O
  O24      1.0000 0.98240  0.00740  0.08660  Biso   1.000  O
  H71      1.0000 0.02740  0.00340  0.07610  Biso   1.000  H
  O25      1.0000 0.91940  0.58450  0.19150  Biso   1.000  O
  O26      1.0000 0.84140  0.65350  0.19910  Biso   1.000  O
  O27      1.0000 0.93680  0.81010  0.25380  Biso   1.000  O
  O28      1.0000 0.85130  0.75100  0.22190  Biso   1.000  O
  H72      1.0000 0.82910  0.74800  0.26360  Biso   1.000  H
  O29      1.0000 0.85340  0.05060  0.32730  Biso   1.000  O
  O30      1.0000 0.06520  0.80070  0.37560  Biso   1.000  O
  Zn7      1.0000 0.53642  0.43563  0.31407  Biso   1.000  Zn
  Zn8      1.0000 0.43714  0.68196  0.25964  Biso   1.000  Zn
  C79      1.0000 0.52470  0.48290  0.15810  Biso   1.000  C
  C80      1.0000 0.33530  0.81610  0.23170  Biso   1.000  C
  C81      1.0000 0.48500  0.56160  0.32140  Biso   1.000  C
  C82      1.0000 0.53800  0.55900  0.52770  Biso   1.000  C
  H73      1.0000 0.58100  0.55270  0.55740  Biso   1.000  H
  C83      1.0000 0.41560  0.58230  0.52110  Biso   1.000  C
  H74      1.0000 0.37040  0.59170  0.54520  Biso   1.000  H
  C84      1.0000 0.59390  0.86740  0.19950  Biso   1.000  C
  C85      1.0000 0.46670  0.60980  0.13250  Biso   1.000  C
  C86      1.0000 0.52960  0.83170  0.20910  Biso   1.000  C
  C87      1.0000 0.47820  0.57770  0.20150  Biso   1.000  C
  C88      1.0000 0.52390  0.77720  0.22400  Biso   1.000  C
  C89      1.0000 0.50410  0.52590  0.21160  Biso   1.000  C
  C90      1.0000 0.41310  0.81080  0.22320  Biso   1.000  C
  C91      1.0000 0.48150  0.56750  0.40560  Biso   1.000  C
  C92      1.0000 0.54370  0.55660  0.45030  Biso   1.000  C
  H75      1.0000 0.58940  0.54750  0.42710  Biso   1.000  H
  C93      1.0000 0.41740  0.58200  0.44230  Biso   1.000  C
  H76      1.0000 0.37470  0.59180  0.41400  Biso   1.000  H
  C94      1.0000 0.21170  0.82250  0.18620  Biso   1.000  C
  H77      1.0000 0.18120  0.82450  0.14240  Biso   1.000  H
  C95      1.0000 0.69060  0.46550  0.27840  Biso   1.000  C
  H78      1.0000 0.67290  0.46970  0.22790  Biso   1.000  H
  C96      1.0000 0.58020  0.73560  0.23410  Biso   1.000  C
  C97      1.0000 0.80750  0.49430  0.23160  Biso   1.000  C
  H79      1.0000 0.77980  0.49550  0.18380  Biso   1.000  H
  H80      1.0000 0.84880  0.46900  0.22670  Biso   1.000  H
  H81      1.0000 0.82680  0.53020  0.24330  Biso   1.000  H
  C98      1.0000 0.29980  0.81610  0.29700  Biso   1.000  C
  H82      1.0000 0.32890  0.81520  0.34190  Biso   1.000  H
  C99      1.0000 0.43060  0.72590  0.52660  Biso   1.000  C
  H83      1.0000 0.41870  0.76420  0.53190  Biso   1.000  H
  H84      1.0000 0.43800  0.71010  0.57700  Biso   1.000  H
  H85      1.0000 0.38980  0.70750  0.50080  Biso   1.000  H
  C100     1.0000 0.49190  0.70740  0.41210  Biso   1.000  C
  H86      1.0000 0.53720  0.70410  0.38520  Biso   1.000  H
  C101     1.0000 0.22140  0.81720  0.30650  Biso   1.000  C
  H87      1.0000 0.20020  0.81370  0.35560  Biso   1.000  H
  C102     1.0000 0.78810  0.47010  0.36910  Biso   1.000  C
  H88      1.0000 0.81390  0.50300  0.38470  Biso   1.000  H
  H89      1.0000 0.82260  0.43970  0.37020  Biso   1.000  H
  H90      1.0000 0.74700  0.46310  0.40390  Biso   1.000  H
  C103     1.0000 0.57070  0.72640  0.52220  Biso   1.000  C
  H91      1.0000 0.61030  0.71580  0.48730  Biso   1.000  H
  H92      1.0000 0.57210  0.70340  0.56740  Biso   1.000  H
  H93      1.0000 0.57750  0.76400  0.53740  Biso   1.000  H
  C104     1.0000 0.28620  0.81960  0.17610  Biso   1.000  C
  H94      1.0000 0.30430  0.82000  0.12540  Biso   1.000  H
  N25      1.0000 0.49660  0.72010  0.48300  Biso   1.000  N
  N26      1.0000 0.46510  0.60000  0.27180  Biso   1.000  N
  N27      1.0000 0.50930  0.51580  0.28820  Biso   1.000  N
  N28      1.0000 0.45960  0.85180  0.20760  Biso   1.000  N
  N29      1.0000 0.45180  0.76360  0.23380  Biso   1.000  N
  N30      1.0000 0.18120  0.82280  0.24990  Biso   1.000  N
  N31      1.0000 0.75940  0.47700  0.29190  Biso   1.000  N
  N32      1.0000 0.47220  0.57040  0.56450  Biso   1.000  N
  O31      1.0000 0.44690  0.65780  0.14040  Biso   1.000  O
  O32      1.0000 0.47780  0.58740  0.06800  Biso   1.000  O
  O33      1.0000 0.54500  0.43910  0.18310  Biso   1.000  O
  O34      1.0000 0.51760  0.49260  0.08660  Biso   1.000  O
  H95      1.0000 0.47260  0.49660  0.07610  Biso   1.000  H
  O35      1.0000 0.58060  0.91550  0.19150  Biso   1.000  O
  O36      1.0000 0.65860  0.84650  0.19910  Biso   1.000  O
  O37      1.0000 0.56320  0.68990  0.25380  Biso   1.000  O
  O38      1.0000 0.64870  0.74900  0.22190  Biso   1.000  O
  H96      1.0000 0.67090  0.75200  0.26360  Biso   1.000  H
  O39      1.0000 0.64660  0.44940  0.32730  Biso   1.000  O
  O40      1.0000 0.43480  0.69930  0.37560  Biso   1.000  O
  Zn9      1.0000 0.96358  0.43563  0.81407  Biso   1.000  Zn
  Zn10     1.0000 0.06286  0.68196  0.75964  Biso   1.000  Zn
  C105     1.0000 0.97530  0.48290  0.65810  Biso   1.000  C
  C106     1.0000 0.16470  0.81610  0.73170  Biso   1.000  C
  C107     1.0000 0.01500  0.56160  0.82140  Biso   1.000  C
  C108     1.0000 0.96200  0.55900  0.02770  Biso   1.000  C
  H97      1.0000 0.91900  0.55270  0.05740  Biso   1.000  H
  C109     1.0000 0.08440  0.58230  0.02110  Biso   1.000  C
  H98      1.0000 0.12960  0.59170  0.04520  Biso   1.000  H
  C110     1.0000 0.90610  0.86740  0.69950  Biso   1.000  C
  C111     1.0000 0.03330  0.60980  0.63250  Biso   1.000  C
  C112     1.0000 0.97040  0.83170  0.70910  Biso   1.000  C
  C113     1.0000 0.02180  0.57770  0.70150  Biso   1.000  C
  C114     1.0000 0.97610  0.77720  0.72400  Biso   1.000  C
  C115     1.0000 0.99590  0.52590  0.71160  Biso   1.000  C
  C116     1.0000 0.08690  0.81080  0.72320  Biso   1.000  C
  C117     1.0000 0.01850  0.56750  0.90560  Biso   1.000  C
  C118     1.0000 0.95630  0.55660  0.95030  Biso   1.000  C
  H99      1.0000 0.91060  0.54750  0.92710  Biso   1.000  H
  C119     1.0000 0.08260  0.58200  0.94230  Biso   1.000  C
  H100     1.0000 0.12530  0.59180  0.91400  Biso   1.000  H
  C120     1.0000 0.28830  0.82250  0.68620  Biso   1.000  C
  H101     1.0000 0.31880  0.82450  0.64240  Biso   1.000  H
  C121     1.0000 0.80940  0.46550  0.77840  Biso   1.000  C
  H102     1.0000 0.82710  0.46970  0.72790  Biso   1.000  H
  C122     1.0000 0.91980  0.73560  0.73410  Biso   1.000  C
  C123     1.0000 0.69250  0.49430  0.73160  Biso   1.000  C
  H103     1.0000 0.72020  0.49550  0.68380  Biso   1.000  H
  H104     1.0000 0.65120  0.46900  0.72670  Biso   1.000  H
  H105     1.0000 0.67320  0.53020  0.74330  Biso   1.000  H
  C124     1.0000 0.20020  0.81610  0.79700  Biso   1.000  C
  H106     1.0000 0.17110  0.81520  0.84190  Biso   1.000  H
  C125     1.0000 0.06940  0.72590  0.02660  Biso   1.000  C
  H107     1.0000 0.08130  0.76420  0.03190  Biso   1.000  H
  H108     1.0000 0.06200  0.71010  0.07700  Biso   1.000  H
  H109     1.0000 0.11020  0.70750  0.00080  Biso   1.000  H
  C126     1.0000 0.00810  0.70740  0.91210  Biso   1.000  C
  H110     1.0000 0.96280  0.70410  0.88520  Biso   1.000  H
  C127     1.0000 0.27860  0.81720  0.80650  Biso   1.000  C
  H111     1.0000 0.29980  0.81370  0.85560  Biso   1.000  H
  C128     1.0000 0.71190  0.47010  0.86910  Biso   1.000  C
  H112     1.0000 0.68610  0.50300  0.88470  Biso   1.000  H
  H113     1.0000 0.67740  0.43970  0.87020  Biso   1.000  H
  H114     1.0000 0.75300  0.46310  0.90390  Biso   1.000  H
  C129     1.0000 0.92930  0.72640  0.02220  Biso   1.000  C
  H115     1.0000 0.88970  0.71580  0.98730  Biso   1.000  H
  H116     1.0000 0.92790  0.70340  0.06740  Biso   1.000  H
  H117     1.0000 0.92250  0.76400  0.03740  Biso   1.000  H
  C130     1.0000 0.21380  0.81960  0.67610  Biso   1.000  C
  H118     1.0000 0.19570  0.82000  0.62540  Biso   1.000  H
  N33      1.0000 0.00340  0.72010  0.98300  Biso   1.000  N
  N34      1.0000 0.03490  0.60000  0.77180  Biso   1.000  N
  N35      1.0000 0.99070  0.51580  0.78820  Biso   1.000  N
  N36      1.0000 0.04040  0.85180  0.70760  Biso   1.000  N
  N37      1.0000 0.04820  0.76360  0.73380  Biso   1.000  N
  N38      1.0000 0.31880  0.82280  0.74990  Biso   1.000  N
  N39      1.0000 0.74060  0.47700  0.79190  Biso   1.000  N
  N40      1.0000 0.02780  0.57040  0.06450  Biso   1.000  N
  O41      1.0000 0.05310  0.65780  0.64040  Biso   1.000  O
  O42      1.0000 0.02220  0.58740  0.56800  Biso   1.000  O
  O43      1.0000 0.95500  0.43910  0.68310  Biso   1.000  O
  O44      1.0000 0.98240  0.49260  0.58660  Biso   1.000  O
  H119     1.0000 0.02740  0.49660  0.57610  Biso   1.000  H
  O45      1.0000 0.91940  0.91550  0.69150  Biso   1.000  O
  O46      1.0000 0.84140  0.84650  0.69910  Biso   1.000  O
  O47      1.0000 0.93680  0.68990  0.75380  Biso   1.000  O
  O48      1.0000 0.85130  0.74900  0.72190  Biso   1.000  O
  H120     1.0000 0.82910  0.75200  0.76360  Biso   1.000  H
  O49      1.0000 0.85340  0.44940  0.82730  Biso   1.000  O
  O50      1.0000 0.06520  0.69930  0.87560  Biso   1.000  O
  Zn11     1.0000 0.53642  0.06437  0.81407  Biso   1.000  Zn
  Zn12     1.0000 0.43714  0.81804  0.75964  Biso   1.000  Zn
  C131     1.0000 0.52470  0.01710  0.65810  Biso   1.000  C
  C132     1.0000 0.33530  0.68390  0.73170  Biso   1.000  C
  C133     1.0000 0.48500  0.93840  0.82140  Biso   1.000  C
  C134     1.0000 0.53800  0.94100  0.02770  Biso   1.000  C
  H121     1.0000 0.58100  0.94730  0.05740  Biso   1.000  H
  C135     1.0000 0.41560  0.91770  0.02110  Biso   1.000  C
  H122     1.0000 0.37040  0.90830  0.04520  Biso   1.000  H
  C136     1.0000 0.59390  0.63260  0.69950  Biso   1.000  C
  C137     1.0000 0.46670  0.89020  0.63250  Biso   1.000  C
  C138     1.0000 0.52960  0.66830  0.70910  Biso   1.000  C
  C139     1.0000 0.47820  0.92230  0.70150  Biso   1.000  C
  C140     1.0000 0.52390  0.72280  0.72400  Biso   1.000  C
  C141     1.0000 0.50410  0.97410  0.71160  Biso   1.000  C
  C142     1.0000 0.41310  0.68920  0.72320  Biso   1.000  C
  C143     1.0000 0.48150  0.93250  0.90560  Biso   1.000  C
  C144     1.0000 0.54370  0.94340  0.95030  Biso   1.000  C
  H123     1.0000 0.58940  0.95250  0.92710  Biso   1.000  H
  C145     1.0000 0.41740  0.91800  0.94230  Biso   1.000  C
  H124     1.0000 0.37470  0.90820  0.91400  Biso   1.000  H
  C146     1.0000 0.21170  0.67750  0.68620  Biso   1.000  C
  H125     1.0000 0.18120  0.67550  0.64240  Biso   1.000  H
  C147     1.0000 0.69060  0.03450  0.77840  Biso   1.000  C
  H126     1.0000 0.67290  0.03030  0.72790  Biso   1.000  H
  C148     1.0000 0.58020  0.76440  0.73410  Biso   1.000  C
  C149     1.0000 0.80750  0.00570  0.73160  Biso   1.000  C
  H127     1.0000 0.77980  0.00450  0.68380  Biso   1.000  H
  H128     1.0000 0.84880  0.03100  0.72670  Biso   1.000  H
  H129     1.0000 0.82680  0.96980  0.74330  Biso   1.000  H
  C150     1.0000 0.29980  0.68390  0.79700  Biso   1.000  C
  H130     1.0000 0.32890  0.68480  0.84190  Biso   1.000  H
  C151     1.0000 0.43060  0.77410  0.02660  Biso   1.000  C
  H131     1.0000 0.41870  0.73580  0.03190  Biso   1.000  H
  H132     1.0000 0.43800  0.78990  0.07700  Biso   1.000  H
  H133     1.0000 0.38980  0.79250  0.00080  Biso   1.000  H
  C152     1.0000 0.49190  0.79260  0.91210  Biso   1.000  C
  H134     1.0000 0.53720  0.79590  0.88520  Biso   1.000  H
  C153     1.0000 0.22140  0.68280  0.80650  Biso   1.000  C
  H135     1.0000 0.20020  0.68630  0.85560  Biso   1.000  H
  C154     1.0000 0.78810  0.02990  0.86910  Biso   1.000  C
  H136     1.0000 0.81390  0.99700  0.88470  Biso   1.000  H
  H137     1.0000 0.82260  0.06030  0.87020  Biso   1.000  H
  H138     1.0000 0.74700  0.03690  0.90390  Biso   1.000  H
  C155     1.0000 0.57070  0.77360  0.02220  Biso   1.000  C
  H139     1.0000 0.61030  0.78420  0.98730  Biso   1.000  H
  H140     1.0000 0.57210  0.79660  0.06740  Biso   1.000  H
  H141     1.0000 0.57750  0.73600  0.03740  Biso   1.000  H
  C156     1.0000 0.28620  0.68040  0.67610  Biso   1.000  C
  H142     1.0000 0.30430  0.68000  0.62540  Biso   1.000  H
  N41      1.0000 0.49660  0.77990  0.98300  Biso   1.000  N
  N42      1.0000 0.46510  0.90000  0.77180  Biso   1.000  N
  N43      1.0000 0.50930  0.98420  0.78820  Biso   1.000  N
  N44      1.0000 0.45960  0.64820  0.70760  Biso   1.000  N
  N45      1.0000 0.45180  0.73640  0.73380  Biso   1.000  N
  N46      1.0000 0.18120  0.67720  0.74990  Biso   1.000  N
  N47      1.0000 0.75940  0.02300  0.79190  Biso   1.000  N
  N48      1.0000 0.47220  0.92960  0.06450  Biso   1.000  N
  O51      1.0000 0.44690  0.84220  0.64040  Biso   1.000  O
  O52      1.0000 0.47780  0.91260  0.56800  Biso   1.000  O
  O53      1.0000 0.54500  0.06090  0.68310  Biso   1.000  O
  O54      1.0000 0.51760  0.00740  0.58660  Biso   1.000  O
  H143     1.0000 0.47260  0.00340  0.57610  Biso   1.000  H
  O55      1.0000 0.58060  0.58450  0.69150  Biso   1.000  O
  O56      1.0000 0.65860  0.65350  0.69910  Biso   1.000  O
  O57      1.0000 0.56320  0.81010  0.75380  Biso   1.000  O
  O58      1.0000 0.64870  0.75100  0.72190  Biso   1.000  O
  H144     1.0000 0.67090  0.74800  0.76360  Biso   1.000  H
  O59      1.0000 0.64660  0.05060  0.82730  Biso   1.000  O
  O60      1.0000 0.43480  0.80070  0.87560  Biso   1.000  O
  Zn13     1.0000 0.03642  0.93563  0.68593  Biso   1.000  Zn
  Zn14     1.0000 0.93714  0.18196  0.74036  Biso   1.000  Zn
  C157     1.0000 0.02470  0.98290  0.84190  Biso   1.000  C
  C158     1.0000 0.83530  0.31610  0.76830  Biso   1.000  C
  C159     1.0000 0.98500  0.06160  0.67860  Biso   1.000  C
  C160     1.0000 0.03800  0.05900  0.47230  Biso   1.000  C
  H145     1.0000 0.08100  0.05270  0.44260  Biso   1.000  H
  C161     1.0000 0.91560  0.08230  0.47890  Biso   1.000  C
  H146     1.0000 0.87040  0.09170  0.45480  Biso   1.000  H
  C162     1.0000 0.09390  0.36740  0.80050  Biso   1.000  C
  C163     1.0000 0.96670  0.10980  0.86750  Biso   1.000  C
  C164     1.0000 0.02960  0.33170  0.79090  Biso   1.000  C
  C165     1.0000 0.97820  0.07770  0.79850  Biso   1.000  C
  C166     1.0000 0.02390  0.27720  0.77600  Biso   1.000  C
  C167     1.0000 0.00410  0.02590  0.78840  Biso   1.000  C
  C168     1.0000 0.91310  0.31080  0.77680  Biso   1.000  C
  C169     1.0000 0.98150  0.06750  0.59440  Biso   1.000  C
  C170     1.0000 0.04370  0.05660  0.54970  Biso   1.000  C
  H147     1.0000 0.08940  0.04750  0.57290  Biso   1.000  H
  C171     1.0000 0.91740  0.08200  0.55770  Biso   1.000  C
  H148     1.0000 0.87470  0.09180  0.58600  Biso   1.000  H
  C172     1.0000 0.71170  0.32250  0.81380  Biso   1.000  C
  H149     1.0000 0.68120  0.32450  0.85760  Biso   1.000  H
  C173     1.0000 0.19060  0.96550  0.72160  Biso   1.000  C
  H150     1.0000 0.17290  0.96970  0.77210  Biso   1.000  H
  C174     1.0000 0.08020  0.23560  0.76590  Biso   1.000  C
  C175     1.0000 0.30750  0.99430  0.76840  Biso   1.000  C
  H151     1.0000 0.27980  0.99550  0.81620  Biso   1.000  H
  H152     1.0000 0.34880  0.96900  0.77330  Biso   1.000  H
  H153     1.0000 0.32680  0.03020  0.75670  Biso   1.000  H
  C176     1.0000 0.79980  0.31610  0.70300  Biso   1.000  C
  H154     1.0000 0.82890  0.31520  0.65810  Biso   1.000  H
  C177     1.0000 0.93060  0.22590  0.47340  Biso   1.000  C
  H155     1.0000 0.91870  0.26420  0.46810  Biso   1.000  H
  H156     1.0000 0.93800  0.21010  0.42300  Biso   1.000  H
  H157     1.0000 0.88980  0.20750  0.49920  Biso   1.000  H
  C178     1.0000 0.99190  0.20740  0.58790  Biso   1.000  C
  H158     1.0000 0.03720  0.20410  0.61480  Biso   1.000  H
  C179     1.0000 0.72140  0.31720  0.69350  Biso   1.000  C
  H159     1.0000 0.70020  0.31370  0.64440  Biso   1.000  H
  C180     1.0000 0.28810  0.97010  0.63090  Biso   1.000  C
  H160     1.0000 0.31390  0.00300  0.61530  Biso   1.000  H
  H161     1.0000 0.32260  0.93970  0.62980  Biso   1.000  H
  H162     1.0000 0.24700  0.96310  0.59610  Biso   1.000  H
  C181     1.0000 0.07070  0.22640  0.47780  Biso   1.000  C
  H163     1.0000 0.11030  0.21580  0.51270  Biso   1.000  H
  H164     1.0000 0.07210  0.20340  0.43260  Biso   1.000  H
  H165     1.0000 0.07750  0.26400  0.46260  Biso   1.000  H
  C182     1.0000 0.78620  0.31960  0.82390  Biso   1.000  C
  H166     1.0000 0.80430  0.32000  0.87460  Biso   1.000  H
  N49      1.0000 0.99660  0.22010  0.51700  Biso   1.000  N
  N50      1.0000 0.96510  0.10000  0.72820  Biso   1.000  N
  N51      1.0000 0.00930  0.01580  0.71180  Biso   1.000  N
  N52      1.0000 0.95960  0.35180  0.79240  Biso   1.000  N
  N53      1.0000 0.95180  0.26360  0.76620  Biso   1.000  N
  N54      1.0000 0.68120  0.32280  0.75010  Biso   1.000  N
  N55      1.0000 0.25940  0.97700  0.70810  Biso   1.000  N
  N56      1.0000 0.97220  0.07040  0.43550  Biso   1.000  N
  O61      1.0000 0.94690  0.15780  0.85960  Biso   1.000  O
  O62      1.0000 0.97780  0.08740  0.93200  Biso   1.000  O
  O63      1.0000 0.04500  0.93910  0.81690  Biso   1.000  O
  O64      1.0000 0.01760  0.99260  0.91340  Biso   1.000  O
  H167     1.0000 0.97260  0.99660  0.92390  Biso   1.000  H
  O65      1.0000 0.08060  0.41550  0.80850  Biso   1.000  O
  O66      1.0000 0.15860  0.34650  0.80090  Biso   1.000  O
  O67      1.0000 0.06320  0.18990  0.74620  Biso   1.000  O
  O68      1.0000 0.14870  0.24900  0.77810  Biso   1.000  O
  H168     1.0000 0.17090  0.25200  0.73640  Biso   1.000  H
  O69      1.0000 0.14660  0.94940  0.67270  Biso   1.000  O
  O70      1.0000 0.93480  0.19930  0.62440  Biso   1.000  O
  Zn15     1.0000 0.46358  0.56437  0.68593  Biso   1.000  Zn
  Zn16     1.0000 0.56286  0.31804  0.74036  Biso   1.000  Zn
  C183     1.0000 0.47530  0.51710  0.84190  Biso   1.000  C
  C184     1.0000 0.66470  0.18390  0.76830  Biso   1.000  C
  C185     1.0000 0.51500  0.43840  0.67860  Biso   1.000  C
  C186     1.0000 0.46200  0.44100  0.47230  Biso   1.000  C
  H169     1.0000 0.41900  0.44730  0.44260  Biso   1.000  H
  C187     1.0000 0.58440  0.41770  0.47890  Biso   1.000  C
  H170     1.0000 0.62960  0.40830  0.45480  Biso   1.000  H
  C188     1.0000 0.40610  0.13260  0.80050  Biso   1.000  C
  C189     1.0000 0.53330  0.39020  0.86750  Biso   1.000  C
  C190     1.0000 0.47040  0.16830  0.79090  Biso   1.000  C
  C191     1.0000 0.52180  0.42230  0.79850  Biso   1.000  C
  C192     1.0000 0.47610  0.22280  0.77600  Biso   1.000  C
  C193     1.0000 0.49590  0.47410  0.78840  Biso   1.000  C
  C194     1.0000 0.58690  0.18920  0.77680  Biso   1.000  C
  C195     1.0000 0.51850  0.43250  0.59440  Biso   1.000  C
  C196     1.0000 0.45630  0.44340  0.54970  Biso   1.000  C
  H171     1.0000 0.41060  0.45250  0.57290  Biso   1.000  H
  C197     1.0000 0.58260  0.41800  0.55770  Biso   1.000  C
  H172     1.0000 0.62530  0.40820  0.58600  Biso   1.000  H
  C198     1.0000 0.78830  0.17750  0.81380  Biso   1.000  C
  H173     1.0000 0.81880  0.17550  0.85760  Biso   1.000  H
  C199     1.0000 0.30940  0.53450  0.72160  Biso   1.000  C
  H174     1.0000 0.32710  0.53030  0.77210  Biso   1.000  H
  C200     1.0000 0.41980  0.26440  0.76590  Biso   1.000  C
  C201     1.0000 0.19250  0.50570  0.76840  Biso   1.000  C
  H175     1.0000 0.22020  0.50450  0.81620  Biso   1.000  H
  H176     1.0000 0.15120  0.53100  0.77330  Biso   1.000  H
  H177     1.0000 0.17320  0.46980  0.75670  Biso   1.000  H
  C202     1.0000 0.70020  0.18390  0.70300  Biso   1.000  C
  H178     1.0000 0.67110  0.18480  0.65810  Biso   1.000  H
  C203     1.0000 0.56940  0.27410  0.47340  Biso   1.000  C
  H179     1.0000 0.58130  0.23580  0.46810  Biso   1.000  H
  H180     1.0000 0.56200  0.28990  0.42300  Biso   1.000  H
  H181     1.0000 0.61020  0.29250  0.49920  Biso   1.000  H
  C204     1.0000 0.50810  0.29260  0.58790  Biso   1.000  C
  H182     1.0000 0.46280  0.29590  0.61480  Biso   1.000  H
  C205     1.0000 0.77860  0.18280  0.69350  Biso   1.000  C
  H183     1.0000 0.79980  0.18630  0.64440  Biso   1.000  H
  C206     1.0000 0.21190  0.52990  0.63090  Biso   1.000  C
  H184     1.0000 0.18610  0.49700  0.61530  Biso   1.000  H
  H185     1.0000 0.17740  0.56030  0.62980  Biso   1.000  H
  H186     1.0000 0.25300  0.53690  0.59610  Biso   1.000  H
  C207     1.0000 0.42930  0.27360  0.47780  Biso   1.000  C
  H187     1.0000 0.38970  0.28420  0.51270  Biso   1.000  H
  H188     1.0000 0.42790  0.29660  0.43260  Biso   1.000  H
  H189     1.0000 0.42250  0.23600  0.46260  Biso   1.000  H
  C208     1.0000 0.71380  0.18040  0.82390  Biso   1.000  C
  H190     1.0000 0.69570  0.18000  0.87460  Biso   1.000  H
  N57      1.0000 0.50340  0.27990  0.51700  Biso   1.000  N
  N58      1.0000 0.53490  0.40000  0.72820  Biso   1.000  N
  N59      1.0000 0.49070  0.48420  0.71180  Biso   1.000  N
  N60      1.0000 0.54040  0.14820  0.79240  Biso   1.000  N
  N61      1.0000 0.54820  0.23640  0.76620  Biso   1.000  N
  N62      1.0000 0.81880  0.17720  0.75010  Biso   1.000  N
  N63      1.0000 0.24060  0.52300  0.70810  Biso   1.000  N
  N64      1.0000 0.52780  0.42960  0.43550  Biso   1.000  N
  O71      1.0000 0.55310  0.34220  0.85960  Biso   1.000  O
  O72      1.0000 0.52220  0.41260  0.93200  Biso   1.000  O
  O73      1.0000 0.45500  0.56090  0.81690  Biso   1.000  O
  O74      1.0000 0.48240  0.50740  0.91340  Biso   1.000  O
  H191     1.0000 0.52740  0.50340  0.92390  Biso   1.000  H
  O75      1.0000 0.41940  0.08450  0.80850  Biso   1.000  O
  O76      1.0000 0.34140  0.15350  0.80090  Biso   1.000  O
  O77      1.0000 0.43680  0.31010  0.74620  Biso   1.000  O
  O78      1.0000 0.35130  0.25100  0.77810  Biso   1.000  O
  H192     1.0000 0.32910  0.24800  0.73640  Biso   1.000  H
  O79      1.0000 0.35340  0.55060  0.67270  Biso   1.000  O
  O80      1.0000 0.56520  0.30070  0.62440  Biso   1.000  O
