data_image0
_cell_length_a       10.248
_cell_length_b       11.715
_cell_length_c       15.159
_cell_angle_alpha    91.81
_cell_angle_beta     90
_cell_angle_gamma    90

_symmetry_space_group_name_H-M    P 1
_symmetry_int_tables_number       1

loop_
  _symmetry_equiv_pos_as_xyz
  'x, y, z'

loop_
  _atom_site_label
  _atom_site_occupancy
  _atom_site_fract_x
  _atom_site_fract_y
  _atom_site_fract_z
  _atom_site_thermal_displace_type
  _atom_site_B_iso_or_equiv
  _atom_site_type_symbol
  Mn1      1.0000 0.92306  0.24309  0.86786  Biso   1.000  Mn
  Mn2      1.0000 0.11206  0.26155  0.69035  Biso   1.000  Mn
  Mn3      1.0000 0.42306  0.25691  0.63214  Biso   1.000  Mn
  Mn4      1.0000 0.61206  0.23845  0.80965  Biso   1.000  Mn
  Mn5      1.0000 0.07694  0.75691  0.13214  Biso   1.000  Mn
  Mn6      1.0000 0.88794  0.73845  0.30965  Biso   1.000  Mn
  Mn7      1.0000 0.57694  0.74309  0.36786  Biso   1.000  Mn
  Mn8      1.0000 0.38794  0.76155  0.19035  Biso   1.000  Mn
  Mn9      1.0000 0.00000  0.50000  0.00000  Biso   1.000  Mn
  Mn10     1.0000 0.50000  0.00000  0.50000  Biso   1.000  Mn
  Mn11     1.0000 0.00000  0.00000  0.00000  Biso   1.000  Mn
  Mn12     1.0000 0.50000  0.50000  0.50000  Biso   1.000  Mn
  H1       1.0000 0.04290  0.51930  0.74260  Biso   1.000  H
  H2       1.0000 0.71090  0.00020  0.97380  Biso   1.000  H
  H3       1.0000 0.20720  0.03220  0.78200  Biso   1.000  H
  H4       1.0000 0.76460  0.14830  0.63240  Biso   1.000  H
  H5       1.0000 0.13810  0.30230  0.07860  Biso   1.000  H
  H6       1.0000 0.62530  0.44690  0.94580  Biso   1.000  H
  H7       1.0000 0.54290  0.98070  0.75740  Biso   1.000  H
  H8       1.0000 0.21090  0.49980  0.52620  Biso   1.000  H
  H9       1.0000 0.70720  0.46780  0.71800  Biso   1.000  H
  H10      1.0000 0.26460  0.35170  0.86760  Biso   1.000  H
  H11      1.0000 0.63810  0.19770  0.42140  Biso   1.000  H
  H12      1.0000 0.12530  0.05310  0.55420  Biso   1.000  H
  H13      1.0000 0.95710  0.48070  0.25740  Biso   1.000  H
  H14      1.0000 0.28910  0.99980  0.02620  Biso   1.000  H
  H15      1.0000 0.79280  0.96780  0.21800  Biso   1.000  H
  H16      1.0000 0.23540  0.85170  0.36760  Biso   1.000  H
  H17      1.0000 0.86190  0.69770  0.92140  Biso   1.000  H
  H18      1.0000 0.37470  0.55310  0.05420  Biso   1.000  H
  H19      1.0000 0.45710  0.01930  0.24260  Biso   1.000  H
  H20      1.0000 0.78910  0.50020  0.47380  Biso   1.000  H
  H21      1.0000 0.29280  0.53220  0.28200  Biso   1.000  H
  H22      1.0000 0.73540  0.64830  0.13240  Biso   1.000  H
  H23      1.0000 0.36190  0.80230  0.57860  Biso   1.000  H
  H24      1.0000 0.87470  0.94690  0.44580  Biso   1.000  H
  C1       1.0000 0.02420  0.47960  0.79410  Biso   1.000  C
  C2       1.0000 0.72760  0.06250  0.93780  Biso   1.000  C
  C3       1.0000 0.14100  0.05620  0.82130  Biso   1.000  C
  C4       1.0000 0.83190  0.17650  0.66910  Biso   1.000  C
  C5       1.0000 0.09090  0.25820  0.03670  Biso   1.000  C
  C6       1.0000 0.71420  0.42760  0.94170  Biso   1.000  C
  C7       1.0000 0.52420  0.02040  0.70590  Biso   1.000  C
  C8       1.0000 0.22760  0.43750  0.56220  Biso   1.000  C
  C9       1.0000 0.64100  0.44380  0.67870  Biso   1.000  C
  C10      1.0000 0.33190  0.32350  0.83090  Biso   1.000  C
  C11      1.0000 0.59090  0.24180  0.46330  Biso   1.000  C
  C12      1.0000 0.21420  0.07240  0.55830  Biso   1.000  C
  C13      1.0000 0.97580  0.52040  0.20590  Biso   1.000  C
  C14      1.0000 0.27240  0.93750  0.06220  Biso   1.000  C
  C15      1.0000 0.85900  0.94380  0.17870  Biso   1.000  C
  C16      1.0000 0.16810  0.82350  0.33090  Biso   1.000  C
  C17      1.0000 0.90910  0.74180  0.96330  Biso   1.000  C
  C18      1.0000 0.28580  0.57240  0.05830  Biso   1.000  C
  C19      1.0000 0.47580  0.97960  0.29410  Biso   1.000  C
  C20      1.0000 0.77240  0.56250  0.43780  Biso   1.000  C
  C21      1.0000 0.35900  0.55620  0.32130  Biso   1.000  C
  C22      1.0000 0.66810  0.67650  0.16910  Biso   1.000  C
  C23      1.0000 0.40910  0.75820  0.53670  Biso   1.000  C
  C24      1.0000 0.78580  0.92760  0.44170  Biso   1.000  C
  O1       1.0000 0.08450  0.14960  0.80496  Biso   1.000  O
  O2       1.0000 0.01180  0.37240  0.78529  Biso   1.000  O
  O3       1.0000 0.80450  0.19390  0.75047  Biso   1.000  O
  O4       1.0000 0.02540  0.31250  0.98059  Biso   1.000  O
  O5       1.0000 0.74460  0.34400  0.88975  Biso   1.000  O
  O6       1.0000 0.93860  0.19330  0.63431  Biso   1.000  O
  O7       1.0000 0.84460  0.09800  0.93512  Biso   1.000  O
  O8       1.0000 0.79120  0.48520  0.98700  Biso   1.000  O
  O9       1.0000 0.63380  0.10180  0.89787  Biso   1.000  O
  O10      1.0000 0.09890  0.15460  0.04190  Biso   1.000  O
  O11      1.0000 0.01440  0.53650  0.86213  Biso   1.000  O
  O12      1.0000 0.11820  0.99400  0.88280  Biso   1.000  O
  O13      1.0000 0.58450  0.35040  0.69504  Biso   1.000  O
  O14      1.0000 0.51180  0.12760  0.71471  Biso   1.000  O
  O15      1.0000 0.30450  0.30610  0.74953  Biso   1.000  O
  O16      1.0000 0.52540  0.18750  0.51941  Biso   1.000  O
  O17      1.0000 0.24460  0.15600  0.61025  Biso   1.000  O
  O18      1.0000 0.43860  0.30670  0.86569  Biso   1.000  O
  O19      1.0000 0.34460  0.40200  0.56488  Biso   1.000  O
  O20      1.0000 0.29120  0.01480  0.51300  Biso   1.000  O
  O21      1.0000 0.13380  0.39820  0.60213  Biso   1.000  O
  O22      1.0000 0.59890  0.34540  0.45810  Biso   1.000  O
  O23      1.0000 0.51440  0.96350  0.63787  Biso   1.000  O
  O24      1.0000 0.61820  0.50600  0.61720  Biso   1.000  O
  O25      1.0000 0.91550  0.85040  0.19504  Biso   1.000  O
  O26      1.0000 0.98820  0.62760  0.21471  Biso   1.000  O
  O27      1.0000 0.19550  0.80610  0.24953  Biso   1.000  O
  O28      1.0000 0.97460  0.68750  0.01941  Biso   1.000  O
  O29      1.0000 0.25540  0.65600  0.11025  Biso   1.000  O
  O30      1.0000 0.06140  0.80670  0.36569  Biso   1.000  O
  O31      1.0000 0.15540  0.90200  0.06488  Biso   1.000  O
  O32      1.0000 0.20880  0.51480  0.01300  Biso   1.000  O
  O33      1.0000 0.36620  0.89820  0.10213  Biso   1.000  O
  O34      1.0000 0.90110  0.84540  0.95810  Biso   1.000  O
  O35      1.0000 0.98560  0.46350  0.13787  Biso   1.000  O
  O36      1.0000 0.88180  0.00600  0.11720  Biso   1.000  O
  O37      1.0000 0.41550  0.64960  0.30496  Biso   1.000  O
  O38      1.0000 0.48820  0.87240  0.28529  Biso   1.000  O
  O39      1.0000 0.69550  0.69390  0.25047  Biso   1.000  O
  O40      1.0000 0.47460  0.81250  0.48059  Biso   1.000  O
  O41      1.0000 0.75540  0.84400  0.38975  Biso   1.000  O
  O42      1.0000 0.56140  0.69330  0.13431  Biso   1.000  O
  O43      1.0000 0.65540  0.59800  0.43512  Biso   1.000  O
  O44      1.0000 0.70880  0.98520  0.48700  Biso   1.000  O
  O45      1.0000 0.86620  0.60180  0.39787  Biso   1.000  O
  O46      1.0000 0.40110  0.65460  0.54190  Biso   1.000  O
  O47      1.0000 0.48560  0.03650  0.36213  Biso   1.000  O
  O48      1.0000 0.38180  0.49400  0.38280  Biso   1.000  O
