data_image0
_cell_length_a       14.6905
_cell_length_b       8.0472
_cell_length_c       15.8688
_cell_angle_alpha    90
_cell_angle_beta     112.929
_cell_angle_gamma    90

_symmetry_space_group_name_H-M    "P 1"
_symmetry_int_tables_number       1

loop_
  _symmetry_equiv_pos_as_xyz
  'x, y, z'

loop_
  _atom_site_label
  _atom_site_occupancy
  _atom_site_fract_x
  _atom_site_fract_y
  _atom_site_fract_z
  _atom_site_thermal_displace_type
  _atom_site_B_iso_or_equiv
  _atom_site_type_symbol
  P1       1.0000 0.51646  0.39359  0.39624  Biso   1.000  P
  H1       1.0000 0.54300  0.26900  0.35440  Biso   1.000  H
  P2       1.0000 0.35225  0.15057  0.62141  Biso   1.000  P
  H2       1.0000 0.40900  0.00600  0.64840  Biso   1.000  H
  Be1      1.0000 0.36160  0.36810  0.47140  Biso   1.000  Be
  O1       1.0000 0.60778  0.44980  0.47698  Biso   1.000  O
  O2       1.0000 0.43775  0.32150  0.42348  Biso   1.000  O
  O3       1.0000 0.47610  0.52660  0.32434  Biso   1.000  O
  O4       1.0000 0.24836  0.10640  0.60813  Biso   1.000  O
  O5       1.0000 0.40071  0.25320  0.70613  Biso   1.000  O
  O6       1.0000 0.36486  0.21900  0.53872  Biso   1.000  O
  P3       1.0000 0.01646  0.89359  0.39624  Biso   1.000  P
  H3       1.0000 0.04300  0.76900  0.35440  Biso   1.000  H
  P4       1.0000 0.85225  0.65057  0.62141  Biso   1.000  P
  H4       1.0000 0.90900  0.50600  0.64840  Biso   1.000  H
  Be2      1.0000 0.86160  0.86810  0.47140  Biso   1.000  Be
  O7       1.0000 0.10778  0.94980  0.47698  Biso   1.000  O
  O8       1.0000 0.93775  0.82150  0.42348  Biso   1.000  O
  O9       1.0000 0.97610  0.02660  0.32434  Biso   1.000  O
  O10      1.0000 0.74836  0.60640  0.60813  Biso   1.000  O
  O11      1.0000 0.90071  0.75320  0.70613  Biso   1.000  O
  O12      1.0000 0.86486  0.71900  0.53872  Biso   1.000  O
  P5       1.0000 0.48354  0.39359  0.10376  Biso   1.000  P
  H5       1.0000 0.45700  0.26900  0.14560  Biso   1.000  H
  P6       1.0000 0.64775  0.15057  0.87859  Biso   1.000  P
  H6       1.0000 0.59100  0.00600  0.85160  Biso   1.000  H
  Be3      1.0000 0.63840  0.36810  0.02860  Biso   1.000  Be
  O13      1.0000 0.39222  0.44980  0.02302  Biso   1.000  O
  O14      1.0000 0.56225  0.32150  0.07652  Biso   1.000  O
  O15      1.0000 0.52390  0.52660  0.17566  Biso   1.000  O
  O16      1.0000 0.75164  0.10640  0.89187  Biso   1.000  O
  O17      1.0000 0.59929  0.25320  0.79387  Biso   1.000  O
  O18      1.0000 0.63514  0.21900  0.96128  Biso   1.000  O
  P7       1.0000 0.98354  0.89359  0.10376  Biso   1.000  P
  H7       1.0000 0.95700  0.76900  0.14560  Biso   1.000  H
  P8       1.0000 0.14775  0.65057  0.87859  Biso   1.000  P
  H8       1.0000 0.09100  0.50600  0.85160  Biso   1.000  H
  Be4      1.0000 0.13840  0.86810  0.02860  Biso   1.000  Be
  O19      1.0000 0.89222  0.94980  0.02302  Biso   1.000  O
  O20      1.0000 0.06225  0.82150  0.07652  Biso   1.000  O
  O21      1.0000 0.02390  0.02660  0.17566  Biso   1.000  O
  O22      1.0000 0.25164  0.60640  0.89187  Biso   1.000  O
  O23      1.0000 0.09929  0.75320  0.79387  Biso   1.000  O
  O24      1.0000 0.13514  0.71900  0.96128  Biso   1.000  O
  P9       1.0000 0.48354  0.60641  0.60376  Biso   1.000  P
  H9       1.0000 0.45700  0.73100  0.64560  Biso   1.000  H
  P10      1.0000 0.64775  0.84943  0.37859  Biso   1.000  P
  H10      1.0000 0.59100  0.99400  0.35160  Biso   1.000  H
  Be5      1.0000 0.63840  0.63190  0.52860  Biso   1.000  Be
  O25      1.0000 0.39222  0.55020  0.52302  Biso   1.000  O
  O26      1.0000 0.56225  0.67850  0.57652  Biso   1.000  O
  O27      1.0000 0.52390  0.47340  0.67566  Biso   1.000  O
  O28      1.0000 0.75164  0.89360  0.39187  Biso   1.000  O
  O29      1.0000 0.59929  0.74680  0.29387  Biso   1.000  O
  O30      1.0000 0.63514  0.78100  0.46128  Biso   1.000  O
  P11      1.0000 0.98354  0.10641  0.60376  Biso   1.000  P
  H11      1.0000 0.95700  0.23100  0.64560  Biso   1.000  H
  P12      1.0000 0.14775  0.34943  0.37859  Biso   1.000  P
  H12      1.0000 0.09100  0.49400  0.35160  Biso   1.000  H
  Be6      1.0000 0.13840  0.13190  0.52860  Biso   1.000  Be
  O31      1.0000 0.89222  0.05020  0.52302  Biso   1.000  O
  O32      1.0000 0.06225  0.17850  0.57652  Biso   1.000  O
  O33      1.0000 0.02390  0.97340  0.67566  Biso   1.000  O
  O34      1.0000 0.25164  0.39360  0.39187  Biso   1.000  O
  O35      1.0000 0.09929  0.24680  0.29387  Biso   1.000  O
  O36      1.0000 0.13514  0.28100  0.46128  Biso   1.000  O
  P13      1.0000 0.51646  0.60641  0.89624  Biso   1.000  P
  H13      1.0000 0.54300  0.73100  0.85440  Biso   1.000  H
  P14      1.0000 0.35225  0.84943  0.12141  Biso   1.000  P
  H14      1.0000 0.40900  0.99400  0.14840  Biso   1.000  H
  Be7      1.0000 0.36160  0.63190  0.97140  Biso   1.000  Be
  O37      1.0000 0.60778  0.55020  0.97698  Biso   1.000  O
  O38      1.0000 0.43775  0.67850  0.92348  Biso   1.000  O
  O39      1.0000 0.47610  0.47340  0.82434  Biso   1.000  O
  O40      1.0000 0.24836  0.89360  0.10813  Biso   1.000  O
  O41      1.0000 0.40071  0.74680  0.20613  Biso   1.000  O
  O42      1.0000 0.36486  0.78100  0.03872  Biso   1.000  O
  P15      1.0000 0.01646  0.10641  0.89624  Biso   1.000  P
  H15      1.0000 0.04300  0.23100  0.85440  Biso   1.000  H
  P16      1.0000 0.85225  0.34943  0.12141  Biso   1.000  P
  H16      1.0000 0.90900  0.49400  0.14840  Biso   1.000  H
  Be8      1.0000 0.86160  0.13190  0.97140  Biso   1.000  Be
  O43      1.0000 0.10778  0.05020  0.97698  Biso   1.000  O
  O44      1.0000 0.93775  0.17850  0.92348  Biso   1.000  O
  O45      1.0000 0.97610  0.97340  0.82434  Biso   1.000  O
  O46      1.0000 0.74836  0.39360  0.10813  Biso   1.000  O
  O47      1.0000 0.90071  0.24680  0.20613  Biso   1.000  O
  O48      1.0000 0.86486  0.28100  0.03872  Biso   1.000  O
  Be9      1.0000 0.50000  0.63410  0.25000  Biso   1.000  Be
  Be10     1.0000 0.00000  0.13410  0.25000  Biso   1.000  Be
  Be11     1.0000 0.50000  0.36590  0.75000  Biso   1.000  Be
  Be12     1.0000 0.00000  0.86590  0.75000  Biso   1.000  Be
