data_image0
_cell_length_a       13.644
_cell_length_b       13.644
_cell_length_c       26.609
_cell_angle_alpha    99.2886
_cell_angle_beta     99.2886
_cell_angle_gamma    104.464

_symmetry_space_group_name_H-M    P 1
_symmetry_int_tables_number       1

loop_
  _symmetry_equiv_pos_as_xyz
  'x, y, z'

loop_
  _atom_site_label
  _atom_site_occupancy
  _atom_site_fract_x
  _atom_site_fract_y
  _atom_site_fract_z
  _atom_site_thermal_displace_type
  _atom_site_B_iso_or_equiv
  _atom_site_type_symbol
  Co1      1.0000 0.42232  0.46084  0.55695  Biso   1.000  Co
  Co2      1.0000 0.53916  0.57768  0.94305  Biso   1.000  Co
  Co3      1.0000 0.57768  0.53916  0.44305  Biso   1.000  Co
  Co4      1.0000 0.46084  0.42232  0.05695  Biso   1.000  Co
  Co5      1.0000 0.50000  0.00000  0.00000  Biso   1.000  Co
  Co6      1.0000 0.00000  0.50000  0.50000  Biso   1.000  Co
  H1       1.0000 0.18880  0.28360  0.43730  Biso   1.000  H
  H2       1.0000 0.06000  0.17420  0.36980  Biso   1.000  H
  H3       1.0000 0.19680  0.30820  0.26780  Biso   1.000  H
  H4       1.0000 0.32160  0.42100  0.33570  Biso   1.000  H
  H5       1.0000 0.94650  0.08390  0.30790  Biso   1.000  H
  H6       1.0000 0.32210  0.60130  0.49700  Biso   1.000  H
  H7       1.0000 0.33210  0.77070  0.50000  Biso   1.000  H
  H8       1.0000 0.51070  0.98630  0.59380  Biso   1.000  H
  H9       1.0000 0.55070  0.84430  0.63010  Biso   1.000  H
  H10      1.0000 0.53010  0.67210  0.62450  Biso   1.000  H
  H11      1.0000 0.55230  0.32250  0.59800  Biso   1.000  H
  H12      1.0000 0.54800  0.15140  0.59150  Biso   1.000  H
  H13      1.0000 0.34500  0.93620  0.51460  Biso   1.000  H
  H14      1.0000 0.27150  0.07510  0.49910  Biso   1.000  H
  H15      1.0000 0.28420  0.24740  0.50710  Biso   1.000  H
  H16      1.0000 0.11390  0.35150  0.61080  Biso   1.000  H
  H17      1.0000 0.01350  0.30770  0.66840  Biso   1.000  H
  H18      1.0000 0.24720  0.47240  0.78540  Biso   1.000  H
  H19      1.0000 0.34960  0.50360  0.72790  Biso   1.000  H
  H20      1.0000 0.74640  0.27360  0.84700  Biso   1.000  H
  H21      1.0000 0.65960  0.20060  0.90680  Biso   1.000  H
  H22      1.0000 0.89190  0.08650  0.95240  Biso   1.000  H
  H23      1.0000 0.97860  0.15520  0.89310  Biso   1.000  H
  H24      1.0000 0.34780  0.79680  0.93050  Biso   1.000  H
  H25      1.0000 0.47560  0.05360  0.89080  Biso   1.000  H
  H26      1.0000 0.39840  0.98520  0.80560  Biso   1.000  H
  H27      1.0000 0.27640  0.72000  0.84500  Biso   1.000  H
  H28      1.0000 0.31470  0.82790  0.73530  Biso   1.000  H
  H29      1.0000 0.05280  0.23880  0.83630  Biso   1.000  H
  H30      1.0000 0.96410  0.14110  0.80410  Biso   1.000  H
  H31      1.0000 0.04980  0.20560  0.74580  Biso   1.000  H
  H32      1.0000 0.94410  0.23330  0.73670  Biso   1.000  H
  H33      1.0000 0.71640  0.81120  0.06270  Biso   1.000  H
  H34      1.0000 0.82580  0.94000  0.13020  Biso   1.000  H
  H35      1.0000 0.69180  0.80320  0.23220  Biso   1.000  H
  H36      1.0000 0.57900  0.67840  0.16430  Biso   1.000  H
  H37      1.0000 0.91610  0.05350  0.19210  Biso   1.000  H
  H38      1.0000 0.39870  0.67790  0.00300  Biso   1.000  H
  H39      1.0000 0.22930  0.66790  0.00000  Biso   1.000  H
  H40      1.0000 0.01370  0.48930  0.90620  Biso   1.000  H
  H41      1.0000 0.15570  0.44930  0.86990  Biso   1.000  H
  H42      1.0000 0.32790  0.46990  0.87550  Biso   1.000  H
  H43      1.0000 0.67750  0.44770  0.90200  Biso   1.000  H
  H44      1.0000 0.84860  0.45200  0.90850  Biso   1.000  H
  H45      1.0000 0.06380  0.65500  0.98540  Biso   1.000  H
  H46      1.0000 0.92490  0.72850  0.00090  Biso   1.000  H
  H47      1.0000 0.75260  0.71580  0.99290  Biso   1.000  H
  H48      1.0000 0.64850  0.88610  0.88920  Biso   1.000  H
  H49      1.0000 0.69230  0.98650  0.83160  Biso   1.000  H
  H50      1.0000 0.52760  0.75280  0.71460  Biso   1.000  H
  H51      1.0000 0.49640  0.65040  0.77210  Biso   1.000  H
  H52      1.0000 0.72640  0.25360  0.65300  Biso   1.000  H
  H53      1.0000 0.79940  0.34040  0.59320  Biso   1.000  H
  H54      1.0000 0.91350  0.10810  0.54760  Biso   1.000  H
  H55      1.0000 0.84480  0.02140  0.60690  Biso   1.000  H
  H56      1.0000 0.20320  0.65220  0.56950  Biso   1.000  H
  H57      1.0000 0.94640  0.52440  0.60920  Biso   1.000  H
  H58      1.0000 0.01480  0.60160  0.69440  Biso   1.000  H
  H59      1.0000 0.28000  0.72360  0.65500  Biso   1.000  H
  H60      1.0000 0.17210  0.68530  0.76470  Biso   1.000  H
  H61      1.0000 0.76120  0.94720  0.66370  Biso   1.000  H
  H62      1.0000 0.85890  0.03590  0.69590  Biso   1.000  H
  H63      1.0000 0.79440  0.95020  0.75420  Biso   1.000  H
  H64      1.0000 0.76670  0.05590  0.76330  Biso   1.000  H
  H65      1.0000 0.81120  0.71640  0.56270  Biso   1.000  H
  H66      1.0000 0.94000  0.82580  0.63020  Biso   1.000  H
  H67      1.0000 0.80320  0.69180  0.73220  Biso   1.000  H
  H68      1.0000 0.67840  0.57900  0.66430  Biso   1.000  H
  H69      1.0000 0.05350  0.91610  0.69210  Biso   1.000  H
  H70      1.0000 0.67790  0.39870  0.50300  Biso   1.000  H
  H71      1.0000 0.66790  0.22930  0.50000  Biso   1.000  H
  H72      1.0000 0.48930  0.01370  0.40620  Biso   1.000  H
  H73      1.0000 0.44930  0.15570  0.36990  Biso   1.000  H
  H74      1.0000 0.46990  0.32790  0.37550  Biso   1.000  H
  H75      1.0000 0.44770  0.67750  0.40200  Biso   1.000  H
  H76      1.0000 0.45200  0.84860  0.40850  Biso   1.000  H
  H77      1.0000 0.65500  0.06380  0.48540  Biso   1.000  H
  H78      1.0000 0.72850  0.92490  0.50090  Biso   1.000  H
  H79      1.0000 0.71580  0.75260  0.49290  Biso   1.000  H
  H80      1.0000 0.88610  0.64850  0.38920  Biso   1.000  H
  H81      1.0000 0.98650  0.69230  0.33160  Biso   1.000  H
  H82      1.0000 0.75280  0.52760  0.21460  Biso   1.000  H
  H83      1.0000 0.65040  0.49640  0.27210  Biso   1.000  H
  H84      1.0000 0.25360  0.72640  0.15300  Biso   1.000  H
  H85      1.0000 0.34040  0.79940  0.09320  Biso   1.000  H
  H86      1.0000 0.10810  0.91350  0.04760  Biso   1.000  H
  H87      1.0000 0.02140  0.84480  0.10690  Biso   1.000  H
  H88      1.0000 0.65220  0.20320  0.06950  Biso   1.000  H
  H89      1.0000 0.52440  0.94640  0.10920  Biso   1.000  H
  H90      1.0000 0.60160  0.01480  0.19440  Biso   1.000  H
  H91      1.0000 0.72360  0.28000  0.15500  Biso   1.000  H
  H92      1.0000 0.68530  0.17210  0.26470  Biso   1.000  H
  H93      1.0000 0.94720  0.76120  0.16370  Biso   1.000  H
  H94      1.0000 0.03590  0.85890  0.19590  Biso   1.000  H
  H95      1.0000 0.95020  0.79440  0.25420  Biso   1.000  H
  H96      1.0000 0.05590  0.76670  0.26330  Biso   1.000  H
  H97      1.0000 0.28360  0.18880  0.93730  Biso   1.000  H
  H98      1.0000 0.17420  0.06000  0.86980  Biso   1.000  H
  H99      1.0000 0.30820  0.19680  0.76780  Biso   1.000  H
  H100     1.0000 0.42100  0.32160  0.83570  Biso   1.000  H
  H101     1.0000 0.08390  0.94650  0.80790  Biso   1.000  H
  H102     1.0000 0.60130  0.32210  0.99700  Biso   1.000  H
  H103     1.0000 0.77070  0.33210  0.00000  Biso   1.000  H
  H104     1.0000 0.98630  0.51070  0.09380  Biso   1.000  H
  H105     1.0000 0.84430  0.55070  0.13010  Biso   1.000  H
  H106     1.0000 0.67210  0.53010  0.12450  Biso   1.000  H
  H107     1.0000 0.32250  0.55230  0.09800  Biso   1.000  H
  H108     1.0000 0.15140  0.54800  0.09150  Biso   1.000  H
  H109     1.0000 0.93620  0.34500  0.01460  Biso   1.000  H
  H110     1.0000 0.07510  0.27150  0.99910  Biso   1.000  H
  H111     1.0000 0.24740  0.28420  0.00710  Biso   1.000  H
  H112     1.0000 0.35150  0.11390  0.11080  Biso   1.000  H
  H113     1.0000 0.30770  0.01350  0.16840  Biso   1.000  H
  H114     1.0000 0.47240  0.24720  0.28540  Biso   1.000  H
  H115     1.0000 0.50360  0.34960  0.22790  Biso   1.000  H
  H116     1.0000 0.27360  0.74640  0.34700  Biso   1.000  H
  H117     1.0000 0.20060  0.65960  0.40680  Biso   1.000  H
  H118     1.0000 0.08650  0.89190  0.45240  Biso   1.000  H
  H119     1.0000 0.15520  0.97860  0.39310  Biso   1.000  H
  H120     1.0000 0.79680  0.34780  0.43050  Biso   1.000  H
  H121     1.0000 0.05360  0.47560  0.39080  Biso   1.000  H
  H122     1.0000 0.98520  0.39840  0.30560  Biso   1.000  H
  H123     1.0000 0.72000  0.27640  0.34500  Biso   1.000  H
  H124     1.0000 0.82790  0.31470  0.23530  Biso   1.000  H
  H125     1.0000 0.23880  0.05280  0.33630  Biso   1.000  H
  H126     1.0000 0.14110  0.96410  0.30410  Biso   1.000  H
  H127     1.0000 0.20560  0.04980  0.24580  Biso   1.000  H
  H128     1.0000 0.23330  0.94410  0.23670  Biso   1.000  H
  C1       1.0000 0.33860  0.22840  0.52540  Biso   1.000  C
  C2       1.0000 0.33050  0.12390  0.52000  Biso   1.000  C
  C3       1.0000 0.49370  0.27210  0.57780  Biso   1.000  C
  C4       1.0000 0.49130  0.16830  0.57390  Biso   1.000  C
  C5       1.0000 0.40770  0.09150  0.54510  Biso   1.000  C
  C6       1.0000 0.35500  0.43180  0.43610  Biso   1.000  C
  C7       1.0000 0.26790  0.36330  0.39280  Biso   1.000  C
  C8       1.0000 0.19030  0.28950  0.40310  Biso   1.000  C
  C9       1.0000 0.11380  0.22320  0.36260  Biso   1.000  C
  C10      1.0000 0.11720  0.22960  0.31300  Biso   1.000  C
  C11      1.0000 0.19450  0.30330  0.30210  Biso   1.000  C
  C12      1.0000 0.26920  0.37020  0.34280  Biso   1.000  C
  C13      1.0000 0.96360  0.09520  0.27650  Biso   1.000  C
  C14      1.0000 0.36870  0.65090  0.52420  Biso   1.000  C
  C15      1.0000 0.37480  0.75280  0.52570  Biso   1.000  C
  C16      1.0000 0.44370  0.82970  0.56500  Biso   1.000  C
  C17      1.0000 0.45580  0.94100  0.56860  Biso   1.000  C
  C18      1.0000 0.50320  0.79660  0.60260  Biso   1.000  C
  C19      1.0000 0.49080  0.69280  0.59852  Biso   1.000  C
  C20      1.0000 0.39830  0.98170  0.54060  Biso   1.000  C
  C21      1.0000 0.31350  0.44950  0.62570  Biso   1.000  C
  C22      1.0000 0.24560  0.43120  0.66267  Biso   1.000  C
  C23      1.0000 0.14220  0.37340  0.64640  Biso   1.000  C
  C24      1.0000 0.08180  0.34800  0.68040  Biso   1.000  C
  C25      1.0000 0.12140  0.38200  0.73290  Biso   1.000  C
  C26      1.0000 0.22120  0.44440  0.75010  Biso   1.000  C
  C27      1.0000 0.28080  0.46480  0.71550  Biso   1.000  C
  C28      1.0000 0.87080  0.21760  0.86460  Biso   1.000  C
  C29      1.0000 0.77480  0.23480  0.86780  Biso   1.000  C
  C30      1.0000 0.72370  0.19110  0.90380  Biso   1.000  C
  C31      1.0000 0.76650  0.13410  0.93490  Biso   1.000  C
  C32      1.0000 0.86170  0.12290  0.93080  Biso   1.000  C
  C33      1.0000 0.91410  0.16410  0.89550  Biso   1.000  C
  C34      1.0000 0.70760  0.08000  0.97060  Biso   1.000  C
  C35      1.0000 0.35960  0.83520  0.90510  Biso   1.000  C
  C36      1.0000 0.43310  0.98570  0.88178  Biso   1.000  C
  C37      1.0000 0.38840  0.94440  0.83020  Biso   1.000  C
  C38      1.0000 0.32850  0.84290  0.81470  Biso   1.000  C
  C39      1.0000 0.31560  0.78900  0.85360  Biso   1.000  C
  C40      1.0000 0.28280  0.79660  0.75930  Biso   1.000  C
  C41      1.0000 0.98900  0.21600  0.81000  Biso   1.000  C
  C42      1.0000 0.00930  0.24670  0.76120  Biso   1.000  C
  C43      1.0000 0.77160  0.66140  0.97460  Biso   1.000  C
  C44      1.0000 0.87610  0.66950  0.98000  Biso   1.000  C
  C45      1.0000 0.72790  0.50630  0.92220  Biso   1.000  C
  C46      1.0000 0.83170  0.50870  0.92610  Biso   1.000  C
  C47      1.0000 0.90850  0.59230  0.95490  Biso   1.000  C
  C48      1.0000 0.56820  0.64500  0.06390  Biso   1.000  C
  C49      1.0000 0.63670  0.73210  0.10720  Biso   1.000  C
  C50      1.0000 0.71050  0.80970  0.09690  Biso   1.000  C
  C51      1.0000 0.77680  0.88620  0.13740  Biso   1.000  C
  C52      1.0000 0.77040  0.88280  0.18700  Biso   1.000  C
  C53      1.0000 0.69670  0.80550  0.19790  Biso   1.000  C
  C54      1.0000 0.62980  0.73080  0.15720  Biso   1.000  C
  C55      1.0000 0.90480  0.03640  0.22350  Biso   1.000  C
  C56      1.0000 0.34910  0.63130  0.97580  Biso   1.000  C
  C57      1.0000 0.24720  0.62520  0.97430  Biso   1.000  C
  C58      1.0000 0.17030  0.55630  0.93500  Biso   1.000  C
  C59      1.0000 0.05900  0.54420  0.93140  Biso   1.000  C
  C60      1.0000 0.20340  0.49680  0.89740  Biso   1.000  C
  C61      1.0000 0.30720  0.50920  0.90148  Biso   1.000  C
  C62      1.0000 0.01830  0.60170  0.95940  Biso   1.000  C
  C63      1.0000 0.55050  0.68650  0.87430  Biso   1.000  C
  C64      1.0000 0.56880  0.75440  0.83733  Biso   1.000  C
  C65      1.0000 0.62660  0.85780  0.85360  Biso   1.000  C
  C66      1.0000 0.65200  0.91820  0.81960  Biso   1.000  C
  C67      1.0000 0.61800  0.87860  0.76710  Biso   1.000  C
  C68      1.0000 0.55560  0.77880  0.74990  Biso   1.000  C
  C69      1.0000 0.53520  0.71920  0.78450  Biso   1.000  C
  C70      1.0000 0.78240  0.12920  0.63540  Biso   1.000  C
  C71      1.0000 0.76520  0.22520  0.63220  Biso   1.000  C
  C72      1.0000 0.80890  0.27630  0.59620  Biso   1.000  C
  C73      1.0000 0.86590  0.23350  0.56510  Biso   1.000  C
  C74      1.0000 0.87710  0.13830  0.56920  Biso   1.000  C
  C75      1.0000 0.83590  0.08590  0.60450  Biso   1.000  C
  C76      1.0000 0.92000  0.29240  0.52940  Biso   1.000  C
  C77      1.0000 0.16480  0.64040  0.59490  Biso   1.000  C
  C78      1.0000 0.01430  0.56690  0.61822  Biso   1.000  C
  C79      1.0000 0.05560  0.61160  0.66980  Biso   1.000  C
  C80      1.0000 0.15710  0.67150  0.68530  Biso   1.000  C
  C81      1.0000 0.21100  0.68440  0.64640  Biso   1.000  C
  C82      1.0000 0.20340  0.71720  0.74070  Biso   1.000  C
  C83      1.0000 0.78400  0.01100  0.69000  Biso   1.000  C
  C84      1.0000 0.75330  0.99070  0.73880  Biso   1.000  C
  C85      1.0000 0.66140  0.77160  0.47460  Biso   1.000  C
  C86      1.0000 0.66950  0.87610  0.48000  Biso   1.000  C
  C87      1.0000 0.50630  0.72790  0.42220  Biso   1.000  C
  C88      1.0000 0.50870  0.83170  0.42610  Biso   1.000  C
  C89      1.0000 0.59230  0.90850  0.45490  Biso   1.000  C
  C90      1.0000 0.64500  0.56820  0.56390  Biso   1.000  C
  C91      1.0000 0.73210  0.63670  0.60720  Biso   1.000  C
  C92      1.0000 0.80970  0.71050  0.59690  Biso   1.000  C
  C93      1.0000 0.88620  0.77680  0.63740  Biso   1.000  C
  C94      1.0000 0.88280  0.77040  0.68700  Biso   1.000  C
  C95      1.0000 0.80550  0.69670  0.69790  Biso   1.000  C
  C96      1.0000 0.73080  0.62980  0.65720  Biso   1.000  C
  C97      1.0000 0.03640  0.90480  0.72350  Biso   1.000  C
  C98      1.0000 0.63130  0.34910  0.47580  Biso   1.000  C
  C99      1.0000 0.62520  0.24720  0.47430  Biso   1.000  C
  C100     1.0000 0.55630  0.17030  0.43500  Biso   1.000  C
  C101     1.0000 0.54420  0.05900  0.43140  Biso   1.000  C
  C102     1.0000 0.49680  0.20340  0.39740  Biso   1.000  C
  C103     1.0000 0.50920  0.30720  0.40148  Biso   1.000  C
  C104     1.0000 0.60170  0.01830  0.45940  Biso   1.000  C
  C105     1.0000 0.68650  0.55050  0.37430  Biso   1.000  C
  C106     1.0000 0.75440  0.56880  0.33733  Biso   1.000  C
  C107     1.0000 0.85780  0.62660  0.35360  Biso   1.000  C
  C108     1.0000 0.91820  0.65200  0.31960  Biso   1.000  C
  C109     1.0000 0.87860  0.61800  0.26710  Biso   1.000  C
  C110     1.0000 0.77880  0.55560  0.24990  Biso   1.000  C
  C111     1.0000 0.71920  0.53520  0.28450  Biso   1.000  C
  C112     1.0000 0.12920  0.78240  0.13540  Biso   1.000  C
  C113     1.0000 0.22520  0.76520  0.13220  Biso   1.000  C
  C114     1.0000 0.27630  0.80890  0.09620  Biso   1.000  C
  C115     1.0000 0.23350  0.86590  0.06510  Biso   1.000  C
  C116     1.0000 0.13830  0.87710  0.06920  Biso   1.000  C
  C117     1.0000 0.08590  0.83590  0.10450  Biso   1.000  C
  C118     1.0000 0.29240  0.92000  0.02940  Biso   1.000  C
  C119     1.0000 0.64040  0.16480  0.09490  Biso   1.000  C
  C120     1.0000 0.56690  0.01430  0.11822  Biso   1.000  C
  C121     1.0000 0.61160  0.05560  0.16980  Biso   1.000  C
  C122     1.0000 0.67150  0.15710  0.18530  Biso   1.000  C
  C123     1.0000 0.68440  0.21100  0.14640  Biso   1.000  C
  C124     1.0000 0.71720  0.20340  0.24070  Biso   1.000  C
  C125     1.0000 0.01100  0.78400  0.19000  Biso   1.000  C
  C126     1.0000 0.99070  0.75330  0.23880  Biso   1.000  C
  C127     1.0000 0.22840  0.33860  0.02540  Biso   1.000  C
  C128     1.0000 0.12390  0.33050  0.02000  Biso   1.000  C
  C129     1.0000 0.27210  0.49370  0.07780  Biso   1.000  C
  C130     1.0000 0.16830  0.49130  0.07390  Biso   1.000  C
  C131     1.0000 0.09150  0.40770  0.04510  Biso   1.000  C
  C132     1.0000 0.43180  0.35500  0.93610  Biso   1.000  C
  C133     1.0000 0.36330  0.26790  0.89280  Biso   1.000  C
  C134     1.0000 0.28950  0.19030  0.90310  Biso   1.000  C
  C135     1.0000 0.22320  0.11380  0.86260  Biso   1.000  C
  C136     1.0000 0.22960  0.11720  0.81300  Biso   1.000  C
  C137     1.0000 0.30330  0.19450  0.80210  Biso   1.000  C
  C138     1.0000 0.37020  0.26920  0.84280  Biso   1.000  C
  C139     1.0000 0.09520  0.96360  0.77650  Biso   1.000  C
  C140     1.0000 0.65090  0.36870  0.02420  Biso   1.000  C
  C141     1.0000 0.75280  0.37480  0.02570  Biso   1.000  C
  C142     1.0000 0.82970  0.44370  0.06500  Biso   1.000  C
  C143     1.0000 0.94100  0.45580  0.06860  Biso   1.000  C
  C144     1.0000 0.79660  0.50320  0.10260  Biso   1.000  C
  C145     1.0000 0.69280  0.49080  0.09852  Biso   1.000  C
  C146     1.0000 0.98170  0.39830  0.04060  Biso   1.000  C
  C147     1.0000 0.44950  0.31350  0.12570  Biso   1.000  C
  C148     1.0000 0.43120  0.24560  0.16267  Biso   1.000  C
  C149     1.0000 0.37340  0.14220  0.14640  Biso   1.000  C
  C150     1.0000 0.34800  0.08180  0.18040  Biso   1.000  C
  C151     1.0000 0.38200  0.12140  0.23290  Biso   1.000  C
  C152     1.0000 0.44440  0.22120  0.25010  Biso   1.000  C
  C153     1.0000 0.46480  0.28080  0.21550  Biso   1.000  C
  C154     1.0000 0.21760  0.87080  0.36460  Biso   1.000  C
  C155     1.0000 0.23480  0.77480  0.36780  Biso   1.000  C
  C156     1.0000 0.19110  0.72370  0.40380  Biso   1.000  C
  C157     1.0000 0.13410  0.76650  0.43490  Biso   1.000  C
  C158     1.0000 0.12290  0.86170  0.43080  Biso   1.000  C
  C159     1.0000 0.16410  0.91410  0.39550  Biso   1.000  C
  C160     1.0000 0.08000  0.70760  0.47060  Biso   1.000  C
  C161     1.0000 0.83520  0.35960  0.40510  Biso   1.000  C
  C162     1.0000 0.98570  0.43310  0.38178  Biso   1.000  C
  C163     1.0000 0.94440  0.38840  0.33020  Biso   1.000  C
  C164     1.0000 0.84290  0.32850  0.31470  Biso   1.000  C
  C165     1.0000 0.78900  0.31560  0.35360  Biso   1.000  C
  C166     1.0000 0.79660  0.28280  0.25930  Biso   1.000  C
  C167     1.0000 0.21600  0.98900  0.31000  Biso   1.000  C
  C168     1.0000 0.24670  0.00930  0.26120  Biso   1.000  C
  N1       1.0000 0.41825  0.30275  0.55446  Biso   1.000  N
  N2       1.0000 0.42679  0.61981  0.56004  Biso   1.000  N
  N3       1.0000 0.41934  0.93406  0.91962  Biso   1.000  N
  N4       1.0000 0.69725  0.58175  0.94554  Biso   1.000  N
  N5       1.0000 0.38019  0.57321  0.93996  Biso   1.000  N
  N6       1.0000 0.06594  0.58066  0.58038  Biso   1.000  N
  N7       1.0000 0.58175  0.69725  0.44554  Biso   1.000  N
  N8       1.0000 0.57321  0.38019  0.43996  Biso   1.000  N
  N9       1.0000 0.58066  0.06594  0.08038  Biso   1.000  N
  N10      1.0000 0.30275  0.41825  0.05446  Biso   1.000  N
  N11      1.0000 0.61981  0.42679  0.06004  Biso   1.000  N
  N12      1.0000 0.93406  0.41934  0.41962  Biso   1.000  N
  O1       1.0000 0.35312  0.41504  0.48074  Biso   1.000  O
  O2       1.0000 0.42327  0.49965  0.42456  Biso   1.000  O
  O3       1.0000 0.04540  0.16720  0.27064  Biso   1.000  O
  O4       1.0000 0.27406  0.43088  0.57758  Biso   1.000  O
  O5       1.0000 0.40937  0.48203  0.64149  Biso   1.000  O
  O6       1.0000 0.91770  0.25830  0.82720  Biso   1.000  O
  O7       1.0000 0.06650  0.35870  0.77093  Biso   1.000  O
  O8       1.0000 0.74730  0.02510  0.99459  Biso   1.000  O
  O9       1.0000 0.61923  0.09357  0.97223  Biso   1.000  O
  O10      1.0000 0.42258  0.11326  0.99872  Biso   1.000  O
  O11      1.0000 0.58496  0.64688  0.01926  Biso   1.000  O
  O12      1.0000 0.50035  0.57673  0.07544  Biso   1.000  O
  O13      1.0000 0.83280  0.95460  0.22936  Biso   1.000  O
  O14      1.0000 0.56912  0.72594  0.92242  Biso   1.000  O
  O15      1.0000 0.51797  0.59063  0.85851  Biso   1.000  O
  O16      1.0000 0.74170  0.08230  0.67280  Biso   1.000  O
  O17      1.0000 0.64130  0.93350  0.72907  Biso   1.000  O
  O18      1.0000 0.97490  0.25270  0.50541  Biso   1.000  O
  O19      1.0000 0.90643  0.38077  0.52777  Biso   1.000  O
  O20      1.0000 0.88674  0.57742  0.50128  Biso   1.000  O
  O21      1.0000 0.64688  0.58496  0.51926  Biso   1.000  O
  O22      1.0000 0.57673  0.50035  0.57544  Biso   1.000  O
  O23      1.0000 0.95460  0.83280  0.72936  Biso   1.000  O
  O24      1.0000 0.72594  0.56912  0.42242  Biso   1.000  O
  O25      1.0000 0.59063  0.51797  0.35851  Biso   1.000  O
  O26      1.0000 0.08230  0.74170  0.17280  Biso   1.000  O
  O27      1.0000 0.93350  0.64130  0.22907  Biso   1.000  O
  O28      1.0000 0.25270  0.97490  0.00541  Biso   1.000  O
  O29      1.0000 0.38077  0.90643  0.02777  Biso   1.000  O
  O30      1.0000 0.57742  0.88674  0.00128  Biso   1.000  O
  O31      1.0000 0.41504  0.35312  0.98074  Biso   1.000  O
  O32      1.0000 0.49965  0.42327  0.92456  Biso   1.000  O
  O33      1.0000 0.16720  0.04540  0.77064  Biso   1.000  O
  O34      1.0000 0.43088  0.27406  0.07758  Biso   1.000  O
  O35      1.0000 0.48203  0.40937  0.14149  Biso   1.000  O
  O36      1.0000 0.25830  0.91770  0.32720  Biso   1.000  O
  O37      1.0000 0.35870  0.06650  0.27093  Biso   1.000  O
  O38      1.0000 0.02510  0.74730  0.49459  Biso   1.000  O
  O39      1.0000 0.09357  0.61923  0.47223  Biso   1.000  O
  O40      1.0000 0.11326  0.42258  0.49872  Biso   1.000  O
