data_image0
_cell_length_a       9.26302
_cell_length_b       10.3537
_cell_length_c       13.0201
_cell_angle_alpha    80.8441
_cell_angle_beta     69.1627
_cell_angle_gamma    63.4276

_symmetry_space_group_name_H-M    P 1
_symmetry_int_tables_number       1

loop_
  _symmetry_equiv_pos_as_xyz
  'x, y, z'

loop_
  _atom_site_label
  _atom_site_occupancy
  _atom_site_fract_x
  _atom_site_fract_y
  _atom_site_fract_z
  _atom_site_thermal_displace_type
  _atom_site_B_iso_or_equiv
  _atom_site_type_symbol
  Co1      1.0000 0.89665  0.08794  0.36996  Biso   1.000  Co
  Co2      1.0000 0.35455  0.91206  0.63004  Biso   1.000  Co
  Co3      1.0000 0.01661  0.58794  0.13004  Biso   1.000  Co
  Co4      1.0000 0.73459  0.41206  0.86996  Biso   1.000  Co
  H1       1.0000 0.73890  0.12580  0.64540  Biso   1.000  H
  H2       1.0000 0.60510  0.99960  0.43900  Biso   1.000  H
  H3       1.0000 0.06690  0.77620  0.26860  Biso   1.000  H
  H4       1.0000 0.73660  0.91460  0.10740  Biso   1.000  H
  H5       1.0000 0.70020  0.12340  0.19880  Biso   1.000  H
  H6       1.0000 0.51010  0.87420  0.35460  Biso   1.000  H
  H7       1.0000 0.04370  0.00040  0.56100  Biso   1.000  H
  H8       1.0000 0.11170  0.22380  0.73140  Biso   1.000  H
  H9       1.0000 0.75860  0.08540  0.89260  Biso   1.000  H
  H10      1.0000 0.02240  0.87660  0.80120  Biso   1.000  H
  H11      1.0000 0.13430  0.62580  0.85460  Biso   1.000  H
  H12      1.0000 0.79410  0.49960  0.06100  Biso   1.000  H
  H13      1.0000 0.08550  0.27620  0.23140  Biso   1.000  H
  H14      1.0000 0.59400  0.41460  0.39260  Biso   1.000  H
  H15      1.0000 0.64900  0.62340  0.30120  Biso   1.000  H
  H16      1.0000 0.61470  0.37420  0.14540  Biso   1.000  H
  H17      1.0000 0.35470  0.50040  0.93900  Biso   1.000  H
  H18      1.0000 0.59310  0.72380  0.76860  Biso   1.000  H
  H19      1.0000 0.40120  0.58540  0.60740  Biso   1.000  H
  H20      1.0000 0.57360  0.37660  0.69880  Biso   1.000  H
  C1       1.0000 0.68020  0.09300  0.61540  Biso   1.000  C
  C2       1.0000 0.61210  0.02220  0.50520  Biso   1.000  C
  C3       1.0000 0.51300  0.00580  0.60200  Biso   1.000  C
  C4       1.0000 0.97880  0.83880  0.23800  Biso   1.000  C
  C5       1.0000 0.80090  0.91120  0.15240  Biso   1.000  C
  C6       1.0000 0.78150  0.02560  0.20220  Biso   1.000  C
  C7       1.0000 0.38860  0.90700  0.38460  Biso   1.000  C
  C8       1.0000 0.13950  0.97780  0.49480  Biso   1.000  C
  C9       1.0000 0.12080  0.99420  0.39800  Biso   1.000  C
  C10      1.0000 0.05560  0.16120  0.76200  Biso   1.000  C
  C11      1.0000 0.86450  0.08880  0.84760  Biso   1.000  C
  C12      1.0000 0.00930  0.97440  0.79780  Biso   1.000  C
  C13      1.0000 0.04560  0.59300  0.88460  Biso   1.000  C
  C14      1.0000 0.86730  0.52220  0.99480  Biso   1.000  C
  C15      1.0000 0.86500  0.50580  0.89800  Biso   1.000  C
  C16      1.0000 0.96680  0.33880  0.26200  Biso   1.000  C
  C17      1.0000 0.70330  0.41120  0.34760  Biso   1.000  C
  C18      1.0000 0.73370  0.52560  0.29780  Biso   1.000  C
  C19      1.0000 0.52320  0.40700  0.11540  Biso   1.000  C
  C20      1.0000 0.38430  0.47780  0.00520  Biso   1.000  C
  C21      1.0000 0.26880  0.49420  0.10200  Biso   1.000  C
  C22      1.0000 0.56760  0.66120  0.73800  Biso   1.000  C
  C23      1.0000 0.46210  0.58880  0.65240  Biso   1.000  C
  C24      1.0000 0.55710  0.47440  0.70220  Biso   1.000  C
  N1       1.0000 0.71740  0.06920  0.50700  Biso   1.000  N
  N2       1.0000 0.55060  0.05620  0.67660  Biso   1.000  N
  N3       1.0000 0.89210  0.98060  0.25960  Biso   1.000  N
  N4       1.0000 0.92840  0.79140  0.17360  Biso   1.000  N
  N5       1.0000 0.29360  0.93080  0.49300  Biso   1.000  N
  N6       1.0000 0.28340  0.94380  0.32340  Biso   1.000  N
  N7       1.0000 0.13230  0.01940  0.74040  Biso   1.000  N
  N8       1.0000 0.89340  0.20860  0.82640  Biso   1.000  N
  N9       1.0000 0.97440  0.56920  0.99300  Biso   1.000  N
  N10      1.0000 0.97720  0.55620  0.82340  Biso   1.000  N
  N11      1.0000 0.90170  0.48060  0.24040  Biso   1.000  N
  N12      1.0000 0.85200  0.29140  0.32640  Biso   1.000  N
  N13      1.0000 0.53660  0.43080  0.00700  Biso   1.000  N
  N14      1.0000 0.35680  0.44380  0.17660  Biso   1.000  N
  N15      1.0000 0.62270  0.51940  0.75960  Biso   1.000  N
  N16      1.0000 0.46980  0.70860  0.67360  Biso   1.000  N
