data_image0
_cell_length_a       35.956
_cell_length_b       7.869
_cell_length_c       8.164
_cell_angle_alpha    90
_cell_angle_beta     101.807
_cell_angle_gamma    90

_symmetry_space_group_name_H-M    "P 1"
_symmetry_int_tables_number       1

loop_
  _symmetry_equiv_pos_as_xyz
  'x, y, z'

loop_
  _atom_site_label
  _atom_site_occupancy
  _atom_site_fract_x
  _atom_site_fract_y
  _atom_site_fract_z
  _atom_site_thermal_displace_type
  _atom_site_B_iso_or_equiv
  _atom_site_type_symbol
  O1       1.0000 0.92832  0.19940  0.09720  Biso   1.000  O
  O2       1.0000 0.95352  0.12950  0.88140  Biso   1.000  O
  C1       1.0000 0.88715  0.16430  0.83310  Biso   1.000  C
  C2       1.0000 0.87163  0.30170  0.73220  Biso   1.000  C
  C3       1.0000 0.92600  0.16960  0.94790  Biso   1.000  C
  O3       1.0000 0.87650  0.58040  0.63950  Biso   1.000  O
  H1       1.0000 0.89230  0.65080  0.62440  Biso   1.000  H
  C4       1.0000 0.83166  0.99870  0.72360  Biso   1.000  C
  O4       1.0000 0.81385  0.84590  0.73110  Biso   1.000  O
  O5       1.0000 0.03645  0.18590  0.94020  Biso   1.000  O
  H2       1.0000 0.04270  0.16070  0.85220  Biso   1.000  H
  C5       1.0000 0.86730  0.01430  0.82860  Biso   1.000  C
  H3       1.0000 0.87760  0.92340  0.89550  Biso   1.000  H
  C6       1.0000 0.81598  0.13160  0.62200  Biso   1.000  C
  H4       1.0000 0.79230  0.12020  0.55170  Biso   1.000  H
  C7       1.0000 0.83596  0.28080  0.62640  Biso   1.000  C
  H5       1.0000 0.82560  0.37020  0.55750  Biso   1.000  H
  C8       1.0000 0.89317  0.46210  0.73910  Biso   1.000  C
  O6       1.0000 0.92334  0.48410  0.83350  Biso   1.000  O
  C9       1.0000 0.78154  0.80330  0.61010  Biso   1.000  C
  C10      1.0000 0.78572  0.71470  0.47320  Biso   1.000  C
  H6       1.0000 0.80990  0.69250  0.45450  Biso   1.000  H
  C11      1.0000 0.74573  0.84250  0.63850  Biso   1.000  C
  H7       1.0000 0.74310  0.90630  0.73130  Biso   1.000  H
  O7       1.0000 0.42832  0.69940  0.09720  Biso   1.000  O
  O8       1.0000 0.45352  0.62950  0.88140  Biso   1.000  O
  C12      1.0000 0.38715  0.66430  0.83310  Biso   1.000  C
  C13      1.0000 0.37163  0.80170  0.73220  Biso   1.000  C
  C14      1.0000 0.42600  0.66960  0.94790  Biso   1.000  C
  O9       1.0000 0.37650  0.08040  0.63950  Biso   1.000  O
  H8       1.0000 0.39230  0.15080  0.62440  Biso   1.000  H
  C15      1.0000 0.33166  0.49870  0.72360  Biso   1.000  C
  O10      1.0000 0.31385  0.34590  0.73110  Biso   1.000  O
  O11      1.0000 0.53645  0.68590  0.94020  Biso   1.000  O
  H9       1.0000 0.54270  0.66070  0.85220  Biso   1.000  H
  C16      1.0000 0.36730  0.51430  0.82860  Biso   1.000  C
  H10      1.0000 0.37760  0.42340  0.89550  Biso   1.000  H
  C17      1.0000 0.31598  0.63160  0.62200  Biso   1.000  C
  H11      1.0000 0.29230  0.62020  0.55170  Biso   1.000  H
  C18      1.0000 0.33596  0.78080  0.62640  Biso   1.000  C
  H12      1.0000 0.32560  0.87020  0.55750  Biso   1.000  H
  C19      1.0000 0.39317  0.96210  0.73910  Biso   1.000  C
  O12      1.0000 0.42334  0.98410  0.83350  Biso   1.000  O
  C20      1.0000 0.28154  0.30330  0.61010  Biso   1.000  C
  C21      1.0000 0.28572  0.21470  0.47320  Biso   1.000  C
  H13      1.0000 0.30990  0.19250  0.45450  Biso   1.000  H
  C22      1.0000 0.24573  0.34250  0.63850  Biso   1.000  C
  H14      1.0000 0.24310  0.40630  0.73130  Biso   1.000  H
  O13      1.0000 0.07168  0.19940  0.40280  Biso   1.000  O
  O14      1.0000 0.04648  0.12950  0.61860  Biso   1.000  O
  C23      1.0000 0.11285  0.16430  0.66690  Biso   1.000  C
  C24      1.0000 0.12837  0.30170  0.76780  Biso   1.000  C
  C25      1.0000 0.07400  0.16960  0.55210  Biso   1.000  C
  O15      1.0000 0.12350  0.58040  0.86050  Biso   1.000  O
  H15      1.0000 0.10770  0.65080  0.87560  Biso   1.000  H
  C26      1.0000 0.16834  0.99870  0.77640  Biso   1.000  C
  O16      1.0000 0.18615  0.84590  0.76890  Biso   1.000  O
  O17      1.0000 0.96355  0.18590  0.55980  Biso   1.000  O
  H16      1.0000 0.95730  0.16070  0.64780  Biso   1.000  H
  C27      1.0000 0.13270  0.01430  0.67140  Biso   1.000  C
  H17      1.0000 0.12240  0.92340  0.60450  Biso   1.000  H
  C28      1.0000 0.18402  0.13160  0.87800  Biso   1.000  C
  H18      1.0000 0.20770  0.12020  0.94830  Biso   1.000  H
  C29      1.0000 0.16404  0.28080  0.87360  Biso   1.000  C
  H19      1.0000 0.17440  0.37020  0.94250  Biso   1.000  H
  C30      1.0000 0.10683  0.46210  0.76090  Biso   1.000  C
  O18      1.0000 0.07666  0.48410  0.66650  Biso   1.000  O
  C31      1.0000 0.21846  0.80330  0.88990  Biso   1.000  C
  C32      1.0000 0.21428  0.71470  0.02680  Biso   1.000  C
  H20      1.0000 0.19010  0.69250  0.04550  Biso   1.000  H
  C33      1.0000 0.25427  0.84250  0.86150  Biso   1.000  C
  H21      1.0000 0.25690  0.90630  0.76870  Biso   1.000  H
  O19      1.0000 0.57168  0.69940  0.40280  Biso   1.000  O
  O20      1.0000 0.54648  0.62950  0.61860  Biso   1.000  O
  C34      1.0000 0.61285  0.66430  0.66690  Biso   1.000  C
  C35      1.0000 0.62837  0.80170  0.76780  Biso   1.000  C
  C36      1.0000 0.57400  0.66960  0.55210  Biso   1.000  C
  O21      1.0000 0.62350  0.08040  0.86050  Biso   1.000  O
  H22      1.0000 0.60770  0.15080  0.87560  Biso   1.000  H
  C37      1.0000 0.66834  0.49870  0.77640  Biso   1.000  C
  O22      1.0000 0.68615  0.34590  0.76890  Biso   1.000  O
  O23      1.0000 0.46355  0.68590  0.55980  Biso   1.000  O
  H23      1.0000 0.45730  0.66070  0.64780  Biso   1.000  H
  C38      1.0000 0.63270  0.51430  0.67140  Biso   1.000  C
  H24      1.0000 0.62240  0.42340  0.60450  Biso   1.000  H
  C39      1.0000 0.68402  0.63160  0.87800  Biso   1.000  C
  H25      1.0000 0.70770  0.62020  0.94830  Biso   1.000  H
  C40      1.0000 0.66404  0.78080  0.87360  Biso   1.000  C
  H26      1.0000 0.67440  0.87020  0.94250  Biso   1.000  H
  C41      1.0000 0.60683  0.96210  0.76090  Biso   1.000  C
  O24      1.0000 0.57666  0.98410  0.66650  Biso   1.000  O
  C42      1.0000 0.71846  0.30330  0.88990  Biso   1.000  C
  C43      1.0000 0.71428  0.21470  0.02680  Biso   1.000  C
  H27      1.0000 0.69010  0.19250  0.04550  Biso   1.000  H
  C44      1.0000 0.75427  0.34250  0.86150  Biso   1.000  C
  H28      1.0000 0.75690  0.40630  0.76870  Biso   1.000  H
  O25      1.0000 0.07168  0.80060  0.90280  Biso   1.000  O
  O26      1.0000 0.04648  0.87050  0.11860  Biso   1.000  O
  C45      1.0000 0.11285  0.83570  0.16690  Biso   1.000  C
  C46      1.0000 0.12837  0.69830  0.26780  Biso   1.000  C
  C47      1.0000 0.07400  0.83040  0.05210  Biso   1.000  C
  O27      1.0000 0.12350  0.41960  0.36050  Biso   1.000  O
  H29      1.0000 0.10770  0.34920  0.37560  Biso   1.000  H
  C48      1.0000 0.16834  0.00130  0.27640  Biso   1.000  C
  O28      1.0000 0.18615  0.15410  0.26890  Biso   1.000  O
  O29      1.0000 0.96355  0.81410  0.05980  Biso   1.000  O
  H30      1.0000 0.95730  0.83930  0.14780  Biso   1.000  H
  C49      1.0000 0.13270  0.98570  0.17140  Biso   1.000  C
  H31      1.0000 0.12240  0.07660  0.10450  Biso   1.000  H
  C50      1.0000 0.18402  0.86840  0.37800  Biso   1.000  C
  H32      1.0000 0.20770  0.87980  0.44830  Biso   1.000  H
  C51      1.0000 0.16404  0.71920  0.37360  Biso   1.000  C
  H33      1.0000 0.17440  0.62980  0.44250  Biso   1.000  H
  C52      1.0000 0.10683  0.53790  0.26090  Biso   1.000  C
  O30      1.0000 0.07666  0.51590  0.16650  Biso   1.000  O
  C53      1.0000 0.21846  0.19670  0.38990  Biso   1.000  C
  C54      1.0000 0.21428  0.28530  0.52680  Biso   1.000  C
  H34      1.0000 0.19010  0.30750  0.54550  Biso   1.000  H
  C55      1.0000 0.25427  0.15750  0.36150  Biso   1.000  C
  H35      1.0000 0.25690  0.09370  0.26870  Biso   1.000  H
  O31      1.0000 0.57168  0.30060  0.90280  Biso   1.000  O
  O32      1.0000 0.54648  0.37050  0.11860  Biso   1.000  O
  C56      1.0000 0.61285  0.33570  0.16690  Biso   1.000  C
  C57      1.0000 0.62837  0.19830  0.26780  Biso   1.000  C
  C58      1.0000 0.57400  0.33040  0.05210  Biso   1.000  C
  O33      1.0000 0.62350  0.91960  0.36050  Biso   1.000  O
  H36      1.0000 0.60770  0.84920  0.37560  Biso   1.000  H
  C59      1.0000 0.66834  0.50130  0.27640  Biso   1.000  C
  O34      1.0000 0.68615  0.65410  0.26890  Biso   1.000  O
  O35      1.0000 0.46355  0.31410  0.05980  Biso   1.000  O
  H37      1.0000 0.45730  0.33930  0.14780  Biso   1.000  H
  C60      1.0000 0.63270  0.48570  0.17140  Biso   1.000  C
  H38      1.0000 0.62240  0.57660  0.10450  Biso   1.000  H
  C61      1.0000 0.68402  0.36840  0.37800  Biso   1.000  C
  H39      1.0000 0.70770  0.37980  0.44830  Biso   1.000  H
  C62      1.0000 0.66404  0.21920  0.37360  Biso   1.000  C
  H40      1.0000 0.67440  0.12980  0.44250  Biso   1.000  H
  C63      1.0000 0.60683  0.03790  0.26090  Biso   1.000  C
  O36      1.0000 0.57666  0.01590  0.16650  Biso   1.000  O
  C64      1.0000 0.71846  0.69670  0.38990  Biso   1.000  C
  C65      1.0000 0.71428  0.78530  0.52680  Biso   1.000  C
  H41      1.0000 0.69010  0.80750  0.54550  Biso   1.000  H
  C66      1.0000 0.75427  0.65750  0.36150  Biso   1.000  C
  H42      1.0000 0.75690  0.59370  0.26870  Biso   1.000  H
  O37      1.0000 0.92832  0.80060  0.59720  Biso   1.000  O
  O38      1.0000 0.95352  0.87050  0.38140  Biso   1.000  O
  C67      1.0000 0.88715  0.83570  0.33310  Biso   1.000  C
  C68      1.0000 0.87163  0.69830  0.23220  Biso   1.000  C
  C69      1.0000 0.92600  0.83040  0.44790  Biso   1.000  C
  O39      1.0000 0.87650  0.41960  0.13950  Biso   1.000  O
  H43      1.0000 0.89230  0.34920  0.12440  Biso   1.000  H
  C70      1.0000 0.83166  0.00130  0.22360  Biso   1.000  C
  O40      1.0000 0.81385  0.15410  0.23110  Biso   1.000  O
  O41      1.0000 0.03645  0.81410  0.44020  Biso   1.000  O
  H44      1.0000 0.04270  0.83930  0.35220  Biso   1.000  H
  C71      1.0000 0.86730  0.98570  0.32860  Biso   1.000  C
  H45      1.0000 0.87760  0.07660  0.39550  Biso   1.000  H
  C72      1.0000 0.81598  0.86840  0.12200  Biso   1.000  C
  H46      1.0000 0.79230  0.87980  0.05170  Biso   1.000  H
  C73      1.0000 0.83596  0.71920  0.12640  Biso   1.000  C
  H47      1.0000 0.82560  0.62980  0.05750  Biso   1.000  H
  C74      1.0000 0.89317  0.53790  0.23910  Biso   1.000  C
  O42      1.0000 0.92334  0.51590  0.33350  Biso   1.000  O
  C75      1.0000 0.78154  0.19670  0.11010  Biso   1.000  C
  C76      1.0000 0.78572  0.28530  0.97320  Biso   1.000  C
  H48      1.0000 0.80990  0.30750  0.95450  Biso   1.000  H
  C77      1.0000 0.74573  0.15750  0.13850  Biso   1.000  C
  H49      1.0000 0.74310  0.09370  0.23130  Biso   1.000  H
  O43      1.0000 0.42832  0.30060  0.59720  Biso   1.000  O
  O44      1.0000 0.45352  0.37050  0.38140  Biso   1.000  O
  C78      1.0000 0.38715  0.33570  0.33310  Biso   1.000  C
  C79      1.0000 0.37163  0.19830  0.23220  Biso   1.000  C
  C80      1.0000 0.42600  0.33040  0.44790  Biso   1.000  C
  O45      1.0000 0.37650  0.91960  0.13950  Biso   1.000  O
  H50      1.0000 0.39230  0.84920  0.12440  Biso   1.000  H
  C81      1.0000 0.33166  0.50130  0.22360  Biso   1.000  C
  O46      1.0000 0.31385  0.65410  0.23110  Biso   1.000  O
  O47      1.0000 0.53645  0.31410  0.44020  Biso   1.000  O
  H51      1.0000 0.54270  0.33930  0.35220  Biso   1.000  H
  C82      1.0000 0.36730  0.48570  0.32860  Biso   1.000  C
  H52      1.0000 0.37760  0.57660  0.39550  Biso   1.000  H
  C83      1.0000 0.31598  0.36840  0.12200  Biso   1.000  C
  H53      1.0000 0.29230  0.37980  0.05170  Biso   1.000  H
  C84      1.0000 0.33596  0.21920  0.12640  Biso   1.000  C
  H54      1.0000 0.32560  0.12980  0.05750  Biso   1.000  H
  C85      1.0000 0.39317  0.03790  0.23910  Biso   1.000  C
  O48      1.0000 0.42334  0.01590  0.33350  Biso   1.000  O
  C86      1.0000 0.28154  0.69670  0.11010  Biso   1.000  C
  C87      1.0000 0.28572  0.78530  0.97320  Biso   1.000  C
  H55      1.0000 0.30990  0.80750  0.95450  Biso   1.000  H
  C88      1.0000 0.24573  0.65750  0.13850  Biso   1.000  C
  H56      1.0000 0.24310  0.59370  0.23130  Biso   1.000  H
  Co1      1.0000 0.00000  0.00000  0.00000  Biso   1.000  Co
  Co2      1.0000 0.50000  0.50000  0.00000  Biso   1.000  Co
  Co3      1.0000 0.00000  0.00000  0.50000  Biso   1.000  Co
  Co4      1.0000 0.50000  0.50000  0.50000  Biso   1.000  Co
  O49      1.0000 0.00000  0.11620  0.25000  Biso   1.000  O
  O50      1.0000 0.50000  0.61620  0.25000  Biso   1.000  O
  O51      1.0000 0.00000  0.88380  0.75000  Biso   1.000  O
  O52      1.0000 0.50000  0.38380  0.75000  Biso   1.000  O
