data_image0
_cell_length_a       15.85
_cell_length_b       10.1357
_cell_length_c       18.506
_cell_angle_alpha    90
_cell_angle_beta     90
_cell_angle_gamma    90

_symmetry_space_group_name_H-M    "P 1"
_symmetry_int_tables_number       1

loop_
  _symmetry_equiv_pos_as_xyz
  'x, y, z'

loop_
  _atom_site_label
  _atom_site_occupancy
  _atom_site_fract_x
  _atom_site_fract_y
  _atom_site_fract_z
  _atom_site_thermal_displace_type
  _atom_site_B_iso_or_equiv
  _atom_site_type_symbol
  Ga1      1.0000 0.14981  0.83435  0.17455  Biso   1.000  Ga
  Ga2      1.0000 0.95875  0.68495  0.21800  Biso   1.000  Ga
  Ga3      1.0000 0.99145  0.65319  0.40553  Biso   1.000  Ga
  P1       1.0000 0.31448  0.64991  0.16751  Biso   1.000  P
  P2       1.0000 0.98471  0.86339  0.07801  Biso   1.000  P
  P3       1.0000 0.06267  0.87875  0.31458  Biso   1.000  P
  O1       1.0000 0.23515  0.72670  0.14587  Biso   1.000  O
  O2       1.0000 0.07725  0.87740  0.09998  Biso   1.000  O
  O3       1.0000 0.14594  0.84650  0.27537  Biso   1.000  O
  O4       1.0000 0.29260  0.50250  0.16684  Biso   1.000  O
  F1       1.0000 0.07636  0.67300  0.18639  Biso   1.000  F
  F2       1.0000 0.99706  0.59180  0.30334  Biso   1.000  F
  O5       1.0000 0.98730  0.84820  0.26666  Biso   1.000  O
  O6       1.0000 0.06350  0.02470  0.33631  Biso   1.000  O
  O7       1.0000 0.34500  0.69320  0.24227  Biso   1.000  O
  O8       1.0000 0.93041  0.78650  0.13213  Biso   1.000  O
  O9       1.0000 0.37845  0.68390  0.10770  Biso   1.000  O
  O10      1.0000 0.94762  0.00330  0.07110  Biso   1.000  O
  O11      1.0000 0.06088  0.79730  0.38532  Biso   1.000  O
  O12      1.0000 0.97880  0.79360  0.00518  Biso   1.000  O
  Ga4      1.0000 0.35019  0.16565  0.67455  Biso   1.000  Ga
  Ga5      1.0000 0.54125  0.31505  0.71800  Biso   1.000  Ga
  Ga6      1.0000 0.50855  0.34681  0.90553  Biso   1.000  Ga
  P4       1.0000 0.18552  0.35009  0.66751  Biso   1.000  P
  P5       1.0000 0.51529  0.13661  0.57801  Biso   1.000  P
  P6       1.0000 0.43733  0.12125  0.81458  Biso   1.000  P
  O13      1.0000 0.26485  0.27330  0.64587  Biso   1.000  O
  O14      1.0000 0.42275  0.12260  0.59998  Biso   1.000  O
  O15      1.0000 0.35406  0.15350  0.77537  Biso   1.000  O
  O16      1.0000 0.20740  0.49750  0.66684  Biso   1.000  O
  F3       1.0000 0.42364  0.32700  0.68639  Biso   1.000  F
  F4       1.0000 0.50294  0.40820  0.80334  Biso   1.000  F
  O17      1.0000 0.51270  0.15180  0.76666  Biso   1.000  O
  O18      1.0000 0.43650  0.97530  0.83631  Biso   1.000  O
  O19      1.0000 0.15500  0.30680  0.74227  Biso   1.000  O
  O20      1.0000 0.56959  0.21350  0.63213  Biso   1.000  O
  O21      1.0000 0.12155  0.31610  0.60770  Biso   1.000  O
  O22      1.0000 0.55238  0.99670  0.57110  Biso   1.000  O
  O23      1.0000 0.43912  0.20270  0.88532  Biso   1.000  O
  O24      1.0000 0.52120  0.20640  0.50518  Biso   1.000  O
  Ga7      1.0000 0.85019  0.33435  0.32545  Biso   1.000  Ga
  Ga8      1.0000 0.04125  0.18495  0.28200  Biso   1.000  Ga
  Ga9      1.0000 0.00855  0.15319  0.09447  Biso   1.000  Ga
  P7       1.0000 0.68552  0.14991  0.33249  Biso   1.000  P
  P8       1.0000 0.01529  0.36339  0.42199  Biso   1.000  P
  P9       1.0000 0.93733  0.37875  0.18542  Biso   1.000  P
  O25      1.0000 0.76485  0.22670  0.35413  Biso   1.000  O
  O26      1.0000 0.92275  0.37740  0.40002  Biso   1.000  O
  O27      1.0000 0.85406  0.34650  0.22463  Biso   1.000  O
  O28      1.0000 0.70740  0.00250  0.33316  Biso   1.000  O
  F5       1.0000 0.92364  0.17300  0.31361  Biso   1.000  F
  F6       1.0000 0.00294  0.09180  0.19666  Biso   1.000  F
  O29      1.0000 0.01270  0.34820  0.23334  Biso   1.000  O
  O30      1.0000 0.93650  0.52470  0.16369  Biso   1.000  O
  O31      1.0000 0.65500  0.19320  0.25773  Biso   1.000  O
  O32      1.0000 0.06959  0.28650  0.36787  Biso   1.000  O
  O33      1.0000 0.62155  0.18390  0.39230  Biso   1.000  O
  O34      1.0000 0.05238  0.50330  0.42890  Biso   1.000  O
  O35      1.0000 0.93912  0.29730  0.11468  Biso   1.000  O
  O36      1.0000 0.02120  0.29360  0.49482  Biso   1.000  O
  Ga10     1.0000 0.64981  0.66565  0.82545  Biso   1.000  Ga
  Ga11     1.0000 0.45875  0.81505  0.78200  Biso   1.000  Ga
  Ga12     1.0000 0.49145  0.84681  0.59447  Biso   1.000  Ga
  P10      1.0000 0.81448  0.85009  0.83249  Biso   1.000  P
  P11      1.0000 0.48471  0.63661  0.92199  Biso   1.000  P
  P12      1.0000 0.56267  0.62125  0.68542  Biso   1.000  P
  O37      1.0000 0.73515  0.77330  0.85413  Biso   1.000  O
  O38      1.0000 0.57725  0.62260  0.90002  Biso   1.000  O
  O39      1.0000 0.64594  0.65350  0.72463  Biso   1.000  O
  O40      1.0000 0.79260  0.99750  0.83316  Biso   1.000  O
  F7       1.0000 0.57636  0.82700  0.81361  Biso   1.000  F
  F8       1.0000 0.49706  0.90820  0.69666  Biso   1.000  F
  O41      1.0000 0.48730  0.65180  0.73334  Biso   1.000  O
  O42      1.0000 0.56350  0.47530  0.66369  Biso   1.000  O
  O43      1.0000 0.84500  0.80680  0.75773  Biso   1.000  O
  O44      1.0000 0.43041  0.71350  0.86787  Biso   1.000  O
  O45      1.0000 0.87845  0.81610  0.89230  Biso   1.000  O
  O46      1.0000 0.44762  0.49670  0.92890  Biso   1.000  O
  O47      1.0000 0.56088  0.70270  0.61468  Biso   1.000  O
  O48      1.0000 0.47880  0.70640  0.99482  Biso   1.000  O
  Ga13     1.0000 0.85019  0.16565  0.82545  Biso   1.000  Ga
  Ga14     1.0000 0.04125  0.31505  0.78200  Biso   1.000  Ga
  Ga15     1.0000 0.00855  0.34681  0.59447  Biso   1.000  Ga
  P13      1.0000 0.68552  0.35009  0.83249  Biso   1.000  P
  P14      1.0000 0.01529  0.13661  0.92199  Biso   1.000  P
  P15      1.0000 0.93733  0.12125  0.68542  Biso   1.000  P
  O49      1.0000 0.76485  0.27330  0.85413  Biso   1.000  O
  O50      1.0000 0.92275  0.12260  0.90002  Biso   1.000  O
  O51      1.0000 0.85406  0.15350  0.72463  Biso   1.000  O
  O52      1.0000 0.70740  0.49750  0.83316  Biso   1.000  O
  F9       1.0000 0.92364  0.32700  0.81361  Biso   1.000  F
  F10      1.0000 0.00294  0.40820  0.69666  Biso   1.000  F
  O53      1.0000 0.01270  0.15180  0.73334  Biso   1.000  O
  O54      1.0000 0.93650  0.97530  0.66369  Biso   1.000  O
  O55      1.0000 0.65500  0.30680  0.75773  Biso   1.000  O
  O56      1.0000 0.06959  0.21350  0.86787  Biso   1.000  O
  O57      1.0000 0.62155  0.31610  0.89230  Biso   1.000  O
  O58      1.0000 0.05238  0.99670  0.92890  Biso   1.000  O
  O59      1.0000 0.93912  0.20270  0.61468  Biso   1.000  O
  O60      1.0000 0.02120  0.20640  0.99482  Biso   1.000  O
  Ga16     1.0000 0.64981  0.83435  0.32545  Biso   1.000  Ga
  Ga17     1.0000 0.45875  0.68495  0.28200  Biso   1.000  Ga
  Ga18     1.0000 0.49145  0.65319  0.09447  Biso   1.000  Ga
  P16      1.0000 0.81448  0.64991  0.33249  Biso   1.000  P
  P17      1.0000 0.48471  0.86339  0.42199  Biso   1.000  P
  P18      1.0000 0.56267  0.87875  0.18542  Biso   1.000  P
  O61      1.0000 0.73515  0.72670  0.35413  Biso   1.000  O
  O62      1.0000 0.57725  0.87740  0.40002  Biso   1.000  O
  O63      1.0000 0.64594  0.84650  0.22463  Biso   1.000  O
  O64      1.0000 0.79260  0.50250  0.33316  Biso   1.000  O
  F11      1.0000 0.57636  0.67300  0.31361  Biso   1.000  F
  F12      1.0000 0.49706  0.59180  0.19666  Biso   1.000  F
  O65      1.0000 0.48730  0.84820  0.23334  Biso   1.000  O
  O66      1.0000 0.56350  0.02470  0.16369  Biso   1.000  O
  O67      1.0000 0.84500  0.69320  0.25773  Biso   1.000  O
  O68      1.0000 0.43041  0.78650  0.36787  Biso   1.000  O
  O69      1.0000 0.87845  0.68390  0.39230  Biso   1.000  O
  O70      1.0000 0.44762  0.00330  0.42890  Biso   1.000  O
  O71      1.0000 0.56088  0.79730  0.11468  Biso   1.000  O
  O72      1.0000 0.47880  0.79360  0.49482  Biso   1.000  O
  Ga19     1.0000 0.14981  0.66565  0.67455  Biso   1.000  Ga
  Ga20     1.0000 0.95875  0.81505  0.71800  Biso   1.000  Ga
  Ga21     1.0000 0.99145  0.84681  0.90553  Biso   1.000  Ga
  P19      1.0000 0.31448  0.85009  0.66751  Biso   1.000  P
  P20      1.0000 0.98471  0.63661  0.57801  Biso   1.000  P
  P21      1.0000 0.06267  0.62125  0.81458  Biso   1.000  P
  O73      1.0000 0.23515  0.77330  0.64587  Biso   1.000  O
  O74      1.0000 0.07725  0.62260  0.59998  Biso   1.000  O
  O75      1.0000 0.14594  0.65350  0.77537  Biso   1.000  O
  O76      1.0000 0.29260  0.99750  0.66684  Biso   1.000  O
  F13      1.0000 0.07636  0.82700  0.68639  Biso   1.000  F
  F14      1.0000 0.99706  0.90820  0.80334  Biso   1.000  F
  O77      1.0000 0.98730  0.65180  0.76666  Biso   1.000  O
  O78      1.0000 0.06350  0.47530  0.83631  Biso   1.000  O
  O79      1.0000 0.34500  0.80680  0.74227  Biso   1.000  O
  O80      1.0000 0.93041  0.71350  0.63213  Biso   1.000  O
  O81      1.0000 0.37845  0.81610  0.60770  Biso   1.000  O
  O82      1.0000 0.94762  0.49670  0.57110  Biso   1.000  O
  O83      1.0000 0.06088  0.70270  0.88532  Biso   1.000  O
  O84      1.0000 0.97880  0.70640  0.50518  Biso   1.000  O
  Ga22     1.0000 0.35019  0.33435  0.17455  Biso   1.000  Ga
  Ga23     1.0000 0.54125  0.18495  0.21800  Biso   1.000  Ga
  Ga24     1.0000 0.50855  0.15319  0.40553  Biso   1.000  Ga
  P22      1.0000 0.18552  0.14991  0.16751  Biso   1.000  P
  P23      1.0000 0.51529  0.36339  0.07801  Biso   1.000  P
  P24      1.0000 0.43733  0.37875  0.31458  Biso   1.000  P
  O85      1.0000 0.26485  0.22670  0.14587  Biso   1.000  O
  O86      1.0000 0.42275  0.37740  0.09998  Biso   1.000  O
  O87      1.0000 0.35406  0.34650  0.27537  Biso   1.000  O
  O88      1.0000 0.20740  0.00250  0.16684  Biso   1.000  O
  F15      1.0000 0.42364  0.17300  0.18639  Biso   1.000  F
  F16      1.0000 0.50294  0.09180  0.30334  Biso   1.000  F
  O89      1.0000 0.51270  0.34820  0.26666  Biso   1.000  O
  O90      1.0000 0.43650  0.52470  0.33631  Biso   1.000  O
  O91      1.0000 0.15500  0.19320  0.24227  Biso   1.000  O
  O92      1.0000 0.56959  0.28650  0.13213  Biso   1.000  O
  O93      1.0000 0.12155  0.18390  0.10770  Biso   1.000  O
  O94      1.0000 0.55238  0.50330  0.07110  Biso   1.000  O
  O95      1.0000 0.43912  0.29730  0.38532  Biso   1.000  O
  O96      1.0000 0.52120  0.29360  0.00518  Biso   1.000  O
