data_image0
_cell_length_a       12.206
_cell_length_b       17.833
_cell_length_c       15.309
_cell_angle_alpha    90
_cell_angle_beta     111.229
_cell_angle_gamma    90

_symmetry_space_group_name_H-M    "P 1"
_symmetry_int_tables_number       1

loop_
  _symmetry_equiv_pos_as_xyz
  'x, y, z'

loop_
  _atom_site_label
  _atom_site_occupancy
  _atom_site_fract_x
  _atom_site_fract_y
  _atom_site_fract_z
  _atom_site_thermal_displace_type
  _atom_site_B_iso_or_equiv
  _atom_site_type_symbol
  O1       1.0000 0.82170  0.45594  0.78200  Biso   1.000  O
  Zn1      1.0000 0.26397  0.37688  0.22924  Biso   1.000  Zn
  Zn2      1.0000 0.03388  0.48662  0.20590  Biso   1.000  Zn
  O2       1.0000 0.11930  0.34222  0.13930  Biso   1.000  O
  O3       1.0000 0.99560  0.43290  0.09310  Biso   1.000  O
  O4       1.0000 0.68800  0.52837  0.80120  Biso   1.000  O
  O5       1.0000 0.37720  0.19910  0.76720  Biso   1.000  O
  O6       1.0000 0.35000  0.21110  0.62400  Biso   1.000  O
  O7       1.0000 0.24890  0.39480  0.34910  Biso   1.000  O
  O8       1.0000 0.08410  0.45110  0.33070  Biso   1.000  O
  O9       1.0000 0.94600  0.57560  0.19520  Biso   1.000  O
  N1       1.0000 0.82770  0.66980  0.14920  Biso   1.000  N
  C1       1.0000 0.03160  0.37030  0.08380  Biso   1.000  C
  C2       1.0000 0.96810  0.32760  0.00070  Biso   1.000  C
  C3       1.0000 0.01240  0.26340  0.98110  Biso   1.000  C
  H1       1.0000 0.08600  0.24690  0.02050  Biso   1.000  H
  C4       1.0000 0.95050  0.22270  0.90450  Biso   1.000  C
  H2       1.0000 0.98140  0.17850  0.89090  Biso   1.000  H
  C5       1.0000 0.84380  0.24680  0.84820  Biso   1.000  C
  H3       1.0000 0.80170  0.21900  0.79540  Biso   1.000  H
  C6       1.0000 0.79610  0.31130  0.86700  Biso   1.000  C
  C7       1.0000 0.86020  0.35160  0.94350  Biso   1.000  C
  H4       1.0000 0.82990  0.39600  0.95720  Biso   1.000  H
  C8       1.0000 0.67680  0.33220  0.80650  Biso   1.000  C
  C9       1.0000 0.64520  0.40340  0.77380  Biso   1.000  C
  C10      1.0000 0.53120  0.41700  0.71790  Biso   1.000  C
  H5       1.0000 0.50990  0.46560  0.69650  Biso   1.000  H
  C11      1.0000 0.44890  0.36350  0.69270  Biso   1.000  C
  C12      1.0000 0.48170  0.29220  0.72830  Biso   1.000  C
  C13      1.0000 0.59340  0.27930  0.78460  Biso   1.000  C
  H6       1.0000 0.61370  0.23150  0.80950  Biso   1.000  H
  C14      1.0000 0.72770  0.46670  0.78880  Biso   1.000  C
  C15      1.0000 0.39520  0.22970  0.70370  Biso   1.000  C
  C16      1.0000 0.33290  0.38265  0.63159  Biso   1.000  C
  C17      1.0000 0.30970  0.38922  0.53609  Biso   1.000  C
  H7       1.0000 0.36720  0.37660  0.51210  Biso   1.000  H
  C18      1.0000 0.20060  0.41460  0.47644  Biso   1.000  C
  C19      1.0000 0.11463  0.43340  0.51231  Biso   1.000  C
  H8       1.0000 0.04160  0.45040  0.47240  Biso   1.000  H
  C20      1.0000 0.13780  0.42680  0.60781  Biso   1.000  C
  H9       1.0000 0.08030  0.43940  0.63180  Biso   1.000  H
  C21      1.0000 0.24690  0.40150  0.66746  Biso   1.000  C
  H10      1.0000 0.26240  0.39710  0.73140  Biso   1.000  H
  C22      1.0000 0.17610  0.42050  0.37820  Biso   1.000  C
  C23      1.0000 0.86210  0.60570  0.13540  Biso   1.000  C
  C24      1.0000 0.79780  0.56710  0.04700  Biso   1.000  C
  H11      1.0000 0.85180  0.53810  0.02820  Biso   1.000  H
  H12      1.0000 0.75970  0.60350  0.99940  Biso   1.000  H
  H13      1.0000 0.73980  0.53450  0.05540  Biso   1.000  H
  C25      1.0000 0.72790  0.70650  0.08770  Biso   1.000  C
  H14      1.0000 0.75170  0.74470  0.05410  Biso   1.000  H
  H15      1.0000 0.68540  0.72900  0.12280  Biso   1.000  H
  H16      1.0000 0.67840  0.67090  0.04410  Biso   1.000  H
  C26      1.0000 0.89790  0.71130  0.23350  Biso   1.000  C
  H17      1.0000 0.85480  0.71560  0.27470  Biso   1.000  H
  H18      1.0000 0.91480  0.76040  0.21610  Biso   1.000  H
  H19      1.0000 0.97020  0.68500  0.26490  Biso   1.000  H
  O10      1.0000 0.17830  0.95594  0.71800  Biso   1.000  O
  Zn3      1.0000 0.73603  0.87688  0.27076  Biso   1.000  Zn
  Zn4      1.0000 0.96612  0.98662  0.29410  Biso   1.000  Zn
  O11      1.0000 0.88070  0.84222  0.36070  Biso   1.000  O
  O12      1.0000 0.00440  0.93290  0.40690  Biso   1.000  O
  O13      1.0000 0.31200  0.02837  0.69880  Biso   1.000  O
  O14      1.0000 0.62280  0.69910  0.73280  Biso   1.000  O
  O15      1.0000 0.65000  0.71110  0.87600  Biso   1.000  O
  O16      1.0000 0.75110  0.89480  0.15090  Biso   1.000  O
  O17      1.0000 0.91590  0.95110  0.16930  Biso   1.000  O
  O18      1.0000 0.05400  0.07560  0.30480  Biso   1.000  O
  N2       1.0000 0.17230  0.16980  0.35080  Biso   1.000  N
  C27      1.0000 0.96840  0.87030  0.41620  Biso   1.000  C
  C28      1.0000 0.03190  0.82760  0.49930  Biso   1.000  C
  C29      1.0000 0.98760  0.76340  0.51890  Biso   1.000  C
  H20      1.0000 0.91400  0.74690  0.47950  Biso   1.000  H
  C30      1.0000 0.04950  0.72270  0.59550  Biso   1.000  C
  H21      1.0000 0.01860  0.67850  0.60910  Biso   1.000  H
  C31      1.0000 0.15620  0.74680  0.65180  Biso   1.000  C
  H22      1.0000 0.19830  0.71900  0.70460  Biso   1.000  H
  C32      1.0000 0.20390  0.81130  0.63300  Biso   1.000  C
  C33      1.0000 0.13980  0.85160  0.55650  Biso   1.000  C
  H23      1.0000 0.17010  0.89600  0.54280  Biso   1.000  H
  C34      1.0000 0.32320  0.83220  0.69350  Biso   1.000  C
  C35      1.0000 0.35480  0.90340  0.72620  Biso   1.000  C
  C36      1.0000 0.46880  0.91700  0.78210  Biso   1.000  C
  H24      1.0000 0.49010  0.96560  0.80350  Biso   1.000  H
  C37      1.0000 0.55110  0.86350  0.80730  Biso   1.000  C
  C38      1.0000 0.51830  0.79220  0.77170  Biso   1.000  C
  C39      1.0000 0.40660  0.77930  0.71540  Biso   1.000  C
  H25      1.0000 0.38630  0.73150  0.69050  Biso   1.000  H
  C40      1.0000 0.27230  0.96670  0.71120  Biso   1.000  C
  C41      1.0000 0.60480  0.72970  0.79630  Biso   1.000  C
  C42      1.0000 0.66710  0.88265  0.86841  Biso   1.000  C
  C43      1.0000 0.69030  0.88922  0.96391  Biso   1.000  C
  H26      1.0000 0.63280  0.87660  0.98790  Biso   1.000  H
  C44      1.0000 0.79940  0.91460  0.02356  Biso   1.000  C
  C45      1.0000 0.88537  0.93340  0.98769  Biso   1.000  C
  H27      1.0000 0.95840  0.95040  0.02760  Biso   1.000  H
  C46      1.0000 0.86220  0.92680  0.89219  Biso   1.000  C
  H28      1.0000 0.91970  0.93940  0.86820  Biso   1.000  H
  C47      1.0000 0.75310  0.90150  0.83254  Biso   1.000  C
  H29      1.0000 0.73760  0.89710  0.76860  Biso   1.000  H
  C48      1.0000 0.82390  0.92050  0.12180  Biso   1.000  C
  C49      1.0000 0.13790  0.10570  0.36460  Biso   1.000  C
  C50      1.0000 0.20220  0.06710  0.45300  Biso   1.000  C
  H30      1.0000 0.14820  0.03810  0.47180  Biso   1.000  H
  H31      1.0000 0.24030  0.10350  0.50060  Biso   1.000  H
  H32      1.0000 0.26020  0.03450  0.44460  Biso   1.000  H
  C51      1.0000 0.27210  0.20650  0.41230  Biso   1.000  C
  H33      1.0000 0.24830  0.24470  0.44590  Biso   1.000  H
  H34      1.0000 0.31460  0.22900  0.37720  Biso   1.000  H
  H35      1.0000 0.32160  0.17090  0.45590  Biso   1.000  H
  C52      1.0000 0.10210  0.21130  0.26650  Biso   1.000  C
  H36      1.0000 0.14520  0.21560  0.22530  Biso   1.000  H
  H37      1.0000 0.08520  0.26040  0.28390  Biso   1.000  H
  H38      1.0000 0.02980  0.18500  0.23510  Biso   1.000  H
  O19      1.0000 0.17830  0.54406  0.21800  Biso   1.000  O
  Zn5      1.0000 0.73603  0.62312  0.77076  Biso   1.000  Zn
  Zn6      1.0000 0.96612  0.51338  0.79410  Biso   1.000  Zn
  O20      1.0000 0.88070  0.65778  0.86070  Biso   1.000  O
  O21      1.0000 0.00440  0.56710  0.90690  Biso   1.000  O
  O22      1.0000 0.31200  0.47163  0.19880  Biso   1.000  O
  O23      1.0000 0.62280  0.80090  0.23280  Biso   1.000  O
  O24      1.0000 0.65000  0.78890  0.37600  Biso   1.000  O
  O25      1.0000 0.75110  0.60520  0.65090  Biso   1.000  O
  O26      1.0000 0.91590  0.54890  0.66930  Biso   1.000  O
  O27      1.0000 0.05400  0.42440  0.80480  Biso   1.000  O
  N3       1.0000 0.17230  0.33020  0.85080  Biso   1.000  N
  C53      1.0000 0.96840  0.62970  0.91620  Biso   1.000  C
  C54      1.0000 0.03190  0.67240  0.99930  Biso   1.000  C
  C55      1.0000 0.98760  0.73660  0.01890  Biso   1.000  C
  H39      1.0000 0.91400  0.75310  0.97950  Biso   1.000  H
  C56      1.0000 0.04950  0.77730  0.09550  Biso   1.000  C
  H40      1.0000 0.01860  0.82150  0.10910  Biso   1.000  H
  C57      1.0000 0.15620  0.75320  0.15180  Biso   1.000  C
  H41      1.0000 0.19830  0.78100  0.20460  Biso   1.000  H
  C58      1.0000 0.20390  0.68870  0.13300  Biso   1.000  C
  C59      1.0000 0.13980  0.64840  0.05650  Biso   1.000  C
  H42      1.0000 0.17010  0.60400  0.04280  Biso   1.000  H
  C60      1.0000 0.32320  0.66780  0.19350  Biso   1.000  C
  C61      1.0000 0.35480  0.59660  0.22620  Biso   1.000  C
  C62      1.0000 0.46880  0.58300  0.28210  Biso   1.000  C
  H43      1.0000 0.49010  0.53440  0.30350  Biso   1.000  H
  C63      1.0000 0.55110  0.63650  0.30730  Biso   1.000  C
  C64      1.0000 0.51830  0.70780  0.27170  Biso   1.000  C
  C65      1.0000 0.40660  0.72070  0.21540  Biso   1.000  C
  H44      1.0000 0.38630  0.76850  0.19050  Biso   1.000  H
  C66      1.0000 0.27230  0.53330  0.21120  Biso   1.000  C
  C67      1.0000 0.60480  0.77030  0.29630  Biso   1.000  C
  C68      1.0000 0.66710  0.61735  0.36841  Biso   1.000  C
  C69      1.0000 0.69030  0.61078  0.46391  Biso   1.000  C
  H45      1.0000 0.63280  0.62340  0.48790  Biso   1.000  H
  C70      1.0000 0.79940  0.58540  0.52356  Biso   1.000  C
  C71      1.0000 0.88537  0.56660  0.48769  Biso   1.000  C
  H46      1.0000 0.95840  0.54960  0.52760  Biso   1.000  H
  C72      1.0000 0.86220  0.57320  0.39219  Biso   1.000  C
  H47      1.0000 0.91970  0.56060  0.36820  Biso   1.000  H
  C73      1.0000 0.75310  0.59850  0.33254  Biso   1.000  C
  H48      1.0000 0.73760  0.60290  0.26860  Biso   1.000  H
  C74      1.0000 0.82390  0.57950  0.62180  Biso   1.000  C
  C75      1.0000 0.13790  0.39430  0.86460  Biso   1.000  C
  C76      1.0000 0.20220  0.43290  0.95300  Biso   1.000  C
  H49      1.0000 0.14820  0.46190  0.97180  Biso   1.000  H
  H50      1.0000 0.24030  0.39650  0.00060  Biso   1.000  H
  H51      1.0000 0.26020  0.46550  0.94460  Biso   1.000  H
  C77      1.0000 0.27210  0.29350  0.91230  Biso   1.000  C
  H52      1.0000 0.24830  0.25530  0.94590  Biso   1.000  H
  H53      1.0000 0.31460  0.27100  0.87720  Biso   1.000  H
  H54      1.0000 0.32160  0.32910  0.95590  Biso   1.000  H
  C78      1.0000 0.10210  0.28870  0.76650  Biso   1.000  C
  H55      1.0000 0.14520  0.28440  0.72530  Biso   1.000  H
  H56      1.0000 0.08520  0.23960  0.78390  Biso   1.000  H
  H57      1.0000 0.02980  0.31500  0.73510  Biso   1.000  H
  O28      1.0000 0.82170  0.04406  0.28200  Biso   1.000  O
  Zn7      1.0000 0.26397  0.12312  0.72924  Biso   1.000  Zn
  Zn8      1.0000 0.03388  0.01338  0.70590  Biso   1.000  Zn
  O29      1.0000 0.11930  0.15778  0.63930  Biso   1.000  O
  O30      1.0000 0.99560  0.06710  0.59310  Biso   1.000  O
  O31      1.0000 0.68800  0.97163  0.30120  Biso   1.000  O
  O32      1.0000 0.37720  0.30090  0.26720  Biso   1.000  O
  O33      1.0000 0.35000  0.28890  0.12400  Biso   1.000  O
  O34      1.0000 0.24890  0.10520  0.84910  Biso   1.000  O
  O35      1.0000 0.08410  0.04890  0.83070  Biso   1.000  O
  O36      1.0000 0.94600  0.92440  0.69520  Biso   1.000  O
  N4       1.0000 0.82770  0.83020  0.64920  Biso   1.000  N
  C79      1.0000 0.03160  0.12970  0.58380  Biso   1.000  C
  C80      1.0000 0.96810  0.17240  0.50070  Biso   1.000  C
  C81      1.0000 0.01240  0.23660  0.48110  Biso   1.000  C
  H58      1.0000 0.08600  0.25310  0.52050  Biso   1.000  H
  C82      1.0000 0.95050  0.27730  0.40450  Biso   1.000  C
  H59      1.0000 0.98140  0.32150  0.39090  Biso   1.000  H
  C83      1.0000 0.84380  0.25320  0.34820  Biso   1.000  C
  H60      1.0000 0.80170  0.28100  0.29540  Biso   1.000  H
  C84      1.0000 0.79610  0.18870  0.36700  Biso   1.000  C
  C85      1.0000 0.86020  0.14840  0.44350  Biso   1.000  C
  H61      1.0000 0.82990  0.10400  0.45720  Biso   1.000  H
  C86      1.0000 0.67680  0.16780  0.30650  Biso   1.000  C
  C87      1.0000 0.64520  0.09660  0.27380  Biso   1.000  C
  C88      1.0000 0.53120  0.08300  0.21790  Biso   1.000  C
  H62      1.0000 0.50990  0.03440  0.19650  Biso   1.000  H
  C89      1.0000 0.44890  0.13650  0.19270  Biso   1.000  C
  C90      1.0000 0.48170  0.20780  0.22830  Biso   1.000  C
  C91      1.0000 0.59340  0.22070  0.28460  Biso   1.000  C
  H63      1.0000 0.61370  0.26850  0.30950  Biso   1.000  H
  C92      1.0000 0.72770  0.03330  0.28880  Biso   1.000  C
  C93      1.0000 0.39520  0.27030  0.20370  Biso   1.000  C
  C94      1.0000 0.33290  0.11735  0.13159  Biso   1.000  C
  C95      1.0000 0.30970  0.11078  0.03609  Biso   1.000  C
  H64      1.0000 0.36720  0.12340  0.01210  Biso   1.000  H
  C96      1.0000 0.20060  0.08540  0.97644  Biso   1.000  C
  C97      1.0000 0.11463  0.06660  0.01231  Biso   1.000  C
  H65      1.0000 0.04160  0.04960  0.97240  Biso   1.000  H
  C98      1.0000 0.13780  0.07320  0.10781  Biso   1.000  C
  H66      1.0000 0.08030  0.06060  0.13180  Biso   1.000  H
  C99      1.0000 0.24690  0.09850  0.16746  Biso   1.000  C
  H67      1.0000 0.26240  0.10290  0.23140  Biso   1.000  H
  C100     1.0000 0.17610  0.07950  0.87820  Biso   1.000  C
  C101     1.0000 0.86210  0.89430  0.63540  Biso   1.000  C
  C102     1.0000 0.79780  0.93290  0.54700  Biso   1.000  C
  H68      1.0000 0.85180  0.96190  0.52820  Biso   1.000  H
  H69      1.0000 0.75970  0.89650  0.49940  Biso   1.000  H
  H70      1.0000 0.73980  0.96550  0.55540  Biso   1.000  H
  C103     1.0000 0.72790  0.79350  0.58770  Biso   1.000  C
  H71      1.0000 0.75170  0.75530  0.55410  Biso   1.000  H
  H72      1.0000 0.68540  0.77100  0.62280  Biso   1.000  H
  H73      1.0000 0.67840  0.82910  0.54410  Biso   1.000  H
  C104     1.0000 0.89790  0.78870  0.73350  Biso   1.000  C
  H74      1.0000 0.85480  0.78440  0.77470  Biso   1.000  H
  H75      1.0000 0.91480  0.73960  0.71610  Biso   1.000  H
  H76      1.0000 0.97020  0.81500  0.76490  Biso   1.000  H
