data_image0
_cell_length_a       11.6876
_cell_length_b       13.2126
_cell_length_c       15.8696
_cell_angle_alpha    71.5064
_cell_angle_beta     68.393
_cell_angle_gamma    63.7499

_symmetry_space_group_name_H-M    P 1
_symmetry_int_tables_number       1

loop_
  _symmetry_equiv_pos_as_xyz
  'x, y, z'

loop_
  _atom_site_label
  _atom_site_occupancy
  _atom_site_fract_x
  _atom_site_fract_y
  _atom_site_fract_z
  _atom_site_thermal_displace_type
  _atom_site_B_iso_or_equiv
  _atom_site_type_symbol
  Cd1      1.0000 0.53581  0.02534  0.86802  Biso   1.000  Cd
  Cd2      1.0000 0.92917  0.47466  0.63198  Biso   1.000  Cd
  Cd3      1.0000 0.46419  0.97466  0.13198  Biso   1.000  Cd
  Cd4      1.0000 0.07083  0.52534  0.36802  Biso   1.000  Cd
  Cd5      1.0000 0.55087  0.75000  0.75000  Biso   1.000  Cd
  Cd6      1.0000 0.44913  0.25000  0.25000  Biso   1.000  Cd
  H1       1.0000 0.29290  0.28800  0.11840  Biso   1.000  H
  H2       1.0000 0.29050  0.60870  0.04650  Biso   1.000  H
  H3       1.0000 0.45450  0.40710  0.85750  Biso   1.000  H
  H4       1.0000 0.25700  0.19720  0.82840  Biso   1.000  H
  H5       1.0000 0.06240  0.20070  0.81950  Biso   1.000  H
  H6       1.0000 0.17190  0.86730  0.93150  Biso   1.000  H
  H7       1.0000 0.36080  0.87190  0.93850  Biso   1.000  H
  H8       1.0000 0.69200  0.19100  0.82320  Biso   1.000  H
  H9       1.0000 0.88030  0.20130  0.82450  Biso   1.000  H
  H10      1.0000 0.01470  0.85990  0.90870  Biso   1.000  H
  H11      1.0000 0.82080  0.86050  0.90510  Biso   1.000  H
  H12      1.0000 0.19930  0.21200  0.38160  Biso   1.000  H
  H13      1.0000 0.44570  0.89130  0.45350  Biso   1.000  H
  H14      1.0000 0.21910  0.09290  0.64250  Biso   1.000  H
  H15      1.0000 0.78260  0.30280  0.67160  Biso   1.000  H
  H16      1.0000 0.58260  0.29930  0.68050  Biso   1.000  H
  H17      1.0000 0.47070  0.63270  0.56850  Biso   1.000  H
  H18      1.0000 0.67120  0.62810  0.56150  Biso   1.000  H
  H19      1.0000 0.20620  0.30900  0.67680  Biso   1.000  H
  H20      1.0000 0.40610  0.29870  0.67550  Biso   1.000  H
  H21      1.0000 0.28330  0.64010  0.59130  Biso   1.000  H
  H22      1.0000 0.08640  0.63950  0.59490  Biso   1.000  H
  H23      1.0000 0.70710  0.71200  0.88160  Biso   1.000  H
  H24      1.0000 0.70950  0.39130  0.95350  Biso   1.000  H
  H25      1.0000 0.54550  0.59290  0.14250  Biso   1.000  H
  H26      1.0000 0.74300  0.80280  0.17160  Biso   1.000  H
  H27      1.0000 0.93760  0.79930  0.18050  Biso   1.000  H
  H28      1.0000 0.82810  0.13270  0.06850  Biso   1.000  H
  H29      1.0000 0.63920  0.12810  0.06150  Biso   1.000  H
  H30      1.0000 0.30800  0.80900  0.17680  Biso   1.000  H
  H31      1.0000 0.11970  0.79870  0.17550  Biso   1.000  H
  H32      1.0000 0.98530  0.14010  0.09130  Biso   1.000  H
  H33      1.0000 0.17920  0.13950  0.09490  Biso   1.000  H
  H34      1.0000 0.80070  0.78800  0.61840  Biso   1.000  H
  H35      1.0000 0.55430  0.10870  0.54650  Biso   1.000  H
  H36      1.0000 0.78090  0.90710  0.35750  Biso   1.000  H
  H37      1.0000 0.21740  0.69720  0.32840  Biso   1.000  H
  H38      1.0000 0.41740  0.70070  0.31950  Biso   1.000  H
  H39      1.0000 0.52930  0.36730  0.43150  Biso   1.000  H
  H40      1.0000 0.32880  0.37190  0.43850  Biso   1.000  H
  H41      1.0000 0.79380  0.69100  0.32320  Biso   1.000  H
  H42      1.0000 0.59390  0.70130  0.32450  Biso   1.000  H
  H43      1.0000 0.71670  0.35990  0.40870  Biso   1.000  H
  H44      1.0000 0.91360  0.36050  0.40510  Biso   1.000  H
  C1       1.0000 0.41870  0.21920  0.95540  Biso   1.000  C
  C2       1.0000 0.37790  0.33100  0.98300  Biso   1.000  C
  C3       1.0000 0.31350  0.34720  0.07340  Biso   1.000  C
  C4       1.0000 0.27970  0.45150  0.09690  Biso   1.000  C
  C5       1.0000 0.31340  0.53880  0.03080  Biso   1.000  C
  C6       1.0000 0.38140  0.52190  0.94090  Biso   1.000  C
  C7       1.0000 0.41120  0.41780  0.91800  Biso   1.000  C
  C8       1.0000 0.43460  0.60850  0.87070  Biso   1.000  C
  C9       1.0000 0.21150  0.46990  0.19450  Biso   1.000  C
  C10      1.0000 0.23950  0.13000  0.84920  Biso   1.000  C
  C11      1.0000 0.12230  0.13250  0.84310  Biso   1.000  C
  C12      1.0000 0.09560  0.03150  0.87270  Biso   1.000  C
  C13      1.0000 0.18700  0.93570  0.90930  Biso   1.000  C
  C14      1.0000 0.30080  0.93890  0.91370  Biso   1.000  C
  C15      1.0000 0.75870  0.12330  0.84030  Biso   1.000  C
  C16      1.0000 0.87140  0.13050  0.84090  Biso   1.000  C
  C17      1.0000 0.97420  0.02960  0.86660  Biso   1.000  C
  C18      1.0000 0.95060  0.92920  0.89060  Biso   1.000  C
  C19      1.0000 0.83310  0.92980  0.88820  Biso   1.000  C
  C20      1.0000 0.09330  0.28080  0.54460  Biso   1.000  C
  C21      1.0000 0.19190  0.16900  0.51700  Biso   1.000  C
  C22      1.0000 0.23410  0.15280  0.42660  Biso   1.000  C
  C23      1.0000 0.32810  0.04850  0.40310  Biso   1.000  C
  C24      1.0000 0.38300  0.96120  0.46920  Biso   1.000  C
  C25      1.0000 0.34420  0.97810  0.55910  Biso   1.000  C
  C26      1.0000 0.24700  0.08220  0.58200  Biso   1.000  C
  C27      1.0000 0.41380  0.89150  0.62930  Biso   1.000  C
  C28      1.0000 0.37590  0.03010  0.30550  Biso   1.000  C
  C29      1.0000 0.71870  0.37000  0.65080  Biso   1.000  C
  C30      1.0000 0.59790  0.36750  0.65690  Biso   1.000  C
  C31      1.0000 0.49980  0.46850  0.62730  Biso   1.000  C
  C32      1.0000 0.53200  0.56430  0.59070  Biso   1.000  C
  C33      1.0000 0.65340  0.56110  0.58630  Biso   1.000  C
  C34      1.0000 0.22230  0.37670  0.65970  Biso   1.000  C
  C35      1.0000 0.34280  0.36950  0.65910  Biso   1.000  C
  C36      1.0000 0.37040  0.47040  0.63340  Biso   1.000  C
  C37      1.0000 0.27040  0.57080  0.60940  Biso   1.000  C
  C38      1.0000 0.15110  0.57020  0.61180  Biso   1.000  C
  C39      1.0000 0.58130  0.78080  0.04460  Biso   1.000  C
  C40      1.0000 0.62210  0.66900  0.01700  Biso   1.000  C
  C41      1.0000 0.68650  0.65280  0.92660  Biso   1.000  C
  C42      1.0000 0.72030  0.54850  0.90310  Biso   1.000  C
  C43      1.0000 0.68660  0.46120  0.96920  Biso   1.000  C
  C44      1.0000 0.61860  0.47810  0.05910  Biso   1.000  C
  C45      1.0000 0.58880  0.58220  0.08200  Biso   1.000  C
  C46      1.0000 0.56540  0.39150  0.12930  Biso   1.000  C
  C47      1.0000 0.78850  0.53010  0.80550  Biso   1.000  C
  C48      1.0000 0.76050  0.87000  0.15080  Biso   1.000  C
  C49      1.0000 0.87770  0.86750  0.15690  Biso   1.000  C
  C50      1.0000 0.90440  0.96850  0.12730  Biso   1.000  C
  C51      1.0000 0.81300  0.06430  0.09070  Biso   1.000  C
  C52      1.0000 0.69920  0.06110  0.08630  Biso   1.000  C
  C53      1.0000 0.24130  0.87670  0.15970  Biso   1.000  C
  C54      1.0000 0.12860  0.86950  0.15910  Biso   1.000  C
  C55      1.0000 0.02580  0.97040  0.13340  Biso   1.000  C
  C56      1.0000 0.04940  0.07080  0.10940  Biso   1.000  C
  C57      1.0000 0.16690  0.07020  0.11180  Biso   1.000  C
  C58      1.0000 0.90670  0.71920  0.45540  Biso   1.000  C
  C59      1.0000 0.80810  0.83100  0.48300  Biso   1.000  C
  C60      1.0000 0.76590  0.84720  0.57340  Biso   1.000  C
  C61      1.0000 0.67190  0.95150  0.59690  Biso   1.000  C
  C62      1.0000 0.61700  0.03880  0.53080  Biso   1.000  C
  C63      1.0000 0.65580  0.02190  0.44090  Biso   1.000  C
  C64      1.0000 0.75300  0.91780  0.41800  Biso   1.000  C
  C65      1.0000 0.58620  0.10850  0.37070  Biso   1.000  C
  C66      1.0000 0.62410  0.96990  0.69450  Biso   1.000  C
  C67      1.0000 0.28130  0.63000  0.34920  Biso   1.000  C
  C68      1.0000 0.40210  0.63250  0.34310  Biso   1.000  C
  C69      1.0000 0.50020  0.53150  0.37270  Biso   1.000  C
  C70      1.0000 0.46800  0.43570  0.40930  Biso   1.000  C
  C71      1.0000 0.34660  0.43890  0.41370  Biso   1.000  C
  C72      1.0000 0.77770  0.62330  0.34030  Biso   1.000  C
  C73      1.0000 0.65720  0.63050  0.34090  Biso   1.000  C
  C74      1.0000 0.62960  0.52960  0.36660  Biso   1.000  C
  C75      1.0000 0.72960  0.42920  0.39060  Biso   1.000  C
  C76      1.0000 0.84890  0.42980  0.38820  Biso   1.000  C
  N1       1.0000 0.32870  0.03350  0.88410  Biso   1.000  N
  N2       1.0000 0.73770  0.02430  0.86290  Biso   1.000  N
  N3       1.0000 0.74630  0.46650  0.61590  Biso   1.000  N
  N4       1.0000 0.12490  0.47570  0.63710  Biso   1.000  N
  N5       1.0000 0.67130  0.96650  0.11590  Biso   1.000  N
  N6       1.0000 0.26230  0.97570  0.13710  Biso   1.000  N
  N7       1.0000 0.25370  0.53350  0.38410  Biso   1.000  N
  N8       1.0000 0.87510  0.52430  0.36290  Biso   1.000  N
  O1       1.0000 0.42740  0.12930  0.01470  Biso   1.000  O
  O2       1.0000 0.44760  0.21910  0.87070  Biso   1.000  O
  O3       1.0000 0.49800  0.58760  0.79220  Biso   1.000  O
  O4       1.0000 0.41810  0.69780  0.89460  Biso   1.000  O
  O5       1.0000 0.13460  0.56870  0.20830  Biso   1.000  O
  O6       1.0000 0.23340  0.38490  0.25990  Biso   1.000  O
  O7       1.0000 0.07140  0.37070  0.48530  Biso   1.000  O
  O8       1.0000 0.03740  0.28090  0.62930  Biso   1.000  O
  O9       1.0000 0.37780  0.91240  0.70780  Biso   1.000  O
  O10      1.0000 0.51050  0.80220  0.60540  Biso   1.000  O
  O11      1.0000 0.41160  0.93130  0.29170  Biso   1.000  O
  O12      1.0000 0.37820  0.11510  0.24010  Biso   1.000  O
  O13      1.0000 0.57260  0.87070  0.98530  Biso   1.000  O
  O14      1.0000 0.55240  0.78090  0.12930  Biso   1.000  O
  O15      1.0000 0.50200  0.41240  0.20780  Biso   1.000  O
  O16      1.0000 0.58190  0.30220  0.10540  Biso   1.000  O
  O17      1.0000 0.86540  0.43130  0.79170  Biso   1.000  O
  O18      1.0000 0.76660  0.61510  0.74010  Biso   1.000  O
  O19      1.0000 0.92860  0.62930  0.51470  Biso   1.000  O
  O20      1.0000 0.96260  0.71910  0.37070  Biso   1.000  O
  O21      1.0000 0.62220  0.08760  0.29220  Biso   1.000  O
  O22      1.0000 0.48950  0.19780  0.39460  Biso   1.000  O
  O23      1.0000 0.58840  0.06870  0.70830  Biso   1.000  O
  O24      1.0000 0.62180  0.88490  0.75990  Biso   1.000  O
