data_image0
_cell_length_a       8.7602
_cell_length_b       21.2201
_cell_length_c       27.8308
_cell_angle_alpha    90
_cell_angle_beta     90
_cell_angle_gamma    97.6801

_symmetry_space_group_name_H-M    P 1
_symmetry_int_tables_number       1

loop_
  _symmetry_equiv_pos_as_xyz
  'x, y, z'

loop_
  _atom_site_label
  _atom_site_occupancy
  _atom_site_fract_x
  _atom_site_fract_y
  _atom_site_fract_z
  _atom_site_thermal_displace_type
  _atom_site_B_iso_or_equiv
  _atom_site_type_symbol
  Dy1      1.0000 0.81449  0.75378  0.31147  Biso   1.000  Dy
  Dy2      1.0000 0.23006  0.74834  0.42170  Biso   1.000  Dy
  Dy3      1.0000 0.18551  0.24622  0.81147  Biso   1.000  Dy
  Dy4      1.0000 0.76994  0.25166  0.92170  Biso   1.000  Dy
  Ni1      1.0000 0.27561  0.24013  0.31389  Biso   1.000  Ni
  Ni2      1.0000 0.77740  0.26348  0.40801  Biso   1.000  Ni
  Ni3      1.0000 0.72439  0.75987  0.81389  Biso   1.000  Ni
  Ni4      1.0000 0.22260  0.73652  0.90801  Biso   1.000  Ni
  H1       1.0000 0.34400  0.05140  0.20920  Biso   1.000  H
  H2       1.0000 0.22600  0.12440  0.15520  Biso   1.000  H
  H3       1.0000 0.18760  0.37190  0.16710  Biso   1.000  H
  H4       1.0000 0.17770  0.44570  0.23610  Biso   1.000  H
  H5       1.0000 0.06060  0.39750  0.42080  Biso   1.000  H
  H6       1.0000 0.12930  0.31650  0.47810  Biso   1.000  H
  H7       1.0000 0.50210  0.13890  0.45670  Biso   1.000  H
  H8       1.0000 0.56040  0.07160  0.38850  Biso   1.000  H
  H9       1.0000 0.95350  0.18570  0.15720  Biso   1.000  H
  H10      1.0000 0.84940  0.18760  0.07960  Biso   1.000  H
  H11      1.0000 0.22950  0.29600  0.03360  Biso   1.000  H
  H12      1.0000 0.33870  0.29490  0.11180  Biso   1.000  H
  H13      1.0000 0.92060  0.43820  0.29130  Biso   1.000  H
  H14      1.0000 0.85990  0.54200  0.29810  Biso   1.000  H
  H15      1.0000 0.21980  0.58700  0.38530  Biso   1.000  H
  H16      1.0000 0.28360  0.48430  0.37840  Biso   1.000  H
  H17      1.0000 0.18860  0.13730  0.49590  Biso   1.000  H
  H18      1.0000 0.19750  0.12890  0.57790  Biso   1.000  H
  H19      1.0000 0.44590  0.30060  0.58310  Biso   1.000  H
  H20      1.0000 0.43500  0.30920  0.50050  Biso   1.000  H
  H21      1.0000 0.27410  0.15870  0.69500  Biso   1.000  H
  H22      1.0000 0.35190  0.99740  0.35070  Biso   1.000  H
  H23      1.0000 0.44080  0.89760  0.34810  Biso   1.000  H
  H24      1.0000 0.69230  0.95460  0.23070  Biso   1.000  H
  H25      1.0000 0.61750  0.05510  0.23710  Biso   1.000  H
  H26      1.0000 0.69010  0.44340  0.51960  Biso   1.000  H
  H27      1.0000 0.78910  0.36450  0.57330  Biso   1.000  H
  H28      1.0000 0.82630  0.11800  0.55010  Biso   1.000  H
  H29      1.0000 0.87750  0.05360  0.47850  Biso   1.000  H
  H30      1.0000 0.00180  0.11340  0.29430  Biso   1.000  H
  H31      1.0000 0.90660  0.19100  0.24140  Biso   1.000  H
  H32      1.0000 0.55630  0.37440  0.26740  Biso   1.000  H
  H33      1.0000 0.50720  0.44030  0.33790  Biso   1.000  H
  H34      1.0000 0.04510  0.29090  0.58440  Biso   1.000  H
  H35      1.0000 0.07980  0.28610  0.66730  Biso   1.000  H
  H36      1.0000 0.65250  0.18140  0.67860  Biso   1.000  H
  H37      1.0000 0.62910  0.18640  0.59520  Biso   1.000  H
  H38      1.0000 0.80170  0.02720  0.33340  Biso   1.000  H
  H39      1.0000 0.86730  0.92510  0.32390  Biso   1.000  H
  H40      1.0000 0.19180  0.96360  0.42880  Biso   1.000  H
  H41      1.0000 0.13800  0.06650  0.43410  Biso   1.000  H
  H42      1.0000 0.85760  0.37080  0.22780  Biso   1.000  H
  H43      1.0000 0.83190  0.38060  0.14350  Biso   1.000  H
  H44      1.0000 0.55130  0.21260  0.14000  Biso   1.000  H
  H45      1.0000 0.58910  0.19960  0.22300  Biso   1.000  H
  H46      1.0000 0.73940  0.35190  0.02890  Biso   1.000  H
  H47      1.0000 0.72980  0.51900  0.38210  Biso   1.000  H
  H48      1.0000 0.63710  0.61420  0.39060  Biso   1.000  H
  H49      1.0000 0.33230  0.53850  0.49150  Biso   1.000  H
  H50      1.0000 0.42350  0.44030  0.48430  Biso   1.000  H
  H51      1.0000 0.44690  0.71660  0.24550  Biso   1.000  H
  H52      1.0000 0.30010  0.61530  0.18740  Biso   1.000  H
  H53      1.0000 0.21220  0.65120  0.22730  Biso   1.000  H
  H54      1.0000 0.20910  0.57570  0.22990  Biso   1.000  H
  H55      1.0000 0.41300  0.55390  0.30090  Biso   1.000  H
  H56      1.0000 0.58190  0.58020  0.28190  Biso   1.000  H
  H57      1.0000 0.46660  0.53420  0.24870  Biso   1.000  H
  H58      1.0000 0.43840  0.82050  0.50940  Biso   1.000  H
  H59      1.0000 0.75260  0.93470  0.44750  Biso   1.000  H
  H60      1.0000 0.70620  0.86670  0.42280  Biso   1.000  H
  H61      1.0000 0.84540  0.87690  0.46040  Biso   1.000  H
  H62      1.0000 0.60350  0.87340  0.56310  Biso   1.000  H
  H63      1.0000 0.72350  0.93100  0.54320  Biso   1.000  H
  H64      1.0000 0.77430  0.86170  0.54860  Biso   1.000  H
  H65      1.0000 0.65920  0.72290  0.40130  Biso   1.000  H
  H66      1.0000 0.82880  0.73490  0.41810  Biso   1.000  H
  H67      1.0000 0.42420  0.78930  0.33950  Biso   1.000  H
  H68      1.0000 0.29340  0.77840  0.31500  Biso   1.000  H
  H69      1.0000 0.65600  0.94860  0.70920  Biso   1.000  H
  H70      1.0000 0.77400  0.87560  0.65520  Biso   1.000  H
  H71      1.0000 0.81240  0.62810  0.66710  Biso   1.000  H
  H72      1.0000 0.82230  0.55430  0.73610  Biso   1.000  H
  H73      1.0000 0.93940  0.60250  0.92080  Biso   1.000  H
  H74      1.0000 0.87070  0.68350  0.97810  Biso   1.000  H
  H75      1.0000 0.49790  0.86110  0.95670  Biso   1.000  H
  H76      1.0000 0.43960  0.92840  0.88850  Biso   1.000  H
  H77      1.0000 0.04650  0.81430  0.65720  Biso   1.000  H
  H78      1.0000 0.15060  0.81240  0.57960  Biso   1.000  H
  H79      1.0000 0.77050  0.70400  0.53360  Biso   1.000  H
  H80      1.0000 0.66130  0.70510  0.61180  Biso   1.000  H
  H81      1.0000 0.07940  0.56180  0.79130  Biso   1.000  H
  H82      1.0000 0.14010  0.45800  0.79810  Biso   1.000  H
  H83      1.0000 0.78020  0.41300  0.88530  Biso   1.000  H
  H84      1.0000 0.71640  0.51570  0.87840  Biso   1.000  H
  H85      1.0000 0.81140  0.86270  0.99590  Biso   1.000  H
  H86      1.0000 0.80250  0.87110  0.07790  Biso   1.000  H
  H87      1.0000 0.55410  0.69940  0.08310  Biso   1.000  H
  H88      1.0000 0.56500  0.69080  0.00050  Biso   1.000  H
  H89      1.0000 0.72590  0.84130  0.19500  Biso   1.000  H
  H90      1.0000 0.64810  0.00260  0.85070  Biso   1.000  H
  H91      1.0000 0.55920  0.10240  0.84810  Biso   1.000  H
  H92      1.0000 0.30770  0.04540  0.73070  Biso   1.000  H
  H93      1.0000 0.38250  0.94490  0.73710  Biso   1.000  H
  H94      1.0000 0.30990  0.55660  0.01960  Biso   1.000  H
  H95      1.0000 0.21090  0.63550  0.07330  Biso   1.000  H
  H96      1.0000 0.17370  0.88200  0.05010  Biso   1.000  H
  H97      1.0000 0.12250  0.94640  0.97850  Biso   1.000  H
  H98      1.0000 0.99820  0.88660  0.79430  Biso   1.000  H
  H99      1.0000 0.09340  0.80900  0.74140  Biso   1.000  H
  H100     1.0000 0.44370  0.62560  0.76740  Biso   1.000  H
  H101     1.0000 0.49280  0.55970  0.83790  Biso   1.000  H
  H102     1.0000 0.95490  0.70910  0.08440  Biso   1.000  H
  H103     1.0000 0.92020  0.71390  0.16730  Biso   1.000  H
  H104     1.0000 0.34750  0.81860  0.17860  Biso   1.000  H
  H105     1.0000 0.37090  0.81360  0.09520  Biso   1.000  H
  H106     1.0000 0.19830  0.97280  0.83340  Biso   1.000  H
  H107     1.0000 0.13270  0.07490  0.82390  Biso   1.000  H
  H108     1.0000 0.80820  0.03640  0.92880  Biso   1.000  H
  H109     1.0000 0.86200  0.93350  0.93410  Biso   1.000  H
  H110     1.0000 0.14240  0.62920  0.72780  Biso   1.000  H
  H111     1.0000 0.16810  0.61940  0.64350  Biso   1.000  H
  H112     1.0000 0.44870  0.78740  0.64000  Biso   1.000  H
  H113     1.0000 0.41090  0.80040  0.72300  Biso   1.000  H
  H114     1.0000 0.26060  0.64810  0.52890  Biso   1.000  H
  H115     1.0000 0.27020  0.48100  0.88210  Biso   1.000  H
  H116     1.0000 0.36290  0.38580  0.89060  Biso   1.000  H
  H117     1.0000 0.66770  0.46150  0.99150  Biso   1.000  H
  H118     1.0000 0.57650  0.55970  0.98430  Biso   1.000  H
  H119     1.0000 0.55310  0.28340  0.74550  Biso   1.000  H
  H120     1.0000 0.69990  0.38470  0.68740  Biso   1.000  H
  H121     1.0000 0.78780  0.34880  0.72730  Biso   1.000  H
  H122     1.0000 0.79090  0.42430  0.72990  Biso   1.000  H
  H123     1.0000 0.58700  0.44610  0.80090  Biso   1.000  H
  H124     1.0000 0.41810  0.41980  0.78190  Biso   1.000  H
  H125     1.0000 0.53340  0.46580  0.74870  Biso   1.000  H
  H126     1.0000 0.56160  0.17950  0.00940  Biso   1.000  H
  H127     1.0000 0.24740  0.06530  0.94750  Biso   1.000  H
  H128     1.0000 0.29380  0.13330  0.92280  Biso   1.000  H
  H129     1.0000 0.15460  0.12310  0.96040  Biso   1.000  H
  H130     1.0000 0.39650  0.12660  0.06310  Biso   1.000  H
  H131     1.0000 0.27650  0.06900  0.04320  Biso   1.000  H
  H132     1.0000 0.22570  0.13830  0.04860  Biso   1.000  H
  H133     1.0000 0.34080  0.27710  0.90130  Biso   1.000  H
  H134     1.0000 0.17120  0.26510  0.91810  Biso   1.000  H
  H135     1.0000 0.57580  0.21070  0.83950  Biso   1.000  H
  H136     1.0000 0.70660  0.22160  0.81500  Biso   1.000  H
  C1       1.0000 0.35040  0.12400  0.26150  Biso   1.000  C
  C2       1.0000 0.32210  0.09280  0.21700  Biso   1.000  C
  C3       1.0000 0.25800  0.13260  0.18750  Biso   1.000  C
  C4       1.0000 0.24800  0.18890  0.21400  Biso   1.000  C
  C5       1.0000 0.20870  0.24570  0.19400  Biso   1.000  C
  C6       1.0000 0.21500  0.30090  0.22000  Biso   1.000  C
  C7       1.0000 0.19440  0.36170  0.20020  Biso   1.000  C
  C8       1.0000 0.18670  0.40160  0.23780  Biso   1.000  C
  C9       1.0000 0.19480  0.36510  0.28080  Biso   1.000  C
  C10      1.0000 0.15660  0.38510  0.32610  Biso   1.000  C
  C11      1.0000 0.16410  0.34840  0.36600  Biso   1.000  C
  C12      1.0000 0.11280  0.36240  0.41290  Biso   1.000  C
  C13      1.0000 0.14960  0.31820  0.44460  Biso   1.000  C
  C14      1.0000 0.22530  0.27490  0.41690  Biso   1.000  C
  C15      1.0000 0.30140  0.22740  0.43630  Biso   1.000  C
  C16      1.0000 0.36990  0.18550  0.40720  Biso   1.000  C
  C17      1.0000 0.46720  0.14190  0.42450  Biso   1.000  C
  C18      1.0000 0.50110  0.10600  0.38730  Biso   1.000  C
  C19      1.0000 0.43070  0.12930  0.34560  Biso   1.000  C
  C20      1.0000 0.42220  0.09870  0.30060  Biso   1.000  C
  C21      1.0000 0.15680  0.24360  0.14290  Biso   1.000  C
  C22      1.0000 0.01020  0.20940  0.13250  Biso   1.000  C
  C23      1.0000 0.94830  0.21010  0.08620  Biso   1.000  C
  C24      1.0000 0.03060  0.24330  0.05040  Biso   1.000  C
  C25      1.0000 0.17240  0.27400  0.05900  Biso   1.000  C
  C26      1.0000 0.23780  0.27380  0.10620  Biso   1.000  C
  C27      1.0000 0.95260  0.24430  0.00240  Biso   1.000  C
  C28      1.0000 0.11290  0.45020  0.33190  Biso   1.000  C
  C29      1.0000 0.98520  0.46840  0.30990  Biso   1.000  C
  C30      1.0000 0.94760  0.53060  0.31430  Biso   1.000  C
  C31      1.0000 0.03520  0.57430  0.34150  Biso   1.000  C
  C32      1.0000 0.15920  0.55690  0.36550  Biso   1.000  C
  C33      1.0000 0.19780  0.49550  0.36110  Biso   1.000  C
  C34      1.0000 0.99750  0.64030  0.34660  Biso   1.000  C
  C35      1.0000 0.30870  0.22300  0.48970  Biso   1.000  C
  C36      1.0000 0.24180  0.17150  0.51380  Biso   1.000  C
  C37      1.0000 0.24670  0.16590  0.56220  Biso   1.000  C
  C38      1.0000 0.32450  0.21520  0.58830  Biso   1.000  C
  C39      1.0000 0.39210  0.26670  0.56510  Biso   1.000  C
  C40      1.0000 0.38620  0.27210  0.51610  Biso   1.000  C
  C41      1.0000 0.33280  0.21300  0.64280  Biso   1.000  C
  C42      1.0000 0.47700  0.03690  0.29500  Biso   1.000  C
  C43      1.0000 0.42460  0.98950  0.32680  Biso   1.000  C
  C44      1.0000 0.47580  0.92930  0.32500  Biso   1.000  C
  C45      1.0000 0.57680  0.91680  0.28960  Biso   1.000  C
  C46      1.0000 0.62610  0.96350  0.25610  Biso   1.000  C
  C47      1.0000 0.57920  0.02300  0.25950  Biso   1.000  C
  C48      1.0000 0.64420  0.85510  0.29130  Biso   1.000  C
  C49      1.0000 0.70190  0.37550  0.46400  Biso   1.000  C
  C50      1.0000 0.71420  0.40270  0.51070  Biso   1.000  C
  C51      1.0000 0.76670  0.35980  0.54000  Biso   1.000  C
  C52      1.0000 0.78190  0.30550  0.51040  Biso   1.000  C
  C53      1.0000 0.81210  0.24740  0.52880  Biso   1.000  C
  C54      1.0000 0.82080  0.19490  0.50020  Biso   1.000  C
  C55      1.0000 0.83490  0.13210  0.51770  Biso   1.000  C
  C56      1.0000 0.86280  0.09710  0.47840  Biso   1.000  C
  C57      1.0000 0.86640  0.13740  0.43680  Biso   1.000  C
  C58      1.0000 0.91060  0.12120  0.39130  Biso   1.000  C
  C59      1.0000 0.89870  0.15960  0.35160  Biso   1.000  C
  C60      1.0000 0.94510  0.14650  0.30370  Biso   1.000  C
  C61      1.0000 0.89480  0.18870  0.27530  Biso   1.000  C
  C62      1.0000 0.81980  0.23020  0.30430  Biso   1.000  C
  C63      1.0000 0.74130  0.27830  0.28650  Biso   1.000  C
  C64      1.0000 0.67910  0.31940  0.31680  Biso   1.000  C
  C65      1.0000 0.58910  0.36880  0.29950  Biso   1.000  C
  C66      1.0000 0.56220  0.40460  0.33780  Biso   1.000  C
  C67      1.0000 0.63340  0.37840  0.37900  Biso   1.000  C
  C68      1.0000 0.63800  0.40460  0.42400  Biso   1.000  C
  C69      1.0000 0.83310  0.24290  0.58300  Biso   1.000  C
  C70      1.0000 0.96550  0.26950  0.60380  Biso   1.000  C
  C71      1.0000 0.98760  0.26610  0.65280  Biso   1.000  C
  C72      1.0000 0.86820  0.23190  0.68120  Biso   1.000  C
  C73      1.0000 0.73310  0.20340  0.65970  Biso   1.000  C
  C74      1.0000 0.71830  0.20760  0.61050  Biso   1.000  C
  C75      1.0000 0.88600  0.23060  0.73600  Biso   1.000  C
  C76      1.0000 0.96110  0.05720  0.38460  Biso   1.000  C
  C77      1.0000 0.88220  0.01420  0.35230  Biso   1.000  C
  C78      1.0000 0.91880  0.95290  0.34730  Biso   1.000  C
  C79      1.0000 0.03300  0.93170  0.37700  Biso   1.000  C
  C80      1.0000 0.11300  0.97650  0.40910  Biso   1.000  C
  C81      1.0000 0.08060  0.03740  0.41280  Biso   1.000  C
  C82      1.0000 0.05600  0.86380  0.37630  Biso   1.000  C
  C83      1.0000 0.72270  0.28340  0.23390  Biso   1.000  C
  C84      1.0000 0.79690  0.33840  0.21000  Biso   1.000  C
  C85      1.0000 0.77990  0.34460  0.15970  Biso   1.000  C
  C86      1.0000 0.68780  0.29830  0.13420  Biso   1.000  C
  C87      1.0000 0.61480  0.24430  0.15760  Biso   1.000  C
  C88      1.0000 0.63590  0.23710  0.20750  Biso   1.000  C
  C89      1.0000 0.66000  0.30660  0.08260  Biso   1.000  C
  C90      1.0000 0.58220  0.46750  0.43080  Biso   1.000  C
  C91      1.0000 0.64760  0.52230  0.40390  Biso   1.000  C
  C92      1.0000 0.59300  0.57890  0.40920  Biso   1.000  C
  C93      1.0000 0.47370  0.58680  0.44120  Biso   1.000  C
  C94      1.0000 0.41200  0.53390  0.46920  Biso   1.000  C
  C95      1.0000 0.46530  0.47500  0.46470  Biso   1.000  C
  C96      1.0000 0.40070  0.64650  0.44170  Biso   1.000  C
  C97      1.0000 0.48650  0.68130  0.25950  Biso   1.000  C
  C98      1.0000 0.27160  0.61600  0.22150  Biso   1.000  C
  C99      1.0000 0.47400  0.56840  0.27260  Biso   1.000  C
  C100     1.0000 0.50080  0.83470  0.48260  Biso   1.000  C
  C101     1.0000 0.74400  0.88860  0.45230  Biso   1.000  C
  C102     1.0000 0.68880  0.88530  0.54070  Biso   1.000  C
  C103     1.0000 0.64960  0.87600  0.76150  Biso   1.000  C
  C104     1.0000 0.67790  0.90720  0.71700  Biso   1.000  C
  C105     1.0000 0.74200  0.86740  0.68750  Biso   1.000  C
  C106     1.0000 0.75200  0.81110  0.71400  Biso   1.000  C
  C107     1.0000 0.79130  0.75430  0.69400  Biso   1.000  C
  C108     1.0000 0.78500  0.69910  0.72000  Biso   1.000  C
  C109     1.0000 0.80560  0.63830  0.70020  Biso   1.000  C
  C110     1.0000 0.81330  0.59840  0.73780  Biso   1.000  C
  C111     1.0000 0.80520  0.63490  0.78080  Biso   1.000  C
  C112     1.0000 0.84340  0.61490  0.82610  Biso   1.000  C
  C113     1.0000 0.83590  0.65160  0.86600  Biso   1.000  C
  C114     1.0000 0.88720  0.63760  0.91290  Biso   1.000  C
  C115     1.0000 0.85040  0.68180  0.94460  Biso   1.000  C
  C116     1.0000 0.77470  0.72510  0.91690  Biso   1.000  C
  C117     1.0000 0.69860  0.77260  0.93630  Biso   1.000  C
  C118     1.0000 0.63010  0.81450  0.90720  Biso   1.000  C
  C119     1.0000 0.53280  0.85810  0.92450  Biso   1.000  C
  C120     1.0000 0.49890  0.89400  0.88730  Biso   1.000  C
  C121     1.0000 0.56930  0.87070  0.84560  Biso   1.000  C
  C122     1.0000 0.57780  0.90130  0.80060  Biso   1.000  C
  C123     1.0000 0.84320  0.75640  0.64290  Biso   1.000  C
  C124     1.0000 0.98980  0.79060  0.63250  Biso   1.000  C
  C125     1.0000 0.05170  0.78990  0.58620  Biso   1.000  C
  C126     1.0000 0.96940  0.75670  0.55040  Biso   1.000  C
  C127     1.0000 0.82760  0.72600  0.55900  Biso   1.000  C
  C128     1.0000 0.76220  0.72620  0.60620  Biso   1.000  C
  C129     1.0000 0.04740  0.75570  0.50240  Biso   1.000  C
  C130     1.0000 0.88710  0.54980  0.83190  Biso   1.000  C
  C131     1.0000 0.01480  0.53160  0.80990  Biso   1.000  C
  C132     1.0000 0.05240  0.46940  0.81430  Biso   1.000  C
  C133     1.0000 0.96480  0.42570  0.84150  Biso   1.000  C
  C134     1.0000 0.84080  0.44310  0.86550  Biso   1.000  C
  C135     1.0000 0.80220  0.50450  0.86110  Biso   1.000  C
  C136     1.0000 0.00250  0.35970  0.84660  Biso   1.000  C
  C137     1.0000 0.69130  0.77700  0.98970  Biso   1.000  C
  C138     1.0000 0.75820  0.82850  0.01380  Biso   1.000  C
  C139     1.0000 0.75330  0.83410  0.06220  Biso   1.000  C
  C140     1.0000 0.67550  0.78480  0.08830  Biso   1.000  C
  C141     1.0000 0.60790  0.73330  0.06510  Biso   1.000  C
  C142     1.0000 0.61380  0.72790  0.01610  Biso   1.000  C
  C143     1.0000 0.66720  0.78700  0.14280  Biso   1.000  C
  C144     1.0000 0.52300  0.96310  0.79500  Biso   1.000  C
  C145     1.0000 0.57540  0.01050  0.82680  Biso   1.000  C
  C146     1.0000 0.52420  0.07070  0.82500  Biso   1.000  C
  C147     1.0000 0.42320  0.08320  0.78960  Biso   1.000  C
  C148     1.0000 0.37390  0.03650  0.75610  Biso   1.000  C
  C149     1.0000 0.42080  0.97700  0.75950  Biso   1.000  C
  C150     1.0000 0.35580  0.14490  0.79130  Biso   1.000  C
  C151     1.0000 0.29810  0.62450  0.96400  Biso   1.000  C
  C152     1.0000 0.28580  0.59730  0.01070  Biso   1.000  C
  C153     1.0000 0.23330  0.64020  0.04000  Biso   1.000  C
  C154     1.0000 0.21810  0.69450  0.01040  Biso   1.000  C
  C155     1.0000 0.18790  0.75260  0.02880  Biso   1.000  C
  C156     1.0000 0.17920  0.80510  0.00020  Biso   1.000  C
  C157     1.0000 0.16510  0.86790  0.01770  Biso   1.000  C
  C158     1.0000 0.13720  0.90290  0.97840  Biso   1.000  C
  C159     1.0000 0.13360  0.86260  0.93680  Biso   1.000  C
  C160     1.0000 0.08940  0.87880  0.89130  Biso   1.000  C
  C161     1.0000 0.10130  0.84040  0.85160  Biso   1.000  C
  C162     1.0000 0.05490  0.85350  0.80370  Biso   1.000  C
  C163     1.0000 0.10520  0.81130  0.77530  Biso   1.000  C
  C164     1.0000 0.18020  0.76980  0.80430  Biso   1.000  C
  C165     1.0000 0.25870  0.72170  0.78650  Biso   1.000  C
  C166     1.0000 0.32090  0.68060  0.81680  Biso   1.000  C
  C167     1.0000 0.41090  0.63120  0.79950  Biso   1.000  C
  C168     1.0000 0.43780  0.59540  0.83780  Biso   1.000  C
  C169     1.0000 0.36660  0.62160  0.87900  Biso   1.000  C
  C170     1.0000 0.36200  0.59540  0.92400  Biso   1.000  C
  C171     1.0000 0.16690  0.75710  0.08300  Biso   1.000  C
  C172     1.0000 0.03450  0.73050  0.10380  Biso   1.000  C
  C173     1.0000 0.01240  0.73390  0.15280  Biso   1.000  C
  C174     1.0000 0.13180  0.76810  0.18120  Biso   1.000  C
  C175     1.0000 0.26690  0.79660  0.15970  Biso   1.000  C
  C176     1.0000 0.28170  0.79240  0.11050  Biso   1.000  C
  C177     1.0000 0.11400  0.76940  0.23600  Biso   1.000  C
  C178     1.0000 0.03890  0.94280  0.88460  Biso   1.000  C
  C179     1.0000 0.11780  0.98580  0.85230  Biso   1.000  C
  C180     1.0000 0.08120  0.04710  0.84730  Biso   1.000  C
  C181     1.0000 0.96700  0.06830  0.87700  Biso   1.000  C
  C182     1.0000 0.88700  0.02350  0.90910  Biso   1.000  C
  C183     1.0000 0.91940  0.96260  0.91280  Biso   1.000  C
  C184     1.0000 0.94400  0.13620  0.87630  Biso   1.000  C
  C185     1.0000 0.27730  0.71660  0.73390  Biso   1.000  C
  C186     1.0000 0.20310  0.66160  0.71000  Biso   1.000  C
  C187     1.0000 0.22010  0.65540  0.65970  Biso   1.000  C
  C188     1.0000 0.31220  0.70170  0.63420  Biso   1.000  C
  C189     1.0000 0.38520  0.75570  0.65760  Biso   1.000  C
  C190     1.0000 0.36410  0.76290  0.70750  Biso   1.000  C
  C191     1.0000 0.34000  0.69340  0.58260  Biso   1.000  C
  C192     1.0000 0.41780  0.53250  0.93080  Biso   1.000  C
  C193     1.0000 0.35240  0.47770  0.90390  Biso   1.000  C
  C194     1.0000 0.40700  0.42110  0.90920  Biso   1.000  C
  C195     1.0000 0.52630  0.41320  0.94120  Biso   1.000  C
  C196     1.0000 0.58800  0.46610  0.96920  Biso   1.000  C
  C197     1.0000 0.53470  0.52500  0.96470  Biso   1.000  C
  C198     1.0000 0.59930  0.35350  0.94170  Biso   1.000  C
  C199     1.0000 0.51350  0.31870  0.75950  Biso   1.000  C
  C200     1.0000 0.72840  0.38400  0.72150  Biso   1.000  C
  C201     1.0000 0.52600  0.43160  0.77260  Biso   1.000  C
  C202     1.0000 0.49920  0.16530  0.98260  Biso   1.000  C
  C203     1.0000 0.25600  0.11140  0.95230  Biso   1.000  C
  C204     1.0000 0.31120  0.11470  0.04070  Biso   1.000  C
  N1       1.0000 0.29940  0.18390  0.26050  Biso   1.000  N
  N2       1.0000 0.22070  0.30380  0.27000  Biso   1.000  N
  N3       1.0000 0.22600  0.29170  0.36780  Biso   1.000  N
  N4       1.0000 0.35540  0.18030  0.35780  Biso   1.000  N
  N5       1.0000 0.74630  0.31630  0.46270  Biso   1.000  N
  N6       1.0000 0.83220  0.19730  0.45070  Biso   1.000  N
  N7       1.0000 0.82810  0.21490  0.35240  Biso   1.000  N
  N8       1.0000 0.69980  0.32500  0.36630  Biso   1.000  N
  N9       1.0000 0.41390  0.62470  0.25150  Biso   1.000  N
  N10      1.0000 0.63670  0.87000  0.49140  Biso   1.000  N
  N11      1.0000 0.70060  0.81610  0.76050  Biso   1.000  N
  N12      1.0000 0.77930  0.69620  0.77000  Biso   1.000  N
  N13      1.0000 0.77400  0.70830  0.86780  Biso   1.000  N
  N14      1.0000 0.64460  0.81970  0.85780  Biso   1.000  N
  N15      1.0000 0.25370  0.68370  0.96270  Biso   1.000  N
  N16      1.0000 0.16780  0.80270  0.95070  Biso   1.000  N
  N17      1.0000 0.17190  0.78510  0.85240  Biso   1.000  N
  N18      1.0000 0.30020  0.67500  0.86630  Biso   1.000  N
  N19      1.0000 0.58610  0.37530  0.75150  Biso   1.000  N
  N20      1.0000 0.36330  0.13000  0.99140  Biso   1.000  N
  O1       1.0000 0.81480  0.21830  0.99990  Biso   1.000  O
  O2       1.0000 0.01910  0.27190  0.96670  Biso   1.000  O
  O3       1.0000 0.88300  0.65330  0.32320  Biso   1.000  O
  O4       1.0000 0.07940  0.67830  0.37390  Biso   1.000  O
  O5       1.0000 0.27730  0.15780  0.66200  Biso   1.000  O
  O6       1.0000 0.38480  0.25930  0.66740  Biso   1.000  O
  O7       1.0000 0.62060  0.82050  0.32820  Biso   1.000  O
  O8       1.0000 0.73230  0.84070  0.25810  Biso   1.000  O
  O9       1.0000 0.76530  0.21130  0.75840  Biso   1.000  O
  O10      1.0000 0.01760  0.24660  0.75190  Biso   1.000  O
  O11      1.0000 0.98870  0.82810  0.34440  Biso   1.000  O
  O12      1.0000 0.13780  0.84460  0.40880  Biso   1.000  O
  O13      1.0000 0.56300  0.27160  0.06030  Biso   1.000  O
  O14      1.0000 0.74880  0.35340  0.06190  Biso   1.000  O
  O15      1.0000 0.45340  0.69010  0.41360  Biso   1.000  O
  O16      1.0000 0.28130  0.65120  0.46680  Biso   1.000  O
  O17      1.0000 0.60570  0.69140  0.28450  Biso   1.000  O
  O18      1.0000 0.45140  0.81960  0.44260  Biso   1.000  O
  O19      1.0000 0.75700  0.73850  0.39500  Biso   1.000  O
  O20      1.0000 0.32480  0.77340  0.34600  Biso   1.000  O
  O21      1.0000 0.18520  0.78170  0.49990  Biso   1.000  O
  O22      1.0000 0.98090  0.72810  0.46670  Biso   1.000  O
  O23      1.0000 0.11700  0.34670  0.82320  Biso   1.000  O
  O24      1.0000 0.92060  0.32170  0.87390  Biso   1.000  O
  O25      1.0000 0.72270  0.84220  0.16200  Biso   1.000  O
  O26      1.0000 0.61520  0.74070  0.16740  Biso   1.000  O
  O27      1.0000 0.37940  0.17950  0.82820  Biso   1.000  O
  O28      1.0000 0.26770  0.15930  0.75810  Biso   1.000  O
  O29      1.0000 0.23470  0.78870  0.25840  Biso   1.000  O
  O30      1.0000 0.98240  0.75340  0.25190  Biso   1.000  O
  O31      1.0000 0.01130  0.17190  0.84440  Biso   1.000  O
  O32      1.0000 0.86220  0.15540  0.90880  Biso   1.000  O
  O33      1.0000 0.43700  0.72840  0.56030  Biso   1.000  O
  O34      1.0000 0.25120  0.64660  0.56190  Biso   1.000  O
  O35      1.0000 0.54660  0.30990  0.91360  Biso   1.000  O
  O36      1.0000 0.71870  0.34880  0.96680  Biso   1.000  O
  O37      1.0000 0.39430  0.30860  0.78450  Biso   1.000  O
  O38      1.0000 0.54860  0.18040  0.94260  Biso   1.000  O
  O39      1.0000 0.24300  0.26150  0.89500  Biso   1.000  O
  O40      1.0000 0.67520  0.22660  0.84600  Biso   1.000  O
