data_image0
_cell_length_a       7.2169
_cell_length_b       16.9389
_cell_length_c       17.0897
_cell_angle_alpha    90
_cell_angle_beta     95.513
_cell_angle_gamma    90

_symmetry_space_group_name_H-M    P 1
_symmetry_int_tables_number       1

loop_
  _symmetry_equiv_pos_as_xyz
  'x, y, z'

loop_
  _atom_site_label
  _atom_site_occupancy
  _atom_site_fract_x
  _atom_site_fract_y
  _atom_site_fract_z
  _atom_site_thermal_displace_type
  _atom_site_B_iso_or_equiv
  _atom_site_type_symbol
  Zn1      1.0000 0.93182  0.79919  0.30864  Biso   1.000  Zn
  Zn2      1.0000 0.56818  0.29919  0.19136  Biso   1.000  Zn
  Zn3      1.0000 0.06818  0.20081  0.69136  Biso   1.000  Zn
  Zn4      1.0000 0.43182  0.70081  0.80864  Biso   1.000  Zn
  H1       1.0000 0.59370  0.92780  0.42570  Biso   1.000  H
  H2       1.0000 0.93260  0.93890  0.44750  Biso   1.000  H
  H3       1.0000 0.82250  0.01760  0.46010  Biso   1.000  H
  H4       1.0000 0.24680  0.66670  0.43600  Biso   1.000  H
  H5       1.0000 0.25280  0.65720  0.34510  Biso   1.000  H
  H6       1.0000 0.22710  0.79930  0.53410  Biso   1.000  H
  H7       1.0000 0.70350  0.86850  0.65300  Biso   1.000  H
  H8       1.0000 0.47040  0.48620  0.19810  Biso   1.000  H
  H9       1.0000 0.39260  0.53110  0.37080  Biso   1.000  H
  H10      1.0000 0.34870  0.54100  0.45840  Biso   1.000  H
  H11      1.0000 0.88800  0.72470  0.47930  Biso   1.000  H
  H12      1.0000 0.61490  0.65250  0.51640  Biso   1.000  H
  H13      1.0000 0.52560  0.72110  0.29530  Biso   1.000  H
  H14      1.0000 0.02040  0.55140  0.41030  Biso   1.000  H
  H15      1.0000 0.10470  0.46710  0.39940  Biso   1.000  H
  H16      1.0000 0.15350  0.50110  0.26920  Biso   1.000  H
  H17      1.0000 0.05620  0.58240  0.28080  Biso   1.000  H
  H18      1.0000 0.92530  0.37510  0.27280  Biso   1.000  H
  H19      1.0000 0.69920  0.58620  0.24350  Biso   1.000  H
  H20      1.0000 0.90630  0.42780  0.07430  Biso   1.000  H
  H21      1.0000 0.56740  0.43890  0.05250  Biso   1.000  H
  H22      1.0000 0.67750  0.51760  0.03990  Biso   1.000  H
  H23      1.0000 0.25320  0.16670  0.06400  Biso   1.000  H
  H24      1.0000 0.24720  0.15720  0.15490  Biso   1.000  H
  H25      1.0000 0.27290  0.29930  0.96590  Biso   1.000  H
  H26      1.0000 0.79650  0.36850  0.84700  Biso   1.000  H
  H27      1.0000 0.02960  0.98620  0.30190  Biso   1.000  H
  H28      1.0000 0.10740  0.03110  0.12920  Biso   1.000  H
  H29      1.0000 0.15130  0.04100  0.04160  Biso   1.000  H
  H30      1.0000 0.61200  0.22470  0.02070  Biso   1.000  H
  H31      1.0000 0.88510  0.15250  0.98360  Biso   1.000  H
  H32      1.0000 0.97440  0.22110  0.20470  Biso   1.000  H
  H33      1.0000 0.47960  0.05140  0.08970  Biso   1.000  H
  H34      1.0000 0.39530  0.96710  0.10060  Biso   1.000  H
  H35      1.0000 0.34650  0.00110  0.23080  Biso   1.000  H
  H36      1.0000 0.44380  0.08240  0.21920  Biso   1.000  H
  H37      1.0000 0.57470  0.87510  0.22720  Biso   1.000  H
  H38      1.0000 0.80080  0.08620  0.25650  Biso   1.000  H
  H39      1.0000 0.40630  0.07220  0.57430  Biso   1.000  H
  H40      1.0000 0.06740  0.06110  0.55250  Biso   1.000  H
  H41      1.0000 0.17750  0.98240  0.53990  Biso   1.000  H
  H42      1.0000 0.75320  0.33330  0.56400  Biso   1.000  H
  H43      1.0000 0.74720  0.34280  0.65490  Biso   1.000  H
  H44      1.0000 0.77290  0.20070  0.46590  Biso   1.000  H
  H45      1.0000 0.29650  0.13150  0.34700  Biso   1.000  H
  H46      1.0000 0.52960  0.51380  0.80190  Biso   1.000  H
  H47      1.0000 0.60740  0.46890  0.62920  Biso   1.000  H
  H48      1.0000 0.65130  0.45900  0.54160  Biso   1.000  H
  H49      1.0000 0.11200  0.27530  0.52070  Biso   1.000  H
  H50      1.0000 0.38510  0.34750  0.48360  Biso   1.000  H
  H51      1.0000 0.47440  0.27890  0.70470  Biso   1.000  H
  H52      1.0000 0.97960  0.44860  0.58970  Biso   1.000  H
  H53      1.0000 0.89530  0.53290  0.60060  Biso   1.000  H
  H54      1.0000 0.84650  0.49890  0.73080  Biso   1.000  H
  H55      1.0000 0.94380  0.41760  0.71920  Biso   1.000  H
  H56      1.0000 0.07470  0.62490  0.72720  Biso   1.000  H
  H57      1.0000 0.30080  0.41380  0.75650  Biso   1.000  H
  H58      1.0000 0.09370  0.57220  0.92570  Biso   1.000  H
  H59      1.0000 0.43260  0.56110  0.94750  Biso   1.000  H
  H60      1.0000 0.32250  0.48240  0.96010  Biso   1.000  H
  H61      1.0000 0.74680  0.83330  0.93600  Biso   1.000  H
  H62      1.0000 0.75280  0.84280  0.84510  Biso   1.000  H
  H63      1.0000 0.72710  0.70070  0.03410  Biso   1.000  H
  H64      1.0000 0.20350  0.63150  0.15300  Biso   1.000  H
  H65      1.0000 0.97040  0.01380  0.69810  Biso   1.000  H
  H66      1.0000 0.89260  0.96890  0.87080  Biso   1.000  H
  H67      1.0000 0.84870  0.95900  0.95840  Biso   1.000  H
  H68      1.0000 0.38800  0.77530  0.97930  Biso   1.000  H
  H69      1.0000 0.11490  0.84750  0.01640  Biso   1.000  H
  H70      1.0000 0.02560  0.77890  0.79530  Biso   1.000  H
  H71      1.0000 0.52040  0.94860  0.91030  Biso   1.000  H
  H72      1.0000 0.60470  0.03290  0.89940  Biso   1.000  H
  H73      1.0000 0.65350  0.99890  0.76920  Biso   1.000  H
  H74      1.0000 0.55620  0.91760  0.78080  Biso   1.000  H
  H75      1.0000 0.42530  0.12490  0.77280  Biso   1.000  H
  H76      1.0000 0.19920  0.91380  0.74350  Biso   1.000  H
  C1       1.0000 0.55950  0.90270  0.47060  Biso   1.000  C
  C2       1.0000 0.67430  0.90570  0.54110  Biso   1.000  C
  C3       1.0000 0.90990  0.97970  0.48520  Biso   1.000  C
  C4       1.0000 0.31510  0.64270  0.39590  Biso   1.000  C
  C5       1.0000 0.34120  0.82502  0.53564  Biso   1.000  C
  C6       1.0000 0.62420  0.86720  0.60681  Biso   1.000  C
  C7       1.0000 0.39330  0.86135  0.46888  Biso   1.000  C
  C8       1.0000 0.26840  0.85650  0.39230  Biso   1.000  C
  C9       1.0000 0.59150  0.47620  0.21950  Biso   1.000  C
  C10      1.0000 0.45770  0.82660  0.60500  Biso   1.000  C
  C11      1.0000 0.30760  0.55510  0.40450  Biso   1.000  C
  C12      1.0000 0.40620  0.78310  0.67620  Biso   1.000  C
  C13      1.0000 0.78060  0.71460  0.44630  Biso   1.000  C
  C14      1.0000 0.62970  0.67500  0.46780  Biso   1.000  C
  C15      1.0000 0.58330  0.71310  0.34570  Biso   1.000  C
  C16      1.0000 0.10930  0.52180  0.38290  Biso   1.000  C
  C17      1.0000 0.05830  0.52730  0.29620  Biso   1.000  C
  C18      1.0000 0.83940  0.41510  0.26030  Biso   1.000  C
  C19      1.0000 0.71660  0.53180  0.24420  Biso   1.000  C
  C20      1.0000 0.94050  0.40270  0.02940  Biso   1.000  C
  C21      1.0000 0.82570  0.40570  0.95890  Biso   1.000  C
  C22      1.0000 0.59010  0.47970  0.01480  Biso   1.000  C
  C23      1.0000 0.18490  0.14270  0.10410  Biso   1.000  C
  C24      1.0000 0.15880  0.32502  0.96436  Biso   1.000  C
  C25      1.0000 0.87580  0.36720  0.89319  Biso   1.000  C
  C26      1.0000 0.10670  0.36135  0.03112  Biso   1.000  C
  C27      1.0000 0.23160  0.35650  0.10770  Biso   1.000  C
  C28      1.0000 0.90850  0.97620  0.28050  Biso   1.000  C
  C29      1.0000 0.04230  0.32660  0.89500  Biso   1.000  C
  C30      1.0000 0.19240  0.05510  0.09550  Biso   1.000  C
  C31      1.0000 0.09380  0.28310  0.82380  Biso   1.000  C
  C32      1.0000 0.71940  0.21460  0.05370  Biso   1.000  C
  C33      1.0000 0.87030  0.17500  0.03220  Biso   1.000  C
  C34      1.0000 0.91670  0.21310  0.15430  Biso   1.000  C
  C35      1.0000 0.39070  0.02180  0.11710  Biso   1.000  C
  C36      1.0000 0.44170  0.02730  0.20380  Biso   1.000  C
  C37      1.0000 0.66060  0.91510  0.23970  Biso   1.000  C
  C38      1.0000 0.78340  0.03180  0.25580  Biso   1.000  C
  C39      1.0000 0.44050  0.09730  0.52940  Biso   1.000  C
  C40      1.0000 0.32570  0.09430  0.45890  Biso   1.000  C
  C41      1.0000 0.09010  0.02030  0.51480  Biso   1.000  C
  C42      1.0000 0.68490  0.35730  0.60410  Biso   1.000  C
  C43      1.0000 0.65880  0.17498  0.46436  Biso   1.000  C
  C44      1.0000 0.37580  0.13280  0.39319  Biso   1.000  C
  C45      1.0000 0.60670  0.13865  0.53112  Biso   1.000  C
  C46      1.0000 0.73160  0.14350  0.60770  Biso   1.000  C
  C47      1.0000 0.40850  0.52380  0.78050  Biso   1.000  C
  C48      1.0000 0.54230  0.17340  0.39500  Biso   1.000  C
  C49      1.0000 0.69240  0.44490  0.59550  Biso   1.000  C
  C50      1.0000 0.59380  0.21690  0.32380  Biso   1.000  C
  C51      1.0000 0.21940  0.28540  0.55370  Biso   1.000  C
  C52      1.0000 0.37030  0.32500  0.53220  Biso   1.000  C
  C53      1.0000 0.41670  0.28690  0.65430  Biso   1.000  C
  C54      1.0000 0.89070  0.47820  0.61710  Biso   1.000  C
  C55      1.0000 0.94170  0.47270  0.70380  Biso   1.000  C
  C56      1.0000 0.16060  0.58490  0.73970  Biso   1.000  C
  C57      1.0000 0.28340  0.46820  0.75580  Biso   1.000  C
  C58      1.0000 0.05950  0.59730  0.97060  Biso   1.000  C
  C59      1.0000 0.17430  0.59430  0.04110  Biso   1.000  C
  C60      1.0000 0.40990  0.52030  0.98520  Biso   1.000  C
  C61      1.0000 0.81510  0.85730  0.89590  Biso   1.000  C
  C62      1.0000 0.84120  0.67498  0.03564  Biso   1.000  C
  C63      1.0000 0.12420  0.63280  0.10681  Biso   1.000  C
  C64      1.0000 0.89330  0.63865  0.96888  Biso   1.000  C
  C65      1.0000 0.76840  0.64350  0.89230  Biso   1.000  C
  C66      1.0000 0.09150  0.02380  0.71950  Biso   1.000  C
  C67      1.0000 0.95770  0.67340  0.10500  Biso   1.000  C
  C68      1.0000 0.80760  0.94490  0.90450  Biso   1.000  C
  C69      1.0000 0.90620  0.71690  0.17620  Biso   1.000  C
  C70      1.0000 0.28060  0.78540  0.94630  Biso   1.000  C
  C71      1.0000 0.12970  0.82500  0.96780  Biso   1.000  C
  C72      1.0000 0.08330  0.78690  0.84570  Biso   1.000  C
  C73      1.0000 0.60930  0.97820  0.88290  Biso   1.000  C
  C74      1.0000 0.55830  0.97270  0.79620  Biso   1.000  C
  C75      1.0000 0.33940  0.08490  0.76030  Biso   1.000  C
  C76      1.0000 0.21660  0.96820  0.74420  Biso   1.000  C
  N1       1.0000 0.50400  0.67526  0.40246  Biso   1.000  N
  N2       1.0000 0.75220  0.73749  0.36926  Biso   1.000  N
  N3       1.0000 0.66810  0.40307  0.23026  Biso   1.000  N
  N4       1.0000 0.87580  0.49148  0.27072  Biso   1.000  N
  N5       1.0000 0.99600  0.17526  0.09754  Biso   1.000  N
  N6       1.0000 0.74780  0.23749  0.13074  Biso   1.000  N
  N7       1.0000 0.83190  0.90307  0.26974  Biso   1.000  N
  N8       1.0000 0.62420  0.99148  0.22928  Biso   1.000  N
  N9       1.0000 0.49600  0.32474  0.59754  Biso   1.000  N
  N10      1.0000 0.24780  0.26251  0.63074  Biso   1.000  N
  N11      1.0000 0.33190  0.59693  0.76974  Biso   1.000  N
  N12      1.0000 0.12420  0.50852  0.72928  Biso   1.000  N
  N13      1.0000 0.00400  0.82474  0.90246  Biso   1.000  N
  N14      1.0000 0.25220  0.76251  0.86926  Biso   1.000  N
  N15      1.0000 0.16810  0.09693  0.73026  Biso   1.000  N
  N16      1.0000 0.37580  0.00852  0.77072  Biso   1.000  N
  O1       1.0000 0.11890  0.81543  0.39671  Biso   1.000  O
  O2       1.0000 0.83900  0.94667  0.55131  Biso   1.000  O
  O3       1.0000 0.24390  0.76070  0.68008  Biso   1.000  O
  O4       1.0000 0.31020  0.88907  0.33256  Biso   1.000  O
  O5       1.0000 0.53700  0.77009  0.73153  Biso   1.000  O
  O6       1.0000 0.38110  0.31543  0.10329  Biso   1.000  O
  O7       1.0000 0.66100  0.44667  0.94869  Biso   1.000  O
  O8       1.0000 0.25610  0.26070  0.81992  Biso   1.000  O
  O9       1.0000 0.18980  0.38907  0.16744  Biso   1.000  O
  O10      1.0000 0.96300  0.27009  0.76847  Biso   1.000  O
  O11      1.0000 0.88110  0.18457  0.60329  Biso   1.000  O
  O12      1.0000 0.16100  0.05333  0.44869  Biso   1.000  O
  O13      1.0000 0.75610  0.23930  0.31992  Biso   1.000  O
  O14      1.0000 0.68980  0.11093  0.66744  Biso   1.000  O
  O15      1.0000 0.46300  0.22991  0.26847  Biso   1.000  O
  O16      1.0000 0.61890  0.68457  0.89671  Biso   1.000  O
  O17      1.0000 0.33900  0.55333  0.05131  Biso   1.000  O
  O18      1.0000 0.74390  0.73930  0.18008  Biso   1.000  O
  O19      1.0000 0.81020  0.61093  0.83256  Biso   1.000  O
  O20      1.0000 0.03700  0.72991  0.23153  Biso   1.000  O
