data_image0
_cell_length_a       8.407
_cell_length_b       10.28
_cell_length_c       17.655
_cell_angle_alpha    90
_cell_angle_beta     102.8
_cell_angle_gamma    90

_symmetry_space_group_name_H-M    "P 1"
_symmetry_int_tables_number       1

loop_
  _symmetry_equiv_pos_as_xyz
  'x, y, z'

loop_
  _atom_site_label
  _atom_site_occupancy
  _atom_site_fract_x
  _atom_site_fract_y
  _atom_site_fract_z
  _atom_site_thermal_displace_type
  _atom_site_B_iso_or_equiv
  _atom_site_type_symbol
  N1       1.0000 0.16660  0.57290  0.45100  Biso   1.000  N
  O1       1.0000 0.46980  0.28550  0.44375  Biso   1.000  O
  O2       1.0000 0.42010  0.39150  0.54183  Biso   1.000  O
  C1       1.0000 0.48480  0.29370  0.51600  Biso   1.000  C
  C2       1.0000 0.96250  0.73130  0.40520  Biso   1.000  C
  H1       1.0000 0.89300  0.77140  0.36340  Biso   1.000  H
  C3       1.0000 0.16510  0.60830  0.52400  Biso   1.000  C
  H2       1.0000 0.23350  0.56520  0.56490  Biso   1.000  H
  C4       1.0000 0.06630  0.70570  0.54060  Biso   1.000  C
  H3       1.0000 0.06940  0.72860  0.59180  Biso   1.000  H
  C5       1.0000 0.57670  0.19530  0.56970  Biso   1.000  C
  C6       1.0000 0.58760  0.20470  0.64910  Biso   1.000  C
  H4       1.0000 0.53580  0.27200  0.66940  Biso   1.000  H
  Cu1      1.0000 0.82566  0.05718  0.93193  Biso   1.000  Cu
  O3       1.0000 0.79060  0.03600  0.82336  Biso   1.000  O
  O4       1.0000 0.61990  0.20320  0.81307  Biso   1.000  O
  C7       1.0000 0.69370  0.12110  0.78390  Biso   1.000  C
  C8       1.0000 0.75360  0.01290  0.66650  Biso   1.000  C
  H5       1.0000 0.81330  0.95110  0.69950  Biso   1.000  H
  N2       1.0000 0.82520  0.89900  0.56130  Biso   1.000  N
  C9       1.0000 0.06490  0.63460  0.39270  Biso   1.000  C
  H6       1.0000 0.06420  0.61050  0.34190  Biso   1.000  H
  C10      1.0000 0.65270  0.09510  0.53750  Biso   1.000  C
  H7       1.0000 0.64290  0.08940  0.48410  Biso   1.000  H
  C11      1.0000 0.67690  0.11230  0.69760  Biso   1.000  C
  O5       1.0000 0.81250  0.95920  0.43678  Biso   1.000  O
  C12      1.0000 0.85890  0.88490  0.49090  Biso   1.000  C
  C13      1.0000 0.74350  0.00380  0.58760  Biso   1.000  C
  C14      1.0000 0.96230  0.76960  0.48040  Biso   1.000  C
  H8       1.0000 0.86000  0.84500  0.59200  Biso   1.000  H
  N3       1.0000 0.66660  0.92710  0.95100  Biso   1.000  N
  O6       1.0000 0.96980  0.21450  0.94375  Biso   1.000  O
  O7       1.0000 0.92010  0.10850  0.04183  Biso   1.000  O
  C15      1.0000 0.98480  0.20630  0.01600  Biso   1.000  C
  C16      1.0000 0.46250  0.76870  0.90520  Biso   1.000  C
  H9       1.0000 0.39300  0.72860  0.86340  Biso   1.000  H
  C17      1.0000 0.66510  0.89170  0.02400  Biso   1.000  C
  H10      1.0000 0.73350  0.93480  0.06490  Biso   1.000  H
  C18      1.0000 0.56630  0.79430  0.04060  Biso   1.000  C
  H11      1.0000 0.56940  0.77140  0.09180  Biso   1.000  H
  C19      1.0000 0.07670  0.30470  0.06970  Biso   1.000  C
  C20      1.0000 0.08760  0.29530  0.14910  Biso   1.000  C
  H12      1.0000 0.03580  0.22800  0.16940  Biso   1.000  H
  Cu2      1.0000 0.32566  0.44282  0.43193  Biso   1.000  Cu
  O8       1.0000 0.29060  0.46400  0.32336  Biso   1.000  O
  O9       1.0000 0.11990  0.29680  0.31307  Biso   1.000  O
  C21      1.0000 0.19370  0.37890  0.28390  Biso   1.000  C
  C22      1.0000 0.25360  0.48710  0.16650  Biso   1.000  C
  H13      1.0000 0.31330  0.54890  0.19950  Biso   1.000  H
  N4       1.0000 0.32520  0.60100  0.06130  Biso   1.000  N
  C23      1.0000 0.56490  0.86540  0.89270  Biso   1.000  C
  H14      1.0000 0.56420  0.88950  0.84190  Biso   1.000  H
  C24      1.0000 0.15270  0.40490  0.03750  Biso   1.000  C
  H15      1.0000 0.14290  0.41060  0.98410  Biso   1.000  H
  C25      1.0000 0.17690  0.38770  0.19760  Biso   1.000  C
  O10      1.0000 0.31250  0.54080  0.93678  Biso   1.000  O
  C26      1.0000 0.35890  0.61510  0.99090  Biso   1.000  C
  C27      1.0000 0.24350  0.49620  0.08760  Biso   1.000  C
  C28      1.0000 0.46230  0.73040  0.98040  Biso   1.000  C
  H16      1.0000 0.36000  0.65500  0.09200  Biso   1.000  H
  N5       1.0000 0.33340  0.07290  0.04900  Biso   1.000  N
  O11      1.0000 0.03020  0.78550  0.05625  Biso   1.000  O
  O12      1.0000 0.07990  0.89150  0.95817  Biso   1.000  O
  C29      1.0000 0.01520  0.79370  0.98400  Biso   1.000  C
  C30      1.0000 0.53750  0.23130  0.09480  Biso   1.000  C
  H17      1.0000 0.60700  0.27140  0.13660  Biso   1.000  H
  C31      1.0000 0.33490  0.10830  0.97600  Biso   1.000  C
  H18      1.0000 0.26650  0.06520  0.93510  Biso   1.000  H
  C32      1.0000 0.43370  0.20570  0.95940  Biso   1.000  C
  H19      1.0000 0.43060  0.22860  0.90820  Biso   1.000  H
  C33      1.0000 0.92330  0.69530  0.93030  Biso   1.000  C
  C34      1.0000 0.91240  0.70470  0.85090  Biso   1.000  C
  H20      1.0000 0.96420  0.77200  0.83060  Biso   1.000  H
  Cu3      1.0000 0.67434  0.55718  0.56807  Biso   1.000  Cu
  O13      1.0000 0.70940  0.53600  0.67664  Biso   1.000  O
  O14      1.0000 0.88010  0.70320  0.68693  Biso   1.000  O
  C35      1.0000 0.80630  0.62110  0.71610  Biso   1.000  C
  C36      1.0000 0.74640  0.51290  0.83350  Biso   1.000  C
  H21      1.0000 0.68670  0.45110  0.80050  Biso   1.000  H
  N6       1.0000 0.67480  0.39900  0.93870  Biso   1.000  N
  C37      1.0000 0.43510  0.13460  0.10730  Biso   1.000  C
  H22      1.0000 0.43580  0.11050  0.15810  Biso   1.000  H
  C38      1.0000 0.84730  0.59510  0.96250  Biso   1.000  C
  H23      1.0000 0.85710  0.58940  0.01590  Biso   1.000  H
  C39      1.0000 0.82310  0.61230  0.80240  Biso   1.000  C
  O15      1.0000 0.68750  0.45920  0.06322  Biso   1.000  O
  C40      1.0000 0.64110  0.38490  0.00910  Biso   1.000  C
  C41      1.0000 0.75650  0.50380  0.91240  Biso   1.000  C
  C42      1.0000 0.53770  0.26960  0.01960  Biso   1.000  C
  H24      1.0000 0.64000  0.34500  0.90800  Biso   1.000  H
  N7       1.0000 0.83340  0.42710  0.54900  Biso   1.000  N
  O16      1.0000 0.53020  0.71450  0.55625  Biso   1.000  O
  O17      1.0000 0.57990  0.60850  0.45817  Biso   1.000  O
  C43      1.0000 0.51520  0.70630  0.48400  Biso   1.000  C
  C44      1.0000 0.03750  0.26870  0.59480  Biso   1.000  C
  H25      1.0000 0.10700  0.22860  0.63660  Biso   1.000  H
  C45      1.0000 0.83490  0.39170  0.47600  Biso   1.000  C
  H26      1.0000 0.76650  0.43480  0.43510  Biso   1.000  H
  C46      1.0000 0.93370  0.29430  0.45940  Biso   1.000  C
  H27      1.0000 0.93060  0.27140  0.40820  Biso   1.000  H
  C47      1.0000 0.42330  0.80470  0.43030  Biso   1.000  C
  C48      1.0000 0.41240  0.79530  0.35090  Biso   1.000  C
  H28      1.0000 0.46420  0.72800  0.33060  Biso   1.000  H
  Cu4      1.0000 0.17434  0.94282  0.06807  Biso   1.000  Cu
  O18      1.0000 0.20940  0.96400  0.17664  Biso   1.000  O
  O19      1.0000 0.38010  0.79680  0.18693  Biso   1.000  O
  C49      1.0000 0.30630  0.87890  0.21610  Biso   1.000  C
  C50      1.0000 0.24640  0.98710  0.33350  Biso   1.000  C
  H29      1.0000 0.18670  0.04890  0.30050  Biso   1.000  H
  N8       1.0000 0.17480  0.10100  0.43870  Biso   1.000  N
  C51      1.0000 0.93510  0.36540  0.60730  Biso   1.000  C
  H30      1.0000 0.93580  0.38950  0.65810  Biso   1.000  H
  C52      1.0000 0.34730  0.90490  0.46250  Biso   1.000  C
  H31      1.0000 0.35710  0.91060  0.51590  Biso   1.000  H
  C53      1.0000 0.32310  0.88770  0.30240  Biso   1.000  C
  O20      1.0000 0.18750  0.04080  0.56322  Biso   1.000  O
  C54      1.0000 0.14110  0.11510  0.50910  Biso   1.000  C
  C55      1.0000 0.25650  0.99620  0.41240  Biso   1.000  C
  C56      1.0000 0.03770  0.23040  0.51960  Biso   1.000  C
  H32      1.0000 0.14000  0.15500  0.40800  Biso   1.000  H
