data_image0
_cell_length_a       10.998
_cell_length_b       11.8
_cell_length_c       12.793
_cell_angle_alpha    70.09
_cell_angle_beta     66.74
_cell_angle_gamma    73.43

_symmetry_space_group_name_H-M    "P 1"
_symmetry_int_tables_number       1

loop_
  _symmetry_equiv_pos_as_xyz
  'x, y, z'

loop_
  _atom_site_label
  _atom_site_occupancy
  _atom_site_fract_x
  _atom_site_fract_y
  _atom_site_fract_z
  _atom_site_thermal_displace_type
  _atom_site_B_iso_or_equiv
  _atom_site_type_symbol
  N1       1.0000 0.20070  0.35310  0.43940  Biso   1.000  N
  N2       1.0000 0.36760  0.21050  0.19210  Biso   1.000  N
  H1       1.0000 0.40390  0.13760  0.18430  Biso   1.000  H
  N3       1.0000 0.11390  0.66380  0.35900  Biso   1.000  N
  N4       1.0000 0.46540  0.70260  0.20910  Biso   1.000  N
  H2       1.0000 0.50940  0.76040  0.16210  Biso   1.000  H
  N5       1.0000 0.92890  0.47970  0.35260  Biso   1.000  N
  N6       1.0000 0.82670  0.24200  0.29540  Biso   1.000  N
  H3       1.0000 0.82340  0.22720  0.23530  Biso   1.000  H
  C1       1.0000 0.23730  0.33130  0.33360  Biso   1.000  C
  H4       1.0000 0.19480  0.38380  0.28040  Biso   1.000  H
  C2       1.0000 0.33570  0.23380  0.30000  Biso   1.000  C
  C3       1.0000 0.39750  0.15770  0.38180  Biso   1.000  C
  H5       1.0000 0.46440  0.09160  0.36340  Biso   1.000  H
  C4       1.0000 0.35940  0.18040  0.48970  Biso   1.000  C
  H6       1.0000 0.40040  0.12980  0.54460  Biso   1.000  H
  C5       1.0000 0.26050  0.27800  0.51630  Biso   1.000  C
  H7       1.0000 0.23470  0.29210  0.59000  Biso   1.000  H
  C6       1.0000 0.34180  0.30430  0.09350  Biso   1.000  C
  H8       1.0000 0.24690  0.33940  0.11630  Biso   1.000  H
  H9       1.0000 0.36110  0.26700  0.03050  Biso   1.000  H
  C7       1.0000 0.42230  0.40630  0.04650  Biso   1.000  C
  C8       1.0000 0.36280  0.52790  0.02770  Biso   1.000  C
  H10      1.0000 0.27010  0.54860  0.04500  Biso   1.000  H
  C9       1.0000 0.56120  0.38040  0.01650  Biso   1.000  C
  H11      1.0000 0.60440  0.29920  0.02640  Biso   1.000  H
  C10      1.0000 0.24800  0.64020  0.32170  Biso   1.000  C
  H12      1.0000 0.29030  0.56140  0.34920  Biso   1.000  H
  C11      1.0000 0.32880  0.72770  0.24330  Biso   1.000  C
  C12      1.0000 0.26230  0.84350  0.20090  Biso   1.000  C
  H13      1.0000 0.31130  0.90430  0.14790  Biso   1.000  H
  C13      1.0000 0.12620  0.86760  0.23690  Biso   1.000  C
  H14      1.0000 0.08150  0.94440  0.20720  Biso   1.000  H
  C14      1.0000 0.05320  0.77700  0.31860  Biso   1.000  C
  H15      1.0000 0.95980  0.79580  0.34560  Biso   1.000  H
  C15      1.0000 0.53870  0.58510  0.24760  Biso   1.000  C
  H16      1.0000 0.63360  0.58620  0.20490  Biso   1.000  H
  H17      1.0000 0.51360  0.52570  0.22630  Biso   1.000  H
  C16      1.0000 0.51850  0.54150  0.37930  Biso   1.000  C
  C17      1.0000 0.50000  0.62130  0.44240  Biso   1.000  C
  H18      1.0000 0.50000  0.70400  0.40460  Biso   1.000  H
  C18      1.0000 0.51870  0.41910  0.43750  Biso   1.000  C
  H19      1.0000 0.53160  0.36310  0.39600  Biso   1.000  H
  C19      1.0000 0.88740  0.37690  0.36810  Biso   1.000  C
  H20      1.0000 0.87070  0.32170  0.44200  Biso   1.000  H
  C20      1.0000 0.86790  0.34850  0.27970  Biso   1.000  C
  C21      1.0000 0.89140  0.43390  0.16970  Biso   1.000  C
  H21      1.0000 0.88040  0.41900  0.10740  Biso   1.000  H
  C22      1.0000 0.93120  0.54010  0.15540  Biso   1.000  C
  H22      1.0000 0.94540  0.59890  0.08350  Biso   1.000  H
  C23      1.0000 0.94970  0.55890  0.24780  Biso   1.000  C
  H23      1.0000 0.97820  0.63060  0.23620  Biso   1.000  H
  C24      1.0000 0.78930  0.15500  0.40770  Biso   1.000  C
  H24      1.0000 0.73990  0.10170  0.40290  Biso   1.000  H
  H25      1.0000 0.72800  0.19930  0.46530  Biso   1.000  H
  C25      1.0000 0.90040  0.07610  0.45310  Biso   1.000  C
  C26      1.0000 0.86870  0.99760  0.56400  Biso   1.000  C
  H26      1.0000 0.77870  0.99540  0.60880  Biso   1.000  H
  C27      1.0000 0.03510  0.07700  0.38960  Biso   1.000  C
  H27      1.0000 0.06040  0.12910  0.31440  Biso   1.000  H
  N7       1.0000 0.79930  0.64690  0.56060  Biso   1.000  N
  N8       1.0000 0.63240  0.78950  0.80790  Biso   1.000  N
  H28      1.0000 0.59610  0.86240  0.81570  Biso   1.000  H
  N9       1.0000 0.88610  0.33620  0.64100  Biso   1.000  N
  N10      1.0000 0.53460  0.29740  0.79090  Biso   1.000  N
  H29      1.0000 0.49060  0.23960  0.83790  Biso   1.000  H
  N11      1.0000 0.07110  0.52030  0.64740  Biso   1.000  N
  N12      1.0000 0.17330  0.75800  0.70460  Biso   1.000  N
  H30      1.0000 0.17660  0.77280  0.76470  Biso   1.000  H
  C28      1.0000 0.76270  0.66870  0.66640  Biso   1.000  C
  H31      1.0000 0.80520  0.61620  0.71960  Biso   1.000  H
  C29      1.0000 0.66430  0.76620  0.70000  Biso   1.000  C
  C30      1.0000 0.60250  0.84230  0.61820  Biso   1.000  C
  H32      1.0000 0.53560  0.90840  0.63660  Biso   1.000  H
  C31      1.0000 0.64060  0.81960  0.51030  Biso   1.000  C
  H33      1.0000 0.59960  0.87020  0.45540  Biso   1.000  H
  C32      1.0000 0.73950  0.72200  0.48370  Biso   1.000  C
  H34      1.0000 0.76530  0.70790  0.41000  Biso   1.000  H
  C33      1.0000 0.65820  0.69570  0.90650  Biso   1.000  C
  H35      1.0000 0.75310  0.66060  0.88370  Biso   1.000  H
  H36      1.0000 0.63890  0.73300  0.96950  Biso   1.000  H
  C34      1.0000 0.57770  0.59370  0.95350  Biso   1.000  C
  C35      1.0000 0.63720  0.47210  0.97230  Biso   1.000  C
  H37      1.0000 0.72990  0.45140  0.95500  Biso   1.000  H
  C36      1.0000 0.43880  0.61960  0.98350  Biso   1.000  C
  H38      1.0000 0.39560  0.70080  0.97360  Biso   1.000  H
  C37      1.0000 0.75200  0.35980  0.67830  Biso   1.000  C
  H39      1.0000 0.70970  0.43860  0.65080  Biso   1.000  H
  C38      1.0000 0.67120  0.27230  0.75670  Biso   1.000  C
  C39      1.0000 0.73770  0.15650  0.79910  Biso   1.000  C
  H40      1.0000 0.68870  0.09570  0.85210  Biso   1.000  H
  C40      1.0000 0.87380  0.13240  0.76310  Biso   1.000  C
  H41      1.0000 0.91850  0.05560  0.79280  Biso   1.000  H
  C41      1.0000 0.94680  0.22300  0.68140  Biso   1.000  C
  H42      1.0000 0.04020  0.20420  0.65440  Biso   1.000  H
  C42      1.0000 0.46130  0.41490  0.75240  Biso   1.000  C
  H43      1.0000 0.36640  0.41380  0.79510  Biso   1.000  H
  H44      1.0000 0.48640  0.47430  0.77370  Biso   1.000  H
  C43      1.0000 0.48150  0.45850  0.62070  Biso   1.000  C
  C44      1.0000 0.50000  0.37870  0.55760  Biso   1.000  C
  H45      1.0000 0.50000  0.29600  0.59540  Biso   1.000  H
  C45      1.0000 0.48130  0.58090  0.56250  Biso   1.000  C
  H46      1.0000 0.46840  0.63690  0.60400  Biso   1.000  H
  C46      1.0000 0.11260  0.62310  0.63190  Biso   1.000  C
  H47      1.0000 0.12930  0.67830  0.55800  Biso   1.000  H
  C47      1.0000 0.13210  0.65150  0.72030  Biso   1.000  C
  C48      1.0000 0.10860  0.56610  0.83030  Biso   1.000  C
  H48      1.0000 0.11960  0.58100  0.89260  Biso   1.000  H
  C49      1.0000 0.06880  0.45990  0.84460  Biso   1.000  C
  H49      1.0000 0.05460  0.40110  0.91650  Biso   1.000  H
  C50      1.0000 0.05030  0.44110  0.75220  Biso   1.000  C
  H50      1.0000 0.02180  0.36940  0.76380  Biso   1.000  H
  C51      1.0000 0.21070  0.84500  0.59230  Biso   1.000  C
  H51      1.0000 0.26010  0.89830  0.59710  Biso   1.000  H
  H52      1.0000 0.27200  0.80070  0.53470  Biso   1.000  H
  C52      1.0000 0.09960  0.92390  0.54690  Biso   1.000  C
  C53      1.0000 0.13130  0.00240  0.43600  Biso   1.000  C
  H53      1.0000 0.22130  0.00460  0.39120  Biso   1.000  H
  C54      1.0000 0.96490  0.92300  0.61040  Biso   1.000  C
  H54      1.0000 0.93960  0.87090  0.68560  Biso   1.000  H
  Cd1      1.0000 0.00000  0.50000  0.50000  Biso   1.000  Cd
