data_image0
_cell_length_a       17.0151
_cell_length_b       17.0151
_cell_length_c       21.1625
_cell_angle_alpha    66.296
_cell_angle_beta     66.296
_cell_angle_gamma    60

_symmetry_space_group_name_H-M    P 1
_symmetry_int_tables_number       1

loop_
  _symmetry_equiv_pos_as_xyz
  'x, y, z'

loop_
  _atom_site_label
  _atom_site_occupancy
  _atom_site_fract_x
  _atom_site_fract_y
  _atom_site_fract_z
  _atom_site_thermal_displace_type
  _atom_site_B_iso_or_equiv
  _atom_site_type_symbol
  Gd1      1.0000 0.15470  0.05250  0.89682  Biso   1.000  Gd
  Gd2      1.0000 0.05250  0.89598  0.89682  Biso   1.000  Gd
  Gd3      1.0000 0.89598  0.15470  0.89682  Biso   1.000  Gd
  Gd4      1.0000 0.34530  0.60402  0.60318  Biso   1.000  Gd
  Gd5      1.0000 0.44750  0.34530  0.60318  Biso   1.000  Gd
  Gd6      1.0000 0.60402  0.44750  0.60318  Biso   1.000  Gd
  Gd7      1.0000 0.84530  0.94750  0.10318  Biso   1.000  Gd
  Gd8      1.0000 0.94750  0.10402  0.10318  Biso   1.000  Gd
  Gd9      1.0000 0.10402  0.84530  0.10318  Biso   1.000  Gd
  Gd10     1.0000 0.65470  0.39598  0.39682  Biso   1.000  Gd
  Gd11     1.0000 0.55250  0.65470  0.39682  Biso   1.000  Gd
  Gd12     1.0000 0.39598  0.55250  0.39682  Biso   1.000  Gd
  Gd13     1.0000 0.27613  0.22387  0.75000  Biso   1.000  Gd
  Gd14     1.0000 0.22387  0.75000  0.75000  Biso   1.000  Gd
  Gd15     1.0000 0.75000  0.27613  0.75000  Biso   1.000  Gd
  Gd16     1.0000 0.72387  0.77613  0.25000  Biso   1.000  Gd
  Gd17     1.0000 0.77613  0.25000  0.25000  Biso   1.000  Gd
  Gd18     1.0000 0.25000  0.72387  0.25000  Biso   1.000  Gd
  H1       1.0000 0.13330  0.28100  0.05190  Biso   1.000  H
  H2       1.0000 0.21880  0.37090  0.97930  Biso   1.000  H
  H3       1.0000 0.27860  0.37270  0.85990  Biso   1.000  H
  H4       1.0000 0.02900  0.43050  0.70660  Biso   1.000  H
  H5       1.0000 0.92540  0.53500  0.63490  Biso   1.000  H
  H6       1.0000 0.81210  0.49710  0.63730  Biso   1.000  H
  H7       1.0000 0.28100  0.53380  0.05190  Biso   1.000  H
  H8       1.0000 0.37090  0.43100  0.97930  Biso   1.000  H
  H9       1.0000 0.37270  0.48880  0.85990  Biso   1.000  H
  H10      1.0000 0.43050  0.83390  0.70660  Biso   1.000  H
  H11      1.0000 0.53500  0.90470  0.63490  Biso   1.000  H
  H12      1.0000 0.49710  0.05350  0.63730  Biso   1.000  H
  H13      1.0000 0.53380  0.13330  0.05190  Biso   1.000  H
  H14      1.0000 0.43100  0.21880  0.97930  Biso   1.000  H
  H15      1.0000 0.48880  0.27860  0.85990  Biso   1.000  H
  H16      1.0000 0.83390  0.02900  0.70660  Biso   1.000  H
  H17      1.0000 0.90470  0.92540  0.63490  Biso   1.000  H
  H18      1.0000 0.05350  0.81210  0.63730  Biso   1.000  H
  H19      1.0000 0.36670  0.96620  0.44810  Biso   1.000  H
  H20      1.0000 0.28120  0.06900  0.52070  Biso   1.000  H
  H21      1.0000 0.22140  0.01120  0.64010  Biso   1.000  H
  H22      1.0000 0.47100  0.66610  0.79340  Biso   1.000  H
  H23      1.0000 0.57460  0.59530  0.86510  Biso   1.000  H
  H24      1.0000 0.68790  0.44650  0.86270  Biso   1.000  H
  H25      1.0000 0.21900  0.36670  0.44810  Biso   1.000  H
  H26      1.0000 0.12910  0.28120  0.52070  Biso   1.000  H
  H27      1.0000 0.12730  0.22140  0.64010  Biso   1.000  H
  H28      1.0000 0.06950  0.47100  0.79340  Biso   1.000  H
  H29      1.0000 0.96500  0.57460  0.86510  Biso   1.000  H
  H30      1.0000 0.00290  0.68790  0.86270  Biso   1.000  H
  H31      1.0000 0.96620  0.21900  0.44810  Biso   1.000  H
  H32      1.0000 0.06900  0.12910  0.52070  Biso   1.000  H
  H33      1.0000 0.01120  0.12730  0.64010  Biso   1.000  H
  H34      1.0000 0.66610  0.06950  0.79340  Biso   1.000  H
  H35      1.0000 0.59530  0.96500  0.86510  Biso   1.000  H
  H36      1.0000 0.44650  0.00290  0.86270  Biso   1.000  H
  H37      1.0000 0.86670  0.71900  0.94810  Biso   1.000  H
  H38      1.0000 0.78120  0.62910  0.02070  Biso   1.000  H
  H39      1.0000 0.72140  0.62730  0.14010  Biso   1.000  H
  H40      1.0000 0.97100  0.56950  0.29340  Biso   1.000  H
  H41      1.0000 0.07460  0.46500  0.36510  Biso   1.000  H
  H42      1.0000 0.18790  0.50290  0.36270  Biso   1.000  H
  H43      1.0000 0.71900  0.46620  0.94810  Biso   1.000  H
  H44      1.0000 0.62910  0.56900  0.02070  Biso   1.000  H
  H45      1.0000 0.62730  0.51120  0.14010  Biso   1.000  H
  H46      1.0000 0.56950  0.16610  0.29340  Biso   1.000  H
  H47      1.0000 0.46500  0.09530  0.36510  Biso   1.000  H
  H48      1.0000 0.50290  0.94650  0.36270  Biso   1.000  H
  H49      1.0000 0.46620  0.86670  0.94810  Biso   1.000  H
  H50      1.0000 0.56900  0.78120  0.02070  Biso   1.000  H
  H51      1.0000 0.51120  0.72140  0.14010  Biso   1.000  H
  H52      1.0000 0.16610  0.97100  0.29340  Biso   1.000  H
  H53      1.0000 0.09530  0.07460  0.36510  Biso   1.000  H
  H54      1.0000 0.94650  0.18790  0.36270  Biso   1.000  H
  H55      1.0000 0.63330  0.03380  0.55190  Biso   1.000  H
  H56      1.0000 0.71880  0.93100  0.47930  Biso   1.000  H
  H57      1.0000 0.77860  0.98880  0.35990  Biso   1.000  H
  H58      1.0000 0.52900  0.33390  0.20660  Biso   1.000  H
  H59      1.0000 0.42540  0.40470  0.13490  Biso   1.000  H
  H60      1.0000 0.31210  0.55350  0.13730  Biso   1.000  H
  H61      1.0000 0.78100  0.63330  0.55190  Biso   1.000  H
  H62      1.0000 0.87090  0.71880  0.47930  Biso   1.000  H
  H63      1.0000 0.87270  0.77860  0.35990  Biso   1.000  H
  H64      1.0000 0.93050  0.52900  0.20660  Biso   1.000  H
  H65      1.0000 0.03500  0.42540  0.13490  Biso   1.000  H
  H66      1.0000 0.99710  0.31210  0.13730  Biso   1.000  H
  H67      1.0000 0.03380  0.78100  0.55190  Biso   1.000  H
  H68      1.0000 0.93100  0.87090  0.47930  Biso   1.000  H
  H69      1.0000 0.98880  0.87270  0.35990  Biso   1.000  H
  H70      1.0000 0.33390  0.93050  0.20660  Biso   1.000  H
  H71      1.0000 0.40470  0.03500  0.13490  Biso   1.000  H
  H72      1.0000 0.55350  0.99710  0.13730  Biso   1.000  H
  H73      1.0000 0.00000  0.00000  0.00000  Biso   1.000  H
  H74      1.0000 0.50000  0.50000  0.50000  Biso   1.000  H
  C1       1.0000 0.20941  0.21181  0.90877  Biso   1.000  C
  C2       1.0000 0.16031  0.21561  0.97987  Biso   1.000  C
  C3       1.0000 0.16391  0.27731  0.00507  Biso   1.000  C
  C4       1.0000 0.21223  0.33313  0.96151  Biso   1.000  C
  C5       1.0000 0.25065  0.33125  0.89065  Biso   1.000  C
  C6       1.0000 0.09986  0.16276  0.02502  Biso   1.000  C
  C7       1.0000 0.90867  0.31117  0.74509  Biso   1.000  C
  C8       1.0000 0.97722  0.33122  0.74944  Biso   1.000  C
  C9       1.0000 0.98328  0.41568  0.70666  Biso   1.000  C
  C10      1.0000 0.92160  0.47830  0.66370  Biso   1.000  C
  C11      1.0000 0.85470  0.45450  0.66490  Biso   1.000  C
  C12      1.0000 0.04426  0.26556  0.79462  Biso   1.000  C
  C13      1.0000 0.21181  0.67001  0.90877  Biso   1.000  C
  C14      1.0000 0.21561  0.64421  0.97987  Biso   1.000  C
  C15      1.0000 0.27731  0.55371  0.00507  Biso   1.000  C
  C16      1.0000 0.33313  0.49313  0.96151  Biso   1.000  C
  C17      1.0000 0.33125  0.52745  0.89065  Biso   1.000  C
  C18      1.0000 0.16276  0.71236  0.02502  Biso   1.000  C
  C19      1.0000 0.31117  0.03507  0.74509  Biso   1.000  C
  C20      1.0000 0.33122  0.94212  0.74944  Biso   1.000  C
  C21      1.0000 0.41568  0.89438  0.70666  Biso   1.000  C
  C22      1.0000 0.47830  0.93640  0.66370  Biso   1.000  C
  C23      1.0000 0.45450  0.02590  0.66490  Biso   1.000  C
  C24      1.0000 0.26556  0.89556  0.79462  Biso   1.000  C
  C25      1.0000 0.67001  0.20941  0.90877  Biso   1.000  C
  C26      1.0000 0.64421  0.16031  0.97987  Biso   1.000  C
  C27      1.0000 0.55371  0.16391  0.00507  Biso   1.000  C
  C28      1.0000 0.49313  0.21223  0.96151  Biso   1.000  C
  C29      1.0000 0.52745  0.25065  0.89065  Biso   1.000  C
  C30      1.0000 0.71236  0.09986  0.02502  Biso   1.000  C
  C31      1.0000 0.03507  0.90867  0.74509  Biso   1.000  C
  C32      1.0000 0.94212  0.97722  0.74944  Biso   1.000  C
  C33      1.0000 0.89438  0.98328  0.70666  Biso   1.000  C
  C34      1.0000 0.93640  0.92160  0.66370  Biso   1.000  C
  C35      1.0000 0.02590  0.85470  0.66490  Biso   1.000  C
  C36      1.0000 0.89556  0.04426  0.79462  Biso   1.000  C
  C37      1.0000 0.29059  0.82999  0.59123  Biso   1.000  C
  C38      1.0000 0.33969  0.85579  0.52013  Biso   1.000  C
  C39      1.0000 0.33609  0.94629  0.49493  Biso   1.000  C
  C40      1.0000 0.28777  0.00687  0.53849  Biso   1.000  C
  C41      1.0000 0.24935  0.97255  0.60935  Biso   1.000  C
  C42      1.0000 0.40014  0.78764  0.47498  Biso   1.000  C
  C43      1.0000 0.59133  0.46493  0.75491  Biso   1.000  C
  C44      1.0000 0.52278  0.55788  0.75056  Biso   1.000  C
  C45      1.0000 0.51672  0.60562  0.79334  Biso   1.000  C
  C46      1.0000 0.57840  0.56360  0.83630  Biso   1.000  C
  C47      1.0000 0.64530  0.47410  0.83510  Biso   1.000  C
  C48      1.0000 0.45574  0.60444  0.70538  Biso   1.000  C
  C49      1.0000 0.28819  0.29059  0.59123  Biso   1.000  C
  C50      1.0000 0.28439  0.33969  0.52013  Biso   1.000  C
  C51      1.0000 0.22269  0.33609  0.49493  Biso   1.000  C
  C52      1.0000 0.16687  0.28777  0.53849  Biso   1.000  C
  C53      1.0000 0.16875  0.24935  0.60935  Biso   1.000  C
  C54      1.0000 0.33724  0.40014  0.47498  Biso   1.000  C
  C55      1.0000 0.18883  0.59133  0.75491  Biso   1.000  C
  C56      1.0000 0.16878  0.52278  0.75056  Biso   1.000  C
  C57      1.0000 0.08432  0.51672  0.79334  Biso   1.000  C
  C58      1.0000 0.02170  0.57840  0.83630  Biso   1.000  C
  C59      1.0000 0.04550  0.64530  0.83510  Biso   1.000  C
  C60      1.0000 0.23444  0.45574  0.70538  Biso   1.000  C
  C61      1.0000 0.82999  0.28819  0.59123  Biso   1.000  C
  C62      1.0000 0.85579  0.28439  0.52013  Biso   1.000  C
  C63      1.0000 0.94629  0.22269  0.49493  Biso   1.000  C
  C64      1.0000 0.00687  0.16687  0.53849  Biso   1.000  C
  C65      1.0000 0.97255  0.16875  0.60935  Biso   1.000  C
  C66      1.0000 0.78764  0.33724  0.47498  Biso   1.000  C
  C67      1.0000 0.46493  0.18883  0.75491  Biso   1.000  C
  C68      1.0000 0.55788  0.16878  0.75056  Biso   1.000  C
  C69      1.0000 0.60562  0.08432  0.79334  Biso   1.000  C
  C70      1.0000 0.56360  0.02170  0.83630  Biso   1.000  C
  C71      1.0000 0.47410  0.04550  0.83510  Biso   1.000  C
  C72      1.0000 0.60444  0.23444  0.70538  Biso   1.000  C
  C73      1.0000 0.79059  0.78819  0.09123  Biso   1.000  C
  C74      1.0000 0.83969  0.78439  0.02013  Biso   1.000  C
  C75      1.0000 0.83609  0.72269  0.99493  Biso   1.000  C
  C76      1.0000 0.78777  0.66687  0.03849  Biso   1.000  C
  C77      1.0000 0.74935  0.66875  0.10935  Biso   1.000  C
  C78      1.0000 0.90014  0.83724  0.97498  Biso   1.000  C
  C79      1.0000 0.09133  0.68883  0.25491  Biso   1.000  C
  C80      1.0000 0.02278  0.66878  0.25056  Biso   1.000  C
  C81      1.0000 0.01672  0.58432  0.29334  Biso   1.000  C
  C82      1.0000 0.07840  0.52170  0.33630  Biso   1.000  C
  C83      1.0000 0.14530  0.54550  0.33510  Biso   1.000  C
  C84      1.0000 0.95574  0.73444  0.20538  Biso   1.000  C
  C85      1.0000 0.78819  0.32999  0.09123  Biso   1.000  C
  C86      1.0000 0.78439  0.35579  0.02013  Biso   1.000  C
  C87      1.0000 0.72269  0.44629  0.99493  Biso   1.000  C
  C88      1.0000 0.66687  0.50687  0.03849  Biso   1.000  C
  C89      1.0000 0.66875  0.47255  0.10935  Biso   1.000  C
  C90      1.0000 0.83724  0.28764  0.97498  Biso   1.000  C
  C91      1.0000 0.68883  0.96493  0.25491  Biso   1.000  C
  C92      1.0000 0.66878  0.05788  0.25056  Biso   1.000  C
  C93      1.0000 0.58432  0.10562  0.29334  Biso   1.000  C
  C94      1.0000 0.52170  0.06360  0.33630  Biso   1.000  C
  C95      1.0000 0.54550  0.97410  0.33510  Biso   1.000  C
  C96      1.0000 0.73444  0.10444  0.20538  Biso   1.000  C
  C97      1.0000 0.32999  0.79059  0.09123  Biso   1.000  C
  C98      1.0000 0.35579  0.83969  0.02013  Biso   1.000  C
  C99      1.0000 0.44629  0.83609  0.99493  Biso   1.000  C
  C100     1.0000 0.50687  0.78777  0.03849  Biso   1.000  C
  C101     1.0000 0.47255  0.74935  0.10935  Biso   1.000  C
  C102     1.0000 0.28764  0.90014  0.97498  Biso   1.000  C
  C103     1.0000 0.96493  0.09133  0.25491  Biso   1.000  C
  C104     1.0000 0.05788  0.02278  0.25056  Biso   1.000  C
  C105     1.0000 0.10562  0.01672  0.29334  Biso   1.000  C
  C106     1.0000 0.06360  0.07840  0.33630  Biso   1.000  C
  C107     1.0000 0.97410  0.14530  0.33510  Biso   1.000  C
  C108     1.0000 0.10444  0.95574  0.20538  Biso   1.000  C
  C109     1.0000 0.70941  0.17001  0.40877  Biso   1.000  C
  C110     1.0000 0.66031  0.14421  0.47987  Biso   1.000  C
  C111     1.0000 0.66391  0.05371  0.50507  Biso   1.000  C
  C112     1.0000 0.71223  0.99313  0.46151  Biso   1.000  C
  C113     1.0000 0.75065  0.02745  0.39065  Biso   1.000  C
  C114     1.0000 0.59986  0.21236  0.52502  Biso   1.000  C
  C115     1.0000 0.40867  0.53507  0.24509  Biso   1.000  C
  C116     1.0000 0.47722  0.44212  0.24944  Biso   1.000  C
  C117     1.0000 0.48328  0.39438  0.20666  Biso   1.000  C
  C118     1.0000 0.42160  0.43640  0.16370  Biso   1.000  C
  C119     1.0000 0.35470  0.52590  0.16490  Biso   1.000  C
  C120     1.0000 0.54426  0.39556  0.29462  Biso   1.000  C
  C121     1.0000 0.71181  0.70941  0.40877  Biso   1.000  C
  C122     1.0000 0.71561  0.66031  0.47987  Biso   1.000  C
  C123     1.0000 0.77731  0.66391  0.50507  Biso   1.000  C
  C124     1.0000 0.83313  0.71223  0.46151  Biso   1.000  C
  C125     1.0000 0.83125  0.75065  0.39065  Biso   1.000  C
  C126     1.0000 0.66276  0.59986  0.52502  Biso   1.000  C
  C127     1.0000 0.81117  0.40867  0.24509  Biso   1.000  C
  C128     1.0000 0.83122  0.47722  0.24944  Biso   1.000  C
  C129     1.0000 0.91568  0.48328  0.20666  Biso   1.000  C
  C130     1.0000 0.97830  0.42160  0.16370  Biso   1.000  C
  C131     1.0000 0.95450  0.35470  0.16490  Biso   1.000  C
  C132     1.0000 0.76556  0.54426  0.29462  Biso   1.000  C
  C133     1.0000 0.17001  0.71181  0.40877  Biso   1.000  C
  C134     1.0000 0.14421  0.71561  0.47987  Biso   1.000  C
  C135     1.0000 0.05371  0.77731  0.50507  Biso   1.000  C
  C136     1.0000 0.99313  0.83313  0.46151  Biso   1.000  C
  C137     1.0000 0.02745  0.83125  0.39065  Biso   1.000  C
  C138     1.0000 0.21236  0.66276  0.52502  Biso   1.000  C
  C139     1.0000 0.53507  0.81117  0.24509  Biso   1.000  C
  C140     1.0000 0.44212  0.83122  0.24944  Biso   1.000  C
  C141     1.0000 0.39438  0.91568  0.20666  Biso   1.000  C
  C142     1.0000 0.43640  0.97830  0.16370  Biso   1.000  C
  C143     1.0000 0.52590  0.95450  0.16490  Biso   1.000  C
  C144     1.0000 0.39556  0.76556  0.29462  Biso   1.000  C
  N1       1.0000 0.24959  0.27299  0.86443  Biso   1.000  N
  N2       1.0000 0.84801  0.37321  0.70387  Biso   1.000  N
  N3       1.0000 0.27299  0.61299  0.86443  Biso   1.000  N
  N4       1.0000 0.37321  0.07491  0.70387  Biso   1.000  N
  N5       1.0000 0.61299  0.24959  0.86443  Biso   1.000  N
  N6       1.0000 0.07491  0.84801  0.70387  Biso   1.000  N
  N7       1.0000 0.25041  0.88701  0.63557  Biso   1.000  N
  N8       1.0000 0.65199  0.42509  0.79613  Biso   1.000  N
  N9       1.0000 0.22701  0.25041  0.63557  Biso   1.000  N
  N10      1.0000 0.12679  0.65199  0.79613  Biso   1.000  N
  N11      1.0000 0.88701  0.22701  0.63557  Biso   1.000  N
  N12      1.0000 0.42509  0.12679  0.79613  Biso   1.000  N
  N13      1.0000 0.75041  0.72701  0.13557  Biso   1.000  N
  N14      1.0000 0.15199  0.62679  0.29613  Biso   1.000  N
  N15      1.0000 0.72701  0.38701  0.13557  Biso   1.000  N
  N16      1.0000 0.62679  0.92509  0.29613  Biso   1.000  N
  N17      1.0000 0.38701  0.75041  0.13557  Biso   1.000  N
  N18      1.0000 0.92509  0.15199  0.29613  Biso   1.000  N
  N19      1.0000 0.74959  0.11299  0.36443  Biso   1.000  N
  N20      1.0000 0.34801  0.57491  0.20387  Biso   1.000  N
  N21      1.0000 0.77299  0.74959  0.36443  Biso   1.000  N
  N22      1.0000 0.87321  0.34801  0.20387  Biso   1.000  N
  N23      1.0000 0.11299  0.77299  0.36443  Biso   1.000  N
  N24      1.0000 0.57491  0.87321  0.20387  Biso   1.000  N
  O1       1.0000 0.08764  0.11344  0.99988  Biso   1.000  O
  O2       1.0000 0.05578  0.17068  0.08736  Biso   1.000  O
  O3       1.0000 0.22050  0.15190  0.87970  Biso   1.000  O
  O4       1.0000 0.03211  0.19281  0.84157  Biso   1.000  O
  O5       1.0000 0.10989  0.28489  0.78493  Biso   1.000  O
  O6       1.0000 0.89628  0.23398  0.77896  Biso   1.000  O
  O7       1.0000 0.11344  0.79904  0.99988  Biso   1.000  O
  O8       1.0000 0.17068  0.68618  0.08736  Biso   1.000  O
  O9       1.0000 0.15190  0.74790  0.87970  Biso   1.000  O
  O10      1.0000 0.19281  0.93351  0.84157  Biso   1.000  O
  O11      1.0000 0.28489  0.82029  0.78493  Biso   1.000  O
  O12      1.0000 0.23398  0.09078  0.77896  Biso   1.000  O
  O13      1.0000 0.79904  0.08764  0.99988  Biso   1.000  O
  O14      1.0000 0.68618  0.05578  0.08736  Biso   1.000  O
  O15      1.0000 0.74790  0.22050  0.87970  Biso   1.000  O
  O16      1.0000 0.93351  0.03211  0.84157  Biso   1.000  O
  O17      1.0000 0.82029  0.10989  0.78493  Biso   1.000  O
  O18      1.0000 0.09078  0.89628  0.77896  Biso   1.000  O
  O19      1.0000 0.41236  0.70096  0.50012  Biso   1.000  O
  O20      1.0000 0.44422  0.81382  0.41264  Biso   1.000  O
  O21      1.0000 0.27950  0.75210  0.62030  Biso   1.000  O
  O22      1.0000 0.46789  0.56649  0.65843  Biso   1.000  O
  O23      1.0000 0.39011  0.67971  0.71507  Biso   1.000  O
  O24      1.0000 0.60372  0.40922  0.72104  Biso   1.000  O
  O25      1.0000 0.38656  0.41236  0.50012  Biso   1.000  O
  O26      1.0000 0.32932  0.44422  0.41264  Biso   1.000  O
  O27      1.0000 0.34810  0.27950  0.62030  Biso   1.000  O
  O28      1.0000 0.30719  0.46789  0.65843  Biso   1.000  O
  O29      1.0000 0.21511  0.39011  0.71507  Biso   1.000  O
  O30      1.0000 0.26602  0.60372  0.72104  Biso   1.000  O
  O31      1.0000 0.70096  0.38656  0.50012  Biso   1.000  O
  O32      1.0000 0.81382  0.32932  0.41264  Biso   1.000  O
  O33      1.0000 0.75210  0.34810  0.62030  Biso   1.000  O
  O34      1.0000 0.56649  0.30719  0.65843  Biso   1.000  O
  O35      1.0000 0.67971  0.21511  0.71507  Biso   1.000  O
  O36      1.0000 0.40922  0.26602  0.72104  Biso   1.000  O
  O37      1.0000 0.91236  0.88656  0.00012  Biso   1.000  O
  O38      1.0000 0.94422  0.82932  0.91264  Biso   1.000  O
  O39      1.0000 0.77950  0.84810  0.12030  Biso   1.000  O
  O40      1.0000 0.96789  0.80719  0.15843  Biso   1.000  O
  O41      1.0000 0.89011  0.71511  0.21507  Biso   1.000  O
  O42      1.0000 0.10372  0.76602  0.22104  Biso   1.000  O
  O43      1.0000 0.88656  0.20096  0.00012  Biso   1.000  O
  O44      1.0000 0.82932  0.31382  0.91264  Biso   1.000  O
  O45      1.0000 0.84810  0.25210  0.12030  Biso   1.000  O
  O46      1.0000 0.80719  0.06649  0.15843  Biso   1.000  O
  O47      1.0000 0.71511  0.17971  0.21507  Biso   1.000  O
  O48      1.0000 0.76602  0.90922  0.22104  Biso   1.000  O
  O49      1.0000 0.20096  0.91236  0.00012  Biso   1.000  O
  O50      1.0000 0.31382  0.94422  0.91264  Biso   1.000  O
  O51      1.0000 0.25210  0.77950  0.12030  Biso   1.000  O
  O52      1.0000 0.06649  0.96789  0.15843  Biso   1.000  O
  O53      1.0000 0.17971  0.89011  0.21507  Biso   1.000  O
  O54      1.0000 0.90922  0.10372  0.22104  Biso   1.000  O
  O55      1.0000 0.58764  0.29904  0.49988  Biso   1.000  O
  O56      1.0000 0.55578  0.18618  0.58736  Biso   1.000  O
  O57      1.0000 0.72050  0.24790  0.37970  Biso   1.000  O
  O58      1.0000 0.53211  0.43351  0.34157  Biso   1.000  O
  O59      1.0000 0.60989  0.32029  0.28493  Biso   1.000  O
  O60      1.0000 0.39628  0.59078  0.27896  Biso   1.000  O
  O61      1.0000 0.61344  0.58764  0.49988  Biso   1.000  O
  O62      1.0000 0.67068  0.55578  0.58736  Biso   1.000  O
  O63      1.0000 0.65190  0.72050  0.37970  Biso   1.000  O
  O64      1.0000 0.69281  0.53211  0.34157  Biso   1.000  O
  O65      1.0000 0.78489  0.60989  0.28493  Biso   1.000  O
  O66      1.0000 0.73398  0.39628  0.27896  Biso   1.000  O
  O67      1.0000 0.29904  0.61344  0.49988  Biso   1.000  O
  O68      1.0000 0.18618  0.67068  0.58736  Biso   1.000  O
  O69      1.0000 0.24790  0.65190  0.37970  Biso   1.000  O
  O70      1.0000 0.43351  0.69281  0.34157  Biso   1.000  O
  O71      1.0000 0.32029  0.78489  0.28493  Biso   1.000  O
  O72      1.0000 0.59078  0.73398  0.27896  Biso   1.000  O
  O73      1.0000 0.02244  0.02244  0.93268  Biso   1.000  O
  O74      1.0000 0.47756  0.47756  0.56732  Biso   1.000  O
  O75      1.0000 0.97756  0.97756  0.06732  Biso   1.000  O
  O76      1.0000 0.52244  0.52244  0.43268  Biso   1.000  O
