data_image0
_cell_length_a       17.0615
_cell_length_b       17.0615
_cell_length_c       21.2553
_cell_angle_alpha    66.3376
_cell_angle_beta     66.3376
_cell_angle_gamma    60

_symmetry_space_group_name_H-M    P 1
_symmetry_int_tables_number       1

loop_
  _symmetry_equiv_pos_as_xyz
  'x, y, z'

loop_
  _atom_site_label
  _atom_site_occupancy
  _atom_site_fract_x
  _atom_site_fract_y
  _atom_site_fract_z
  _atom_site_thermal_displace_type
  _atom_site_B_iso_or_equiv
  _atom_site_type_symbol
  Eu1      1.0000 0.60446  0.44733  0.60316  Biso   1.000  Eu
  Eu2      1.0000 0.44733  0.34505  0.60316  Biso   1.000  Eu
  Eu3      1.0000 0.34505  0.60446  0.60316  Biso   1.000  Eu
  Eu4      1.0000 0.89554  0.15495  0.89684  Biso   1.000  Eu
  Eu5      1.0000 0.05267  0.89554  0.89684  Biso   1.000  Eu
  Eu6      1.0000 0.15495  0.05267  0.89684  Biso   1.000  Eu
  Eu7      1.0000 0.39554  0.55267  0.39684  Biso   1.000  Eu
  Eu8      1.0000 0.55267  0.65495  0.39684  Biso   1.000  Eu
  Eu9      1.0000 0.65495  0.39554  0.39684  Biso   1.000  Eu
  Eu10     1.0000 0.10446  0.84505  0.10316  Biso   1.000  Eu
  Eu11     1.0000 0.94733  0.10446  0.10316  Biso   1.000  Eu
  Eu12     1.0000 0.84505  0.94733  0.10316  Biso   1.000  Eu
  Eu13     1.0000 0.75000  0.27623  0.75000  Biso   1.000  Eu
  Eu14     1.0000 0.27623  0.22377  0.75000  Biso   1.000  Eu
  Eu15     1.0000 0.22377  0.75000  0.75000  Biso   1.000  Eu
  Eu16     1.0000 0.25000  0.72377  0.25000  Biso   1.000  Eu
  Eu17     1.0000 0.72377  0.77623  0.25000  Biso   1.000  Eu
  Eu18     1.0000 0.77623  0.25000  0.25000  Biso   1.000  Eu
  H1       1.0000 0.96790  0.22160  0.44770  Biso   1.000  H
  H2       1.0000 0.06760  0.12590  0.52120  Biso   1.000  H
  H3       1.0000 0.01120  0.12550  0.64000  Biso   1.000  H
  H4       1.0000 0.46590  0.66250  0.79690  Biso   1.000  H
  H5       1.0000 0.57900  0.59670  0.86200  Biso   1.000  H
  H6       1.0000 0.68330  0.44570  0.86590  Biso   1.000  H
  H7       1.0000 0.22160  0.36280  0.44770  Biso   1.000  H
  H8       1.0000 0.12590  0.28530  0.52120  Biso   1.000  H
  H9       1.0000 0.12550  0.22330  0.64000  Biso   1.000  H
  H10      1.0000 0.66250  0.07470  0.79690  Biso   1.000  H
  H11      1.0000 0.59670  0.96230  0.86200  Biso   1.000  H
  H12      1.0000 0.44570  0.00510  0.86590  Biso   1.000  H
  H13      1.0000 0.36280  0.96790  0.44770  Biso   1.000  H
  H14      1.0000 0.28530  0.06760  0.52120  Biso   1.000  H
  H15      1.0000 0.22330  0.01120  0.64000  Biso   1.000  H
  H16      1.0000 0.07470  0.46590  0.79690  Biso   1.000  H
  H17      1.0000 0.96230  0.57900  0.86200  Biso   1.000  H
  H18      1.0000 0.00510  0.68330  0.86590  Biso   1.000  H
  H19      1.0000 0.53210  0.13720  0.05230  Biso   1.000  H
  H20      1.0000 0.43240  0.21470  0.97880  Biso   1.000  H
  H21      1.0000 0.48880  0.27670  0.86000  Biso   1.000  H
  H22      1.0000 0.03410  0.42530  0.70310  Biso   1.000  H
  H23      1.0000 0.92100  0.53770  0.63800  Biso   1.000  H
  H24      1.0000 0.81670  0.49490  0.63410  Biso   1.000  H
  H25      1.0000 0.27840  0.53210  0.05230  Biso   1.000  H
  H26      1.0000 0.37410  0.43240  0.97880  Biso   1.000  H
  H27      1.0000 0.37450  0.48880  0.86000  Biso   1.000  H
  H28      1.0000 0.83750  0.03410  0.70310  Biso   1.000  H
  H29      1.0000 0.90330  0.92100  0.63800  Biso   1.000  H
  H30      1.0000 0.05430  0.81670  0.63410  Biso   1.000  H
  H31      1.0000 0.13720  0.27840  0.05230  Biso   1.000  H
  H32      1.0000 0.21470  0.37410  0.97880  Biso   1.000  H
  H33      1.0000 0.27670  0.37450  0.86000  Biso   1.000  H
  H34      1.0000 0.42530  0.83750  0.70310  Biso   1.000  H
  H35      1.0000 0.53770  0.90330  0.63800  Biso   1.000  H
  H36      1.0000 0.49490  0.05430  0.63410  Biso   1.000  H
  H37      1.0000 0.03210  0.77840  0.55230  Biso   1.000  H
  H38      1.0000 0.93240  0.87410  0.47880  Biso   1.000  H
  H39      1.0000 0.98880  0.87450  0.36000  Biso   1.000  H
  H40      1.0000 0.53410  0.33750  0.20310  Biso   1.000  H
  H41      1.0000 0.42100  0.40330  0.13800  Biso   1.000  H
  H42      1.0000 0.31670  0.55430  0.13410  Biso   1.000  H
  H43      1.0000 0.77840  0.63720  0.55230  Biso   1.000  H
  H44      1.0000 0.87410  0.71470  0.47880  Biso   1.000  H
  H45      1.0000 0.87450  0.77670  0.36000  Biso   1.000  H
  H46      1.0000 0.33750  0.92530  0.20310  Biso   1.000  H
  H47      1.0000 0.40330  0.03770  0.13800  Biso   1.000  H
  H48      1.0000 0.55430  0.99490  0.13410  Biso   1.000  H
  H49      1.0000 0.63720  0.03210  0.55230  Biso   1.000  H
  H50      1.0000 0.71470  0.93240  0.47880  Biso   1.000  H
  H51      1.0000 0.77670  0.98880  0.36000  Biso   1.000  H
  H52      1.0000 0.92530  0.53410  0.20310  Biso   1.000  H
  H53      1.0000 0.03770  0.42100  0.13800  Biso   1.000  H
  H54      1.0000 0.99490  0.31670  0.13410  Biso   1.000  H
  H55      1.0000 0.46790  0.86280  0.94770  Biso   1.000  H
  H56      1.0000 0.56760  0.78530  0.02120  Biso   1.000  H
  H57      1.0000 0.51120  0.72330  0.14000  Biso   1.000  H
  H58      1.0000 0.96590  0.57470  0.29690  Biso   1.000  H
  H59      1.0000 0.07900  0.46230  0.36200  Biso   1.000  H
  H60      1.0000 0.18330  0.50510  0.36590  Biso   1.000  H
  H61      1.0000 0.72160  0.46790  0.94770  Biso   1.000  H
  H62      1.0000 0.62590  0.56760  0.02120  Biso   1.000  H
  H63      1.0000 0.62550  0.51120  0.14000  Biso   1.000  H
  H64      1.0000 0.16250  0.96590  0.29690  Biso   1.000  H
  H65      1.0000 0.09670  0.07900  0.36200  Biso   1.000  H
  H66      1.0000 0.94570  0.18330  0.36590  Biso   1.000  H
  H67      1.0000 0.86280  0.72160  0.94770  Biso   1.000  H
  H68      1.0000 0.78530  0.62590  0.02120  Biso   1.000  H
  H69      1.0000 0.72330  0.62550  0.14000  Biso   1.000  H
  H70      1.0000 0.57470  0.16250  0.29690  Biso   1.000  H
  H71      1.0000 0.46230  0.09670  0.36200  Biso   1.000  H
  H72      1.0000 0.50510  0.94570  0.36590  Biso   1.000  H
  H73      1.0000 0.50000  0.50000  0.50000  Biso   1.000  H
  H74      1.0000 0.00000  0.00000  0.00000  Biso   1.000  H
  C1       1.0000 0.83021  0.28871  0.59137  Biso   1.000  C
  C2       1.0000 0.85516  0.28406  0.52042  Biso   1.000  C
  C3       1.0000 0.94690  0.22300  0.49510  Biso   1.000  C
  C4       1.0000 0.00650  0.16530  0.53860  Biso   1.000  C
  C5       1.0000 0.97284  0.16754  0.60928  Biso   1.000  C
  C6       1.0000 0.78875  0.33635  0.47545  Biso   1.000  C
  C7       1.0000 0.59139  0.46539  0.75463  Biso   1.000  C
  C8       1.0000 0.52252  0.55832  0.75094  Biso   1.000  C
  C9       1.0000 0.51450  0.60410  0.79420  Biso   1.000  C
  C10      1.0000 0.58000  0.56330  0.83590  Biso   1.000  C
  C11      1.0000 0.64340  0.47450  0.83620  Biso   1.000  C
  C12      1.0000 0.45594  0.60434  0.70528  Biso   1.000  C
  C13      1.0000 0.28871  0.28971  0.59137  Biso   1.000  C
  C14      1.0000 0.28406  0.34036  0.52042  Biso   1.000  C
  C15      1.0000 0.22300  0.33500  0.49510  Biso   1.000  C
  C16      1.0000 0.16530  0.28960  0.53860  Biso   1.000  C
  C17      1.0000 0.16754  0.25034  0.60928  Biso   1.000  C
  C18      1.0000 0.33635  0.39945  0.47545  Biso   1.000  C
  C19      1.0000 0.46539  0.18859  0.75463  Biso   1.000  C
  C20      1.0000 0.55832  0.16822  0.75094  Biso   1.000  C
  C21      1.0000 0.60410  0.08720  0.79420  Biso   1.000  C
  C22      1.0000 0.56330  0.02080  0.83590  Biso   1.000  C
  C23      1.0000 0.47450  0.04590  0.83620  Biso   1.000  C
  C24      1.0000 0.60434  0.23444  0.70528  Biso   1.000  C
  C25      1.0000 0.28971  0.83021  0.59137  Biso   1.000  C
  C26      1.0000 0.34036  0.85516  0.52042  Biso   1.000  C
  C27      1.0000 0.33500  0.94690  0.49510  Biso   1.000  C
  C28      1.0000 0.28960  0.00650  0.53860  Biso   1.000  C
  C29      1.0000 0.25034  0.97284  0.60928  Biso   1.000  C
  C30      1.0000 0.39945  0.78875  0.47545  Biso   1.000  C
  C31      1.0000 0.18859  0.59139  0.75463  Biso   1.000  C
  C32      1.0000 0.16822  0.52252  0.75094  Biso   1.000  C
  C33      1.0000 0.08720  0.51450  0.79420  Biso   1.000  C
  C34      1.0000 0.02080  0.58000  0.83590  Biso   1.000  C
  C35      1.0000 0.04590  0.64340  0.83620  Biso   1.000  C
  C36      1.0000 0.23444  0.45594  0.70528  Biso   1.000  C
  C37      1.0000 0.66979  0.21029  0.90863  Biso   1.000  C
  C38      1.0000 0.64484  0.15964  0.97958  Biso   1.000  C
  C39      1.0000 0.55310  0.16500  0.00490  Biso   1.000  C
  C40      1.0000 0.49350  0.21040  0.96140  Biso   1.000  C
  C41      1.0000 0.52716  0.24966  0.89072  Biso   1.000  C
  C42      1.0000 0.71125  0.10055  0.02455  Biso   1.000  C
  C43      1.0000 0.90861  0.31141  0.74537  Biso   1.000  C
  C44      1.0000 0.97748  0.33178  0.74906  Biso   1.000  C
  C45      1.0000 0.98550  0.41280  0.70580  Biso   1.000  C
  C46      1.0000 0.92000  0.47920  0.66410  Biso   1.000  C
  C47      1.0000 0.85660  0.45410  0.66380  Biso   1.000  C
  C48      1.0000 0.04406  0.26556  0.79472  Biso   1.000  C
  C49      1.0000 0.21129  0.66979  0.90863  Biso   1.000  C
  C50      1.0000 0.21594  0.64484  0.97958  Biso   1.000  C
  C51      1.0000 0.27700  0.55310  0.00490  Biso   1.000  C
  C52      1.0000 0.33470  0.49350  0.96140  Biso   1.000  C
  C53      1.0000 0.33246  0.52716  0.89072  Biso   1.000  C
  C54      1.0000 0.16365  0.71125  0.02455  Biso   1.000  C
  C55      1.0000 0.03461  0.90861  0.74537  Biso   1.000  C
  C56      1.0000 0.94168  0.97748  0.74906  Biso   1.000  C
  C57      1.0000 0.89590  0.98550  0.70580  Biso   1.000  C
  C58      1.0000 0.93670  0.92000  0.66410  Biso   1.000  C
  C59      1.0000 0.02550  0.85660  0.66380  Biso   1.000  C
  C60      1.0000 0.89566  0.04406  0.79472  Biso   1.000  C
  C61      1.0000 0.21029  0.21129  0.90863  Biso   1.000  C
  C62      1.0000 0.15964  0.21594  0.97958  Biso   1.000  C
  C63      1.0000 0.16500  0.27700  0.00490  Biso   1.000  C
  C64      1.0000 0.21040  0.33470  0.96140  Biso   1.000  C
  C65      1.0000 0.24966  0.33246  0.89072  Biso   1.000  C
  C66      1.0000 0.10055  0.16365  0.02455  Biso   1.000  C
  C67      1.0000 0.31141  0.03461  0.74537  Biso   1.000  C
  C68      1.0000 0.33178  0.94168  0.74906  Biso   1.000  C
  C69      1.0000 0.41280  0.89590  0.70580  Biso   1.000  C
  C70      1.0000 0.47920  0.93670  0.66410  Biso   1.000  C
  C71      1.0000 0.45410  0.02550  0.66380  Biso   1.000  C
  C72      1.0000 0.26556  0.89566  0.79472  Biso   1.000  C
  C73      1.0000 0.16979  0.71129  0.40863  Biso   1.000  C
  C74      1.0000 0.14484  0.71594  0.47958  Biso   1.000  C
  C75      1.0000 0.05310  0.77700  0.50490  Biso   1.000  C
  C76      1.0000 0.99350  0.83470  0.46140  Biso   1.000  C
  C77      1.0000 0.02716  0.83246  0.39072  Biso   1.000  C
  C78      1.0000 0.21125  0.66365  0.52455  Biso   1.000  C
  C79      1.0000 0.40861  0.53461  0.24537  Biso   1.000  C
  C80      1.0000 0.47748  0.44168  0.24906  Biso   1.000  C
  C81      1.0000 0.48550  0.39590  0.20580  Biso   1.000  C
  C82      1.0000 0.42000  0.43670  0.16410  Biso   1.000  C
  C83      1.0000 0.35660  0.52550  0.16380  Biso   1.000  C
  C84      1.0000 0.54406  0.39566  0.29472  Biso   1.000  C
  C85      1.0000 0.71129  0.71029  0.40863  Biso   1.000  C
  C86      1.0000 0.71594  0.65964  0.47958  Biso   1.000  C
  C87      1.0000 0.77700  0.66500  0.50490  Biso   1.000  C
  C88      1.0000 0.83470  0.71040  0.46140  Biso   1.000  C
  C89      1.0000 0.83246  0.74966  0.39072  Biso   1.000  C
  C90      1.0000 0.66365  0.60055  0.52455  Biso   1.000  C
  C91      1.0000 0.53461  0.81141  0.24537  Biso   1.000  C
  C92      1.0000 0.44168  0.83178  0.24906  Biso   1.000  C
  C93      1.0000 0.39590  0.91280  0.20580  Biso   1.000  C
  C94      1.0000 0.43670  0.97920  0.16410  Biso   1.000  C
  C95      1.0000 0.52550  0.95410  0.16380  Biso   1.000  C
  C96      1.0000 0.39566  0.76556  0.29472  Biso   1.000  C
  C97      1.0000 0.71029  0.16979  0.40863  Biso   1.000  C
  C98      1.0000 0.65964  0.14484  0.47958  Biso   1.000  C
  C99      1.0000 0.66500  0.05310  0.50490  Biso   1.000  C
  C100     1.0000 0.71040  0.99350  0.46140  Biso   1.000  C
  C101     1.0000 0.74966  0.02716  0.39072  Biso   1.000  C
  C102     1.0000 0.60055  0.21125  0.52455  Biso   1.000  C
  C103     1.0000 0.81141  0.40861  0.24537  Biso   1.000  C
  C104     1.0000 0.83178  0.47748  0.24906  Biso   1.000  C
  C105     1.0000 0.91280  0.48550  0.20580  Biso   1.000  C
  C106     1.0000 0.97920  0.42000  0.16410  Biso   1.000  C
  C107     1.0000 0.95410  0.35660  0.16380  Biso   1.000  C
  C108     1.0000 0.76556  0.54406  0.29472  Biso   1.000  C
  C109     1.0000 0.33021  0.78971  0.09137  Biso   1.000  C
  C110     1.0000 0.35516  0.84036  0.02042  Biso   1.000  C
  C111     1.0000 0.44690  0.83500  0.99510  Biso   1.000  C
  C112     1.0000 0.50650  0.78960  0.03860  Biso   1.000  C
  C113     1.0000 0.47284  0.75034  0.10928  Biso   1.000  C
  C114     1.0000 0.28875  0.89945  0.97545  Biso   1.000  C
  C115     1.0000 0.09139  0.68859  0.25463  Biso   1.000  C
  C116     1.0000 0.02252  0.66822  0.25094  Biso   1.000  C
  C117     1.0000 0.01450  0.58720  0.29420  Biso   1.000  C
  C118     1.0000 0.08000  0.52080  0.33590  Biso   1.000  C
  C119     1.0000 0.14340  0.54590  0.33620  Biso   1.000  C
  C120     1.0000 0.95594  0.73444  0.20528  Biso   1.000  C
  C121     1.0000 0.78871  0.33021  0.09137  Biso   1.000  C
  C122     1.0000 0.78406  0.35516  0.02042  Biso   1.000  C
  C123     1.0000 0.72300  0.44690  0.99510  Biso   1.000  C
  C124     1.0000 0.66530  0.50650  0.03860  Biso   1.000  C
  C125     1.0000 0.66754  0.47284  0.10928  Biso   1.000  C
  C126     1.0000 0.83635  0.28875  0.97545  Biso   1.000  C
  C127     1.0000 0.96539  0.09139  0.25463  Biso   1.000  C
  C128     1.0000 0.05832  0.02252  0.25094  Biso   1.000  C
  C129     1.0000 0.10410  0.01450  0.29420  Biso   1.000  C
  C130     1.0000 0.06330  0.08000  0.33590  Biso   1.000  C
  C131     1.0000 0.97450  0.14340  0.33620  Biso   1.000  C
  C132     1.0000 0.10434  0.95594  0.20528  Biso   1.000  C
  C133     1.0000 0.78971  0.78871  0.09137  Biso   1.000  C
  C134     1.0000 0.84036  0.78406  0.02042  Biso   1.000  C
  C135     1.0000 0.83500  0.72300  0.99510  Biso   1.000  C
  C136     1.0000 0.78960  0.66530  0.03860  Biso   1.000  C
  C137     1.0000 0.75034  0.66754  0.10928  Biso   1.000  C
  C138     1.0000 0.89945  0.83635  0.97545  Biso   1.000  C
  C139     1.0000 0.68859  0.96539  0.25463  Biso   1.000  C
  C140     1.0000 0.66822  0.05832  0.25094  Biso   1.000  C
  C141     1.0000 0.58720  0.10410  0.29420  Biso   1.000  C
  C142     1.0000 0.52080  0.06330  0.33590  Biso   1.000  C
  C143     1.0000 0.54590  0.97450  0.33620  Biso   1.000  C
  C144     1.0000 0.73444  0.10434  0.20528  Biso   1.000  C
  N1       1.0000 0.88646  0.22816  0.63592  Biso   1.000  N
  N2       1.0000 0.65160  0.42590  0.79630  Biso   1.000  N
  N3       1.0000 0.22816  0.24946  0.63592  Biso   1.000  N
  N4       1.0000 0.42590  0.12620  0.79630  Biso   1.000  N
  N5       1.0000 0.24946  0.88646  0.63592  Biso   1.000  N
  N6       1.0000 0.12620  0.65160  0.79630  Biso   1.000  N
  N7       1.0000 0.61354  0.25054  0.86408  Biso   1.000  N
  N8       1.0000 0.84840  0.37380  0.70370  Biso   1.000  N
  N9       1.0000 0.27184  0.61354  0.86408  Biso   1.000  N
  N10      1.0000 0.07410  0.84840  0.70370  Biso   1.000  N
  N11      1.0000 0.25054  0.27184  0.86408  Biso   1.000  N
  N12      1.0000 0.37380  0.07410  0.70370  Biso   1.000  N
  N13      1.0000 0.11354  0.77184  0.36408  Biso   1.000  N
  N14      1.0000 0.34840  0.57410  0.20370  Biso   1.000  N
  N15      1.0000 0.77184  0.75054  0.36408  Biso   1.000  N
  N16      1.0000 0.57410  0.87380  0.20370  Biso   1.000  N
  N17      1.0000 0.75054  0.11354  0.36408  Biso   1.000  N
  N18      1.0000 0.87380  0.34840  0.20370  Biso   1.000  N
  N19      1.0000 0.38646  0.74946  0.13592  Biso   1.000  N
  N20      1.0000 0.15160  0.62620  0.29630  Biso   1.000  N
  N21      1.0000 0.72816  0.38646  0.13592  Biso   1.000  N
  N22      1.0000 0.92590  0.15160  0.29630  Biso   1.000  N
  N23      1.0000 0.74946  0.72816  0.13592  Biso   1.000  N
  N24      1.0000 0.62620  0.92590  0.29630  Biso   1.000  N
  O1       1.0000 0.70176  0.38606  0.50062  Biso   1.000  O
  O2       1.0000 0.81461  0.32871  0.41347  Biso   1.000  O
  O3       1.0000 0.75300  0.34760  0.62050  Biso   1.000  O
  O4       1.0000 0.46810  0.56600  0.65890  Biso   1.000  O
  O5       1.0000 0.39043  0.67943  0.71491  Biso   1.000  O
  O6       1.0000 0.60461  0.40951  0.72097  Biso   1.000  O
  O7       1.0000 0.38606  0.41156  0.50062  Biso   1.000  O
  O8       1.0000 0.32871  0.44321  0.41347  Biso   1.000  O
  O9       1.0000 0.34760  0.27890  0.62050  Biso   1.000  O
  O10      1.0000 0.56600  0.30700  0.65890  Biso   1.000  O
  O11      1.0000 0.67943  0.21523  0.71491  Biso   1.000  O
  O12      1.0000 0.40951  0.26491  0.72097  Biso   1.000  O
  O13      1.0000 0.41156  0.70176  0.50062  Biso   1.000  O
  O14      1.0000 0.44321  0.81461  0.41347  Biso   1.000  O
  O15      1.0000 0.27890  0.75300  0.62050  Biso   1.000  O
  O16      1.0000 0.30700  0.46810  0.65890  Biso   1.000  O
  O17      1.0000 0.21523  0.39043  0.71491  Biso   1.000  O
  O18      1.0000 0.26491  0.60461  0.72097  Biso   1.000  O
  O19      1.0000 0.79824  0.08844  0.99938  Biso   1.000  O
  O20      1.0000 0.68539  0.05679  0.08653  Biso   1.000  O
  O21      1.0000 0.74700  0.22110  0.87950  Biso   1.000  O
  O22      1.0000 0.03190  0.19300  0.84110  Biso   1.000  O
  O23      1.0000 0.10957  0.28477  0.78509  Biso   1.000  O
  O24      1.0000 0.89539  0.23509  0.77903  Biso   1.000  O
  O25      1.0000 0.11394  0.79824  0.99938  Biso   1.000  O
  O26      1.0000 0.17129  0.68539  0.08653  Biso   1.000  O
  O27      1.0000 0.15240  0.74700  0.87950  Biso   1.000  O
  O28      1.0000 0.93400  0.03190  0.84110  Biso   1.000  O
  O29      1.0000 0.82057  0.10957  0.78509  Biso   1.000  O
  O30      1.0000 0.09049  0.89539  0.77903  Biso   1.000  O
  O31      1.0000 0.08844  0.11394  0.99938  Biso   1.000  O
  O32      1.0000 0.05679  0.17129  0.08653  Biso   1.000  O
  O33      1.0000 0.22110  0.15240  0.87950  Biso   1.000  O
  O34      1.0000 0.19300  0.93400  0.84110  Biso   1.000  O
  O35      1.0000 0.28477  0.82057  0.78509  Biso   1.000  O
  O36      1.0000 0.23509  0.09049  0.77903  Biso   1.000  O
  O37      1.0000 0.29824  0.61394  0.49938  Biso   1.000  O
  O38      1.0000 0.18539  0.67129  0.58653  Biso   1.000  O
  O39      1.0000 0.24700  0.65240  0.37950  Biso   1.000  O
  O40      1.0000 0.53190  0.43400  0.34110  Biso   1.000  O
  O41      1.0000 0.60957  0.32057  0.28509  Biso   1.000  O
  O42      1.0000 0.39539  0.59049  0.27903  Biso   1.000  O
  O43      1.0000 0.61394  0.58844  0.49938  Biso   1.000  O
  O44      1.0000 0.67129  0.55679  0.58653  Biso   1.000  O
  O45      1.0000 0.65240  0.72110  0.37950  Biso   1.000  O
  O46      1.0000 0.43400  0.69300  0.34110  Biso   1.000  O
  O47      1.0000 0.32057  0.78477  0.28509  Biso   1.000  O
  O48      1.0000 0.59049  0.73509  0.27903  Biso   1.000  O
  O49      1.0000 0.58844  0.29824  0.49938  Biso   1.000  O
  O50      1.0000 0.55679  0.18539  0.58653  Biso   1.000  O
  O51      1.0000 0.72110  0.24700  0.37950  Biso   1.000  O
  O52      1.0000 0.69300  0.53190  0.34110  Biso   1.000  O
  O53      1.0000 0.78477  0.60957  0.28509  Biso   1.000  O
  O54      1.0000 0.73509  0.39539  0.27903  Biso   1.000  O
  O55      1.0000 0.20176  0.91156  0.00062  Biso   1.000  O
  O56      1.0000 0.31461  0.94321  0.91347  Biso   1.000  O
  O57      1.0000 0.25300  0.77890  0.12050  Biso   1.000  O
  O58      1.0000 0.96810  0.80700  0.15890  Biso   1.000  O
  O59      1.0000 0.89043  0.71523  0.21491  Biso   1.000  O
  O60      1.0000 0.10461  0.76491  0.22097  Biso   1.000  O
  O61      1.0000 0.88606  0.20176  0.00062  Biso   1.000  O
  O62      1.0000 0.82871  0.31461  0.91347  Biso   1.000  O
  O63      1.0000 0.84760  0.25300  0.12050  Biso   1.000  O
  O64      1.0000 0.06600  0.96810  0.15890  Biso   1.000  O
  O65      1.0000 0.17943  0.89043  0.21491  Biso   1.000  O
  O66      1.0000 0.90951  0.10461  0.22097  Biso   1.000  O
  O67      1.0000 0.91156  0.88606  0.00062  Biso   1.000  O
  O68      1.0000 0.94321  0.82871  0.91347  Biso   1.000  O
  O69      1.0000 0.77890  0.84760  0.12050  Biso   1.000  O
  O70      1.0000 0.80700  0.06600  0.15890  Biso   1.000  O
  O71      1.0000 0.71523  0.17943  0.21491  Biso   1.000  O
  O72      1.0000 0.76491  0.90951  0.22097  Biso   1.000  O
  O73      1.0000 0.47761  0.47761  0.56717  Biso   1.000  O
  O74      1.0000 0.02239  0.02239  0.93283  Biso   1.000  O
  O75      1.0000 0.52239  0.52239  0.43283  Biso   1.000  O
  O76      1.0000 0.97761  0.97761  0.06717  Biso   1.000  O
