data_image0
_cell_length_a       16.215
_cell_length_b       13.977
_cell_length_c       14.176
_cell_angle_alpha    90
_cell_angle_beta     114.555
_cell_angle_gamma    90

_symmetry_space_group_name_H-M    "P 1"
_symmetry_int_tables_number       1

loop_
  _symmetry_equiv_pos_as_xyz
  'x, y, z'

loop_
  _atom_site_label
  _atom_site_occupancy
  _atom_site_fract_x
  _atom_site_fract_y
  _atom_site_fract_z
  _atom_site_thermal_displace_type
  _atom_site_B_iso_or_equiv
  _atom_site_type_symbol
  Cu1      1.0000 0.14683  0.81020  0.86384  Biso   1.000  Cu
  Cu2      1.0000 0.45512  0.95416  0.03551  Biso   1.000  Cu
  Cu3      1.0000 0.41563  0.28612  0.12191  Biso   1.000  Cu
  Cu4      1.0000 0.14815  0.45386  0.86420  Biso   1.000  Cu
  C1       1.0000 0.25630  0.87880  0.92130  Biso   1.000  C
  N1       1.0000 0.32610  0.91740  0.95850  Biso   1.000  N
  N2       1.0000 0.14970  0.67310  0.87040  Biso   1.000  N
  C2       1.0000 0.15000  0.59120  0.86620  Biso   1.000  C
  C3       1.0000 0.47070  0.09930  0.04930  Biso   1.000  C
  N3       1.0000 0.45190  0.16890  0.07960  Biso   1.000  N
  C4       1.0000 0.24420  0.37730  0.95460  Biso   1.000  C
  N4       1.0000 0.30330  0.33370  0.01330  Biso   1.000  N
  N5       1.0000 0.50110  0.88900  0.17010  Biso   1.000  N
  C5       1.0000 0.52880  0.85070  0.25200  Biso   1.000  C
  N6       1.0000 0.96120  0.89410  0.73660  Biso   1.000  N
  C6       1.0000 0.03070  0.86300  0.79120  Biso   1.000  C
  Cu5      1.0000 0.85317  0.31020  0.63616  Biso   1.000  Cu
  Cu6      1.0000 0.54488  0.45416  0.46449  Biso   1.000  Cu
  Cu7      1.0000 0.58437  0.78612  0.37809  Biso   1.000  Cu
  Cu8      1.0000 0.85185  0.95386  0.63580  Biso   1.000  Cu
  C7       1.0000 0.74370  0.37880  0.57870  Biso   1.000  C
  N7       1.0000 0.67390  0.41740  0.54150  Biso   1.000  N
  N8       1.0000 0.85030  0.17310  0.62960  Biso   1.000  N
  C8       1.0000 0.85000  0.09120  0.63380  Biso   1.000  C
  C9       1.0000 0.52930  0.59930  0.45070  Biso   1.000  C
  N9       1.0000 0.54810  0.66890  0.42040  Biso   1.000  N
  C10      1.0000 0.75580  0.87730  0.54540  Biso   1.000  C
  N10      1.0000 0.69670  0.83370  0.48670  Biso   1.000  N
  N11      1.0000 0.49890  0.38900  0.32990  Biso   1.000  N
  C11      1.0000 0.47120  0.35070  0.24800  Biso   1.000  C
  N12      1.0000 0.03880  0.39410  0.76340  Biso   1.000  N
  C12      1.0000 0.96930  0.36300  0.70880  Biso   1.000  C
  Cu9      1.0000 0.85317  0.18980  0.13616  Biso   1.000  Cu
  Cu10     1.0000 0.54488  0.04584  0.96449  Biso   1.000  Cu
  Cu11     1.0000 0.58437  0.71388  0.87809  Biso   1.000  Cu
  Cu12     1.0000 0.85185  0.54614  0.13580  Biso   1.000  Cu
  C13      1.0000 0.74370  0.12120  0.07870  Biso   1.000  C
  N13      1.0000 0.67390  0.08260  0.04150  Biso   1.000  N
  N14      1.0000 0.85030  0.32690  0.12960  Biso   1.000  N
  C14      1.0000 0.85000  0.40880  0.13380  Biso   1.000  C
  C15      1.0000 0.52930  0.90070  0.95070  Biso   1.000  C
  N15      1.0000 0.54810  0.83110  0.92040  Biso   1.000  N
  C16      1.0000 0.75580  0.62270  0.04540  Biso   1.000  C
  N16      1.0000 0.69670  0.66630  0.98670  Biso   1.000  N
  N17      1.0000 0.49890  0.11100  0.82990  Biso   1.000  N
  C17      1.0000 0.47120  0.14930  0.74800  Biso   1.000  C
  N18      1.0000 0.03880  0.10590  0.26340  Biso   1.000  N
  C18      1.0000 0.96930  0.13700  0.20880  Biso   1.000  C
  Cu13     1.0000 0.14683  0.68980  0.36384  Biso   1.000  Cu
  Cu14     1.0000 0.45512  0.54584  0.53551  Biso   1.000  Cu
  Cu15     1.0000 0.41563  0.21388  0.62191  Biso   1.000  Cu
  Cu16     1.0000 0.14815  0.04614  0.36420  Biso   1.000  Cu
  C19      1.0000 0.25630  0.62120  0.42130  Biso   1.000  C
  N19      1.0000 0.32610  0.58260  0.45850  Biso   1.000  N
  N20      1.0000 0.14970  0.82690  0.37040  Biso   1.000  N
  C20      1.0000 0.15000  0.90880  0.36620  Biso   1.000  C
  C21      1.0000 0.47070  0.40070  0.54930  Biso   1.000  C
  N21      1.0000 0.45190  0.33110  0.57960  Biso   1.000  N
  C22      1.0000 0.24420  0.12270  0.45460  Biso   1.000  C
  N22      1.0000 0.30330  0.16630  0.51330  Biso   1.000  N
  N23      1.0000 0.50110  0.61100  0.67010  Biso   1.000  N
  C23      1.0000 0.52880  0.64930  0.75200  Biso   1.000  C
  N24      1.0000 0.96120  0.60590  0.23660  Biso   1.000  N
  C24      1.0000 0.03070  0.63700  0.29120  Biso   1.000  C
