data_image0
_cell_length_a       8.6716
_cell_length_b       8.6716
_cell_length_c       10.865
_cell_angle_alpha    90
_cell_angle_beta     90
_cell_angle_gamma    120

_symmetry_space_group_name_H-M    P 1
_symmetry_int_tables_number       1

loop_
  _symmetry_equiv_pos_as_xyz
  'x, y, z'

loop_
  _atom_site_label
  _atom_site_occupancy
  _atom_site_fract_x
  _atom_site_fract_y
  _atom_site_fract_z
  _atom_site_thermal_displace_type
  _atom_site_B_iso_or_equiv
  _atom_site_type_symbol
  Fe1      1.0000 0.94182  0.00000  0.50000  Biso   1.000  Fe
  Fe2      1.0000 0.05818  0.05818  0.16667  Biso   1.000  Fe
  Fe3      1.0000 0.00000  0.94182  0.83333  Biso   1.000  Fe
  H1       1.0000 0.39080  0.48820  0.49020  Biso   1.000  H
  H2       1.0000 0.09740  0.60920  0.15687  Biso   1.000  H
  H3       1.0000 0.51180  0.90260  0.82353  Biso   1.000  H
  H4       1.0000 0.90260  0.51180  0.50980  Biso   1.000  H
  H5       1.0000 0.48820  0.39080  0.84313  Biso   1.000  H
  H6       1.0000 0.60920  0.09740  0.17647  Biso   1.000  H
  C1       1.0000 0.62460  0.68520  0.56250  Biso   1.000  C
  C2       1.0000 0.46510  0.52430  0.56090  Biso   1.000  C
  C3       1.0000 0.06060  0.37540  0.22917  Biso   1.000  C
  C4       1.0000 0.05920  0.53490  0.22757  Biso   1.000  C
  C5       1.0000 0.31480  0.93940  0.89583  Biso   1.000  C
  C6       1.0000 0.47570  0.94080  0.89423  Biso   1.000  C
  C7       1.0000 0.93940  0.31480  0.43750  Biso   1.000  C
  C8       1.0000 0.94080  0.47570  0.43910  Biso   1.000  C
  C9       1.0000 0.68520  0.62460  0.77083  Biso   1.000  C
  C10      1.0000 0.52430  0.46510  0.77243  Biso   1.000  C
  C11      1.0000 0.37540  0.06060  0.10417  Biso   1.000  C
  C12      1.0000 0.53490  0.05920  0.10577  Biso   1.000  C
  C13      1.0000 0.73060  0.73060  0.66667  Biso   1.000  C
  C14      1.0000 0.41640  0.41640  0.66667  Biso   1.000  C
  C15      1.0000 0.24530  0.24530  0.66667  Biso   1.000  C
  C16      1.0000 1.00000  0.26940  0.33333  Biso   1.000  C
  C17      1.0000 0.00000  0.58360  0.33333  Biso   1.000  C
  C18      1.0000 1.00000  0.75470  0.33333  Biso   1.000  C
  C19      1.0000 0.26940  1.00000  0.00000  Biso   1.000  C
  C20      1.0000 0.58360  0.00000  0.00000  Biso   1.000  C
  C21      1.0000 0.75470  1.00000  0.00000  Biso   1.000  C
  O1       1.0000 0.68710  0.80750  0.47030  Biso   1.000  O
  O2       1.0000 0.18910  0.16640  0.56470  Biso   1.000  O
  O3       1.0000 0.12040  0.31290  0.13697  Biso   1.000  O
  O4       1.0000 0.97730  0.81090  0.23137  Biso   1.000  O
  O5       1.0000 0.19250  0.87960  0.80363  Biso   1.000  O
  O6       1.0000 0.83360  0.02270  0.89803  Biso   1.000  O
  O7       1.0000 0.87960  0.19250  0.52970  Biso   1.000  O
  O8       1.0000 0.02270  0.83360  0.43530  Biso   1.000  O
  O9       1.0000 0.80750  0.68710  0.86303  Biso   1.000  O
  O10      1.0000 0.16640  0.18910  0.76863  Biso   1.000  O
  O11      1.0000 0.31290  0.12040  0.19637  Biso   1.000  O
  O12      1.0000 0.81090  0.97730  0.10197  Biso   1.000  O
  O13      1.0000 0.88740  0.88740  0.66667  Biso   1.000  O
  O14      1.0000 0.00000  0.11260  0.33333  Biso   1.000  O
  O15      1.0000 0.11260  1.00000  0.00000  Biso   1.000  O
