data_image0
_cell_length_a       11.418
_cell_length_b       10.037
_cell_length_c       18.546
_cell_angle_alpha    90
_cell_angle_beta     126.68
_cell_angle_gamma    90

_symmetry_space_group_name_H-M    "P 1"
_symmetry_int_tables_number       1

loop_
  _symmetry_equiv_pos_as_xyz
  'x, y, z'

loop_
  _atom_site_label
  _atom_site_occupancy
  _atom_site_fract_x
  _atom_site_fract_y
  _atom_site_fract_z
  _atom_site_thermal_displace_type
  _atom_site_B_iso_or_equiv
  _atom_site_type_symbol
  Zn1      1.0000 0.93538  0.87823  0.69467  Biso   1.000  Zn
  Zn2      1.0000 0.87689  0.57108  0.63188  Biso   1.000  Zn
  O1       1.0000 0.71230  0.86320  0.60792  Biso   1.000  O
  O2       1.0000 0.66790  0.64702  0.56966  Biso   1.000  O
  O3       1.0000 0.94690  0.68691  0.74942  Biso   1.000  O
  O4       1.0000 0.05940  0.54540  0.86547  Biso   1.000  O
  O5       1.0000 0.95830  0.74787  0.61432  Biso   1.000  O
  O6       1.0000 0.98830  0.70500  0.50759  Biso   1.000  O
  O7       1.0000 0.83600  0.47390  0.52201  Biso   1.000  O
  O8       1.0000 0.60710  0.40490  0.45542  Biso   1.000  O
  O9       1.0000 0.84300  0.41099  0.69197  Biso   1.000  O
  O10      1.0000 0.60360  0.37320  0.61061  Biso   1.000  O
  O11      1.0000 0.08400  0.47980  0.71334  Biso   1.000  O
  O12      1.0000 0.17510  0.48750  0.63607  Biso   1.000  O
  C1       1.0000 0.63050  0.76610  0.56920  Biso   1.000  C
  H1       1.0000 0.53080  0.78230  0.53610  Biso   1.000  H
  C2       1.0000 0.01210  0.65660  0.83140  Biso   1.000  C
  H2       1.0000 0.02570  0.72470  0.86970  Biso   1.000  H
  C3       1.0000 0.98300  0.78080  0.55810  Biso   1.000  C
  H3       1.0000 0.99870  0.87080  0.55490  Biso   1.000  H
  C4       1.0000 0.72260  0.40630  0.46460  Biso   1.000  C
  H4       1.0000 0.72810  0.35260  0.42580  Biso   1.000  H
  C5       1.0000 0.73090  0.35060  0.67380  Biso   1.000  C
  H5       1.0000 0.74680  0.28200  0.71240  Biso   1.000  H
  C6       1.0000 0.18480  0.47000  0.70440  Biso   1.000  C
  H6       1.0000 0.27660  0.44680  0.75560  Biso   1.000  H
  Zn3      1.0000 0.06462  0.37823  0.80533  Biso   1.000  Zn
  Zn4      1.0000 0.12311  0.07108  0.86812  Biso   1.000  Zn
  O13      1.0000 0.28770  0.36320  0.89208  Biso   1.000  O
  O14      1.0000 0.33210  0.14702  0.93034  Biso   1.000  O
  O15      1.0000 0.05310  0.18691  0.75058  Biso   1.000  O
  O16      1.0000 0.94060  0.04540  0.63453  Biso   1.000  O
  O17      1.0000 0.04170  0.24787  0.88568  Biso   1.000  O
  O18      1.0000 0.01170  0.20500  0.99241  Biso   1.000  O
  O19      1.0000 0.16400  0.97390  0.97799  Biso   1.000  O
  O20      1.0000 0.39290  0.90490  0.04458  Biso   1.000  O
  O21      1.0000 0.15700  0.91099  0.80803  Biso   1.000  O
  O22      1.0000 0.39640  0.87320  0.88939  Biso   1.000  O
  O23      1.0000 0.91600  0.97980  0.78666  Biso   1.000  O
  O24      1.0000 0.82490  0.98750  0.86393  Biso   1.000  O
  C7       1.0000 0.36950  0.26610  0.93080  Biso   1.000  C
  H7       1.0000 0.46920  0.28230  0.96390  Biso   1.000  H
  C8       1.0000 0.98790  0.15660  0.66860  Biso   1.000  C
  H8       1.0000 0.97430  0.22470  0.63030  Biso   1.000  H
  C9       1.0000 0.01700  0.28080  0.94190  Biso   1.000  C
  H9       1.0000 0.00130  0.37080  0.94510  Biso   1.000  H
  C10      1.0000 0.27740  0.90630  0.03540  Biso   1.000  C
  H10      1.0000 0.27190  0.85260  0.07420  Biso   1.000  H
  C11      1.0000 0.26910  0.85060  0.82620  Biso   1.000  C
  H11      1.0000 0.25320  0.78200  0.78760  Biso   1.000  H
  C12      1.0000 0.81520  0.97000  0.79560  Biso   1.000  C
  H12      1.0000 0.72340  0.94680  0.74440  Biso   1.000  H
  Zn5      1.0000 0.06462  0.12177  0.30533  Biso   1.000  Zn
  Zn6      1.0000 0.12311  0.42892  0.36812  Biso   1.000  Zn
  O25      1.0000 0.28770  0.13680  0.39208  Biso   1.000  O
  O26      1.0000 0.33210  0.35298  0.43034  Biso   1.000  O
  O27      1.0000 0.05310  0.31309  0.25058  Biso   1.000  O
  O28      1.0000 0.94060  0.45460  0.13453  Biso   1.000  O
  O29      1.0000 0.04170  0.25213  0.38568  Biso   1.000  O
  O30      1.0000 0.01170  0.29500  0.49241  Biso   1.000  O
  O31      1.0000 0.16400  0.52610  0.47799  Biso   1.000  O
  O32      1.0000 0.39290  0.59510  0.54458  Biso   1.000  O
  O33      1.0000 0.15700  0.58901  0.30803  Biso   1.000  O
  O34      1.0000 0.39640  0.62680  0.38939  Biso   1.000  O
  O35      1.0000 0.91600  0.52020  0.28666  Biso   1.000  O
  O36      1.0000 0.82490  0.51250  0.36393  Biso   1.000  O
  C13      1.0000 0.36950  0.23390  0.43080  Biso   1.000  C
  H13      1.0000 0.46920  0.21770  0.46390  Biso   1.000  H
  C14      1.0000 0.98790  0.34340  0.16860  Biso   1.000  C
  H14      1.0000 0.97430  0.27530  0.13030  Biso   1.000  H
  C15      1.0000 0.01700  0.21920  0.44190  Biso   1.000  C
  H15      1.0000 0.00130  0.12920  0.44510  Biso   1.000  H
  C16      1.0000 0.27740  0.59370  0.53540  Biso   1.000  C
  H16      1.0000 0.27190  0.64740  0.57420  Biso   1.000  H
  C17      1.0000 0.26910  0.64940  0.32620  Biso   1.000  C
  H17      1.0000 0.25320  0.71800  0.28760  Biso   1.000  H
  C18      1.0000 0.81520  0.53000  0.29560  Biso   1.000  C
  H18      1.0000 0.72340  0.55320  0.24440  Biso   1.000  H
  Zn7      1.0000 0.93538  0.62177  0.19467  Biso   1.000  Zn
  Zn8      1.0000 0.87689  0.92892  0.13188  Biso   1.000  Zn
  O37      1.0000 0.71230  0.63680  0.10792  Biso   1.000  O
  O38      1.0000 0.66790  0.85298  0.06966  Biso   1.000  O
  O39      1.0000 0.94690  0.81309  0.24942  Biso   1.000  O
  O40      1.0000 0.05940  0.95460  0.36547  Biso   1.000  O
  O41      1.0000 0.95830  0.75213  0.11432  Biso   1.000  O
  O42      1.0000 0.98830  0.79500  0.00759  Biso   1.000  O
  O43      1.0000 0.83600  0.02610  0.02201  Biso   1.000  O
  O44      1.0000 0.60710  0.09510  0.95542  Biso   1.000  O
  O45      1.0000 0.84300  0.08901  0.19197  Biso   1.000  O
  O46      1.0000 0.60360  0.12680  0.11061  Biso   1.000  O
  O47      1.0000 0.08400  0.02020  0.21334  Biso   1.000  O
  O48      1.0000 0.17510  0.01250  0.13607  Biso   1.000  O
  C19      1.0000 0.63050  0.73390  0.06920  Biso   1.000  C
  H19      1.0000 0.53080  0.71770  0.03610  Biso   1.000  H
  C20      1.0000 0.01210  0.84340  0.33140  Biso   1.000  C
  H20      1.0000 0.02570  0.77530  0.36970  Biso   1.000  H
  C21      1.0000 0.98300  0.71920  0.05810  Biso   1.000  C
  H21      1.0000 0.99870  0.62920  0.05490  Biso   1.000  H
  C22      1.0000 0.72260  0.09370  0.96460  Biso   1.000  C
  H22      1.0000 0.72810  0.14740  0.92580  Biso   1.000  H
  C23      1.0000 0.73090  0.14940  0.17380  Biso   1.000  C
  H23      1.0000 0.74680  0.21800  0.21240  Biso   1.000  H
  C24      1.0000 0.18480  0.03000  0.20440  Biso   1.000  C
  H24      1.0000 0.27660  0.05320  0.25560  Biso   1.000  H
  Zn9      1.0000 0.00000  0.50000  0.50000  Biso   1.000  Zn
  Zn10     1.0000 0.00000  0.00000  0.00000  Biso   1.000  Zn
  Zn11     1.0000 0.50000  0.50000  0.50000  Biso   1.000  Zn
  Zn12     1.0000 0.50000  0.00000  0.00000  Biso   1.000  Zn
