data_image0
_cell_length_a       17.6943
_cell_length_b       17.6943
_cell_length_c       13.2921
_cell_angle_alpha    90
_cell_angle_beta     90
_cell_angle_gamma    120

_symmetry_space_group_name_H-M    "P 1"
_symmetry_int_tables_number       1

loop_
  _symmetry_equiv_pos_as_xyz
  'x, y, z'

loop_
  _atom_site_label
  _atom_site_occupancy
  _atom_site_fract_x
  _atom_site_fract_y
  _atom_site_fract_z
  _atom_site_thermal_displace_type
  _atom_site_B_iso_or_equiv
  _atom_site_type_symbol
  Cu1      1.0000 0.13309  0.57526  0.68047  Biso   1.000  Cu
  Cu2      1.0000 0.13363  0.58025  0.43051  Biso   1.000  Cu
  N1       1.0000 0.90290  0.50370  0.29320  Biso   1.000  N
  N2       1.0000 0.09930  0.50590  0.31500  Biso   1.000  N
  O1       1.0000 0.17244  0.63846  0.55750  Biso   1.000  O
  H1       1.0000 0.17800  0.68500  0.55900  Biso   1.000  H
  O2       1.0000 0.98490  0.43360  0.20050  Biso   1.000  O
  O3       1.0000 0.69950  0.50100  0.27740  Biso   1.000  O
  O4       1.0000 0.01460  0.57060  0.41170  Biso   1.000  O
  O5       1.0000 0.29620  0.49880  0.33360  Biso   1.000  O
  O6       1.0000 0.23670  0.56110  0.42550  Biso   1.000  O
  O7       1.0000 0.76250  0.44100  0.18550  Biso   1.000  O
  C1       1.0000 0.02260  0.48240  0.27820  Biso   1.000  C
  C2       1.0000 0.97620  0.52250  0.33520  Biso   1.000  C
  C3       1.0000 0.16240  0.48480  0.27290  Biso   1.000  C
  H2       1.0000 0.13440  0.42030  0.26360  Biso   1.000  H
  C4       1.0000 0.23770  0.51590  0.35060  Biso   1.000  C
  C5       1.0000 0.19900  0.53130  0.17110  Biso   1.000  C
  H3       1.0000 0.15070  0.51590  0.12420  Biso   1.000  H
  H4       1.0000 0.23850  0.51290  0.14310  Biso   1.000  H
  H5       1.0000 0.23100  0.59460  0.18160  Biso   1.000  H
  C6       1.0000 0.76240  0.48840  0.25910  Biso   1.000  C
  C7       1.0000 0.88700  0.63590  0.30880  Biso   1.000  C
  H6       1.0000 0.93870  0.66640  0.35180  Biso   1.000  H
  H7       1.0000 0.84470  0.65400  0.32670  Biso   1.000  H
  H8       1.0000 0.90420  0.65040  0.23820  Biso   1.000  H
  C8       1.0000 0.84470  0.53500  0.32430  Biso   1.000  C
  H9       1.0000 0.82880  0.52020  0.39670  Biso   1.000  H
  Cu3      1.0000 0.42474  0.55783  0.68047  Biso   1.000  Cu
  Cu4      1.0000 0.41975  0.55338  0.43051  Biso   1.000  Cu
  N3       1.0000 0.49630  0.39920  0.29320  Biso   1.000  N
  N4       1.0000 0.49410  0.59340  0.31500  Biso   1.000  N
  O8       1.0000 0.36154  0.53398  0.55750  Biso   1.000  O
  H10      1.0000 0.31500  0.49300  0.55900  Biso   1.000  H
  O9       1.0000 0.56640  0.55130  0.20050  Biso   1.000  O
  O10      1.0000 0.49900  0.19850  0.27740  Biso   1.000  O
  O11      1.0000 0.42940  0.44400  0.41170  Biso   1.000  O
  O12      1.0000 0.50120  0.79740  0.33360  Biso   1.000  O
  O13      1.0000 0.43890  0.67560  0.42550  Biso   1.000  O
  O14      1.0000 0.55900  0.32150  0.18550  Biso   1.000  O
  C9       1.0000 0.51760  0.54020  0.27820  Biso   1.000  C
  C10      1.0000 0.47750  0.45370  0.33520  Biso   1.000  C
  C11      1.0000 0.51520  0.67760  0.27290  Biso   1.000  C
  H11      1.0000 0.57970  0.71410  0.26360  Biso   1.000  H
  C12      1.0000 0.48410  0.72180  0.35060  Biso   1.000  C
  C13      1.0000 0.46870  0.66770  0.17110  Biso   1.000  C
  H12      1.0000 0.48410  0.63480  0.12420  Biso   1.000  H
  H13      1.0000 0.48710  0.72560  0.14310  Biso   1.000  H
  H14      1.0000 0.40540  0.63640  0.18160  Biso   1.000  H
  C14      1.0000 0.51160  0.27400  0.25910  Biso   1.000  C
  C15      1.0000 0.36410  0.25110  0.30880  Biso   1.000  C
  H15      1.0000 0.33360  0.27230  0.35180  Biso   1.000  H
  H16      1.0000 0.34600  0.19070  0.32670  Biso   1.000  H
  H17      1.0000 0.34960  0.25380  0.23820  Biso   1.000  H
  C16      1.0000 0.46500  0.30970  0.32430  Biso   1.000  C
  H18      1.0000 0.47980  0.30860  0.39670  Biso   1.000  H
  Cu5      1.0000 0.44217  0.86691  0.68047  Biso   1.000  Cu
  Cu6      1.0000 0.44662  0.86637  0.43051  Biso   1.000  Cu
  N5       1.0000 0.60080  0.09710  0.29320  Biso   1.000  N
  N6       1.0000 0.40660  0.90070  0.31500  Biso   1.000  N
  O15      1.0000 0.46602  0.82756  0.55750  Biso   1.000  O
  H19      1.0000 0.50700  0.82200  0.55900  Biso   1.000  H
  O16      1.0000 0.44870  0.01510  0.20050  Biso   1.000  O
  O17      1.0000 0.80150  0.30050  0.27740  Biso   1.000  O
  O18      1.0000 0.55600  0.98540  0.41170  Biso   1.000  O
  O19      1.0000 0.20260  0.70380  0.33360  Biso   1.000  O
  O20      1.0000 0.32440  0.76330  0.42550  Biso   1.000  O
  O21      1.0000 0.67850  0.23750  0.18550  Biso   1.000  O
  C17      1.0000 0.45980  0.97740  0.27820  Biso   1.000  C
  C18      1.0000 0.54630  0.02380  0.33520  Biso   1.000  C
  C19      1.0000 0.32240  0.83760  0.27290  Biso   1.000  C
  H20      1.0000 0.28590  0.86560  0.26360  Biso   1.000  H
  C20      1.0000 0.27820  0.76230  0.35060  Biso   1.000  C
  C21      1.0000 0.33230  0.80100  0.17110  Biso   1.000  C
  H21      1.0000 0.36520  0.84930  0.12420  Biso   1.000  H
  H22      1.0000 0.27440  0.76150  0.14310  Biso   1.000  H
  H23      1.0000 0.36360  0.76900  0.18160  Biso   1.000  H
  C22      1.0000 0.72600  0.23760  0.25910  Biso   1.000  C
  C23      1.0000 0.74890  0.11300  0.30880  Biso   1.000  C
  H24      1.0000 0.72770  0.06130  0.35180  Biso   1.000  H
  H25      1.0000 0.80930  0.15530  0.32670  Biso   1.000  H
  H26      1.0000 0.74620  0.09580  0.23820  Biso   1.000  H
  C24      1.0000 0.69030  0.15530  0.32430  Biso   1.000  C
  H27      1.0000 0.69140  0.17120  0.39670  Biso   1.000  H
  Cu7      1.0000 0.86691  0.42474  0.18047  Biso   1.000  Cu
  Cu8      1.0000 0.86637  0.41975  0.93051  Biso   1.000  Cu
  N7       1.0000 0.09710  0.49630  0.79320  Biso   1.000  N
  N8       1.0000 0.90070  0.49410  0.81500  Biso   1.000  N
  O22      1.0000 0.82756  0.36154  0.05750  Biso   1.000  O
  H28      1.0000 0.82200  0.31500  0.05900  Biso   1.000  H
  O23      1.0000 0.01510  0.56640  0.70050  Biso   1.000  O
  O24      1.0000 0.30050  0.49900  0.77740  Biso   1.000  O
  O25      1.0000 0.98540  0.42940  0.91170  Biso   1.000  O
  O26      1.0000 0.70380  0.50120  0.83360  Biso   1.000  O
  O27      1.0000 0.76330  0.43890  0.92550  Biso   1.000  O
  O28      1.0000 0.23750  0.55900  0.68550  Biso   1.000  O
  C25      1.0000 0.97740  0.51760  0.77820  Biso   1.000  C
  C26      1.0000 0.02380  0.47750  0.83520  Biso   1.000  C
  C27      1.0000 0.83760  0.51520  0.77290  Biso   1.000  C
  H29      1.0000 0.86560  0.57970  0.76360  Biso   1.000  H
  C28      1.0000 0.76230  0.48410  0.85060  Biso   1.000  C
  C29      1.0000 0.80100  0.46870  0.67110  Biso   1.000  C
  H30      1.0000 0.84930  0.48410  0.62420  Biso   1.000  H
  H31      1.0000 0.76150  0.48710  0.64310  Biso   1.000  H
  H32      1.0000 0.76900  0.40540  0.68160  Biso   1.000  H
  C30      1.0000 0.23760  0.51160  0.75910  Biso   1.000  C
  C31      1.0000 0.11300  0.36410  0.80880  Biso   1.000  C
  H33      1.0000 0.06130  0.33360  0.85180  Biso   1.000  H
  H34      1.0000 0.15530  0.34600  0.82670  Biso   1.000  H
  H35      1.0000 0.09580  0.34960  0.73820  Biso   1.000  H
  C32      1.0000 0.15530  0.46500  0.82430  Biso   1.000  C
  H36      1.0000 0.17120  0.47980  0.89670  Biso   1.000  H
  Cu9      1.0000 0.57526  0.44217  0.18047  Biso   1.000  Cu
  Cu10     1.0000 0.58025  0.44662  0.93051  Biso   1.000  Cu
  N9       1.0000 0.50370  0.60080  0.79320  Biso   1.000  N
  N10      1.0000 0.50590  0.40660  0.81500  Biso   1.000  N
  O29      1.0000 0.63846  0.46602  0.05750  Biso   1.000  O
  H37      1.0000 0.68500  0.50700  0.05900  Biso   1.000  H
  O30      1.0000 0.43360  0.44870  0.70050  Biso   1.000  O
  O31      1.0000 0.50100  0.80150  0.77740  Biso   1.000  O
  O32      1.0000 0.57060  0.55600  0.91170  Biso   1.000  O
  O33      1.0000 0.49880  0.20260  0.83360  Biso   1.000  O
  O34      1.0000 0.56110  0.32440  0.92550  Biso   1.000  O
  O35      1.0000 0.44100  0.67850  0.68550  Biso   1.000  O
  C33      1.0000 0.48240  0.45980  0.77820  Biso   1.000  C
  C34      1.0000 0.52250  0.54630  0.83520  Biso   1.000  C
  C35      1.0000 0.48480  0.32240  0.77290  Biso   1.000  C
  H38      1.0000 0.42030  0.28590  0.76360  Biso   1.000  H
  C36      1.0000 0.51590  0.27820  0.85060  Biso   1.000  C
  C37      1.0000 0.53130  0.33230  0.67110  Biso   1.000  C
  H39      1.0000 0.51590  0.36520  0.62420  Biso   1.000  H
  H40      1.0000 0.51290  0.27440  0.64310  Biso   1.000  H
  H41      1.0000 0.59460  0.36360  0.68160  Biso   1.000  H
  C38      1.0000 0.48840  0.72600  0.75910  Biso   1.000  C
  C39      1.0000 0.63590  0.74890  0.80880  Biso   1.000  C
  H42      1.0000 0.66640  0.72770  0.85180  Biso   1.000  H
  H43      1.0000 0.65400  0.80930  0.82670  Biso   1.000  H
  H44      1.0000 0.65040  0.74620  0.73820  Biso   1.000  H
  C40      1.0000 0.53500  0.69030  0.82430  Biso   1.000  C
  H45      1.0000 0.52020  0.69140  0.89670  Biso   1.000  H
  Cu11     1.0000 0.55783  0.13309  0.18047  Biso   1.000  Cu
  Cu12     1.0000 0.55338  0.13363  0.93051  Biso   1.000  Cu
  N11      1.0000 0.39920  0.90290  0.79320  Biso   1.000  N
  N12      1.0000 0.59340  0.09930  0.81500  Biso   1.000  N
  O36      1.0000 0.53398  0.17244  0.05750  Biso   1.000  O
  H46      1.0000 0.49300  0.17800  0.05900  Biso   1.000  H
  O37      1.0000 0.55130  0.98490  0.70050  Biso   1.000  O
  O38      1.0000 0.19850  0.69950  0.77740  Biso   1.000  O
  O39      1.0000 0.44400  0.01460  0.91170  Biso   1.000  O
  O40      1.0000 0.79740  0.29620  0.83360  Biso   1.000  O
  O41      1.0000 0.67560  0.23670  0.92550  Biso   1.000  O
  O42      1.0000 0.32150  0.76250  0.68550  Biso   1.000  O
  C41      1.0000 0.54020  0.02260  0.77820  Biso   1.000  C
  C42      1.0000 0.45370  0.97620  0.83520  Biso   1.000  C
  C43      1.0000 0.67760  0.16240  0.77290  Biso   1.000  C
  H47      1.0000 0.71410  0.13440  0.76360  Biso   1.000  H
  C44      1.0000 0.72180  0.23770  0.85060  Biso   1.000  C
  C45      1.0000 0.66770  0.19900  0.67110  Biso   1.000  C
  H48      1.0000 0.63480  0.15070  0.62420  Biso   1.000  H
  H49      1.0000 0.72560  0.23850  0.64310  Biso   1.000  H
  H50      1.0000 0.63640  0.23100  0.68160  Biso   1.000  H
  C46      1.0000 0.27400  0.76240  0.75910  Biso   1.000  C
  C47      1.0000 0.25110  0.88700  0.80880  Biso   1.000  C
  H51      1.0000 0.27230  0.93870  0.85180  Biso   1.000  H
  H52      1.0000 0.19070  0.84470  0.82670  Biso   1.000  H
  H53      1.0000 0.25380  0.90420  0.73820  Biso   1.000  H
  C48      1.0000 0.30970  0.84470  0.82430  Biso   1.000  C
  H54      1.0000 0.30860  0.82880  0.89670  Biso   1.000  H
  Ca1      1.0000 0.33333  0.66667  0.55630  Biso   1.000  Ca
  Ca2      1.0000 0.66667  0.33333  0.05630  Biso   1.000  Ca
