data_image0
_cell_length_a       15.8346
_cell_length_b       15.8346
_cell_length_c       21.463
_cell_angle_alpha    90
_cell_angle_beta     90
_cell_angle_gamma    90

_symmetry_space_group_name_H-M    "P 1"
_symmetry_int_tables_number       1

loop_
  _symmetry_equiv_pos_as_xyz
  'x, y, z'

loop_
  _atom_site_label
  _atom_site_occupancy
  _atom_site_fract_x
  _atom_site_fract_y
  _atom_site_fract_z
  _atom_site_thermal_displace_type
  _atom_site_B_iso_or_equiv
  _atom_site_type_symbol
  C1       1.0000 0.91270  0.85920  0.85800  Biso   1.000  C
  H1       1.0000 0.96290  0.88830  0.84680  Biso   1.000  H
  C2       1.0000 0.88320  0.79780  0.81870  Biso   1.000  C
  H2       1.0000 0.91370  0.78440  0.78190  Biso   1.000  H
  C3       1.0000 0.80770  0.75430  0.83270  Biso   1.000  C
  C4       1.0000 0.76510  0.78180  0.88500  Biso   1.000  C
  H3       1.0000 0.71130  0.75870  0.89480  Biso   1.000  H
  C5       1.0000 0.79970  0.84260  0.92290  Biso   1.000  C
  H4       1.0000 0.76930  0.85870  0.95910  Biso   1.000  H
  C6       1.0000 0.77800  0.68220  0.79480  Biso   1.000  C
  C7       1.0000 0.80810  0.66360  0.73590  Biso   1.000  C
  H5       1.0000 0.84970  0.69900  0.71760  Biso   1.000  H
  C8       1.0000 0.40570  0.22140  0.79650  Biso   1.000  C
  H6       1.0000 0.41600  0.20100  0.83740  Biso   1.000  H
  C9       1.0000 0.46040  0.27990  0.77100  Biso   1.000  C
  H7       1.0000 0.50900  0.29810  0.79320  Biso   1.000  H
  C10      1.0000 0.44270  0.31120  0.71280  Biso   1.000  C
  C11      1.0000 0.37240  0.28290  0.67970  Biso   1.000  C
  H8       1.0000 0.36120  0.30500  0.63940  Biso   1.000  H
  C12      1.0000 0.49660  0.37530  0.68130  Biso   1.000  C
  C13      1.0000 0.59220  0.42570  0.61920  Biso   1.000  C
  C14      1.0000 0.66370  0.43440  0.57540  Biso   1.000  C
  C15      1.0000 0.66510  0.50650  0.53870  Biso   1.000  C
  H9       1.0000 0.62000  0.54590  0.54090  Biso   1.000  H
  C16      1.0000 0.73170  0.52090  0.49900  Biso   1.000  C
  H10      1.0000 0.73620  0.57270  0.47690  Biso   1.000  H
  C17      1.0000 0.79370  0.45680  0.49170  Biso   1.000  C
  H11      1.0000 0.83530  0.46170  0.46000  Biso   1.000  H
  C18      1.0000 0.79340  0.38840  0.53000  Biso   1.000  C
  C19      1.0000 0.72650  0.37530  0.57010  Biso   1.000  C
  H12      1.0000 0.72400  0.32510  0.59430  Biso   1.000  H
  C20      1.0000 0.86010  0.31990  0.52250  Biso   1.000  C
  C21      1.0000 0.87700  0.26490  0.57130  Biso   1.000  C
  H13      1.0000 0.85070  0.27150  0.61080  Biso   1.000  H
  C22      1.0000 0.93360  0.20030  0.56020  Biso   1.000  C
  H14      1.0000 0.94220  0.16110  0.59310  Biso   1.000  H
  C23      1.0000 0.96110  0.24460  0.46390  Biso   1.000  C
  H15      1.0000 0.99090  0.23790  0.42580  Biso   1.000  H
  C24      1.0000 0.90630  0.31150  0.46800  Biso   1.000  C
  H16      1.0000 0.90030  0.35060  0.43470  Biso   1.000  H
  N1       1.0000 0.87450  0.88060  0.91160  Biso   1.000  N
  N2       1.0000 0.49170  0.45590  0.68370  Biso   1.000  N
  N3       1.0000 0.55270  0.48950  0.64460  Biso   1.000  N
  N4       1.0000 0.55980  0.35300  0.64180  Biso   1.000  N
  N5       1.0000 0.58120  0.26900  0.62330  Biso   1.000  N
  H17      1.0000 0.58300  0.23520  0.65760  Biso   1.000  H
  H18      1.0000 0.54100  0.24970  0.59660  Biso   1.000  H
  N6       1.0000 0.97640  0.18750  0.50910  Biso   1.000  N
  C25      1.0000 0.08730  0.14080  0.35800  Biso   1.000  C
  H19      1.0000 0.03710  0.11170  0.34680  Biso   1.000  H
  C26      1.0000 0.11680  0.20220  0.31870  Biso   1.000  C
  H20      1.0000 0.08630  0.21560  0.28190  Biso   1.000  H
  C27      1.0000 0.19230  0.24570  0.33270  Biso   1.000  C
  C28      1.0000 0.23490  0.21820  0.38500  Biso   1.000  C
  H21      1.0000 0.28870  0.24130  0.39480  Biso   1.000  H
  C29      1.0000 0.20030  0.15740  0.42290  Biso   1.000  C
  H22      1.0000 0.23070  0.14130  0.45910  Biso   1.000  H
  C30      1.0000 0.22200  0.31780  0.29480  Biso   1.000  C
  C31      1.0000 0.19190  0.33640  0.23590  Biso   1.000  C
  H23      1.0000 0.15030  0.30100  0.21760  Biso   1.000  H
  C32      1.0000 0.59430  0.77860  0.29650  Biso   1.000  C
  H24      1.0000 0.58400  0.79900  0.33740  Biso   1.000  H
  C33      1.0000 0.53960  0.72010  0.27100  Biso   1.000  C
  H25      1.0000 0.49100  0.70190  0.29320  Biso   1.000  H
  C34      1.0000 0.55730  0.68880  0.21280  Biso   1.000  C
  C35      1.0000 0.62760  0.71710  0.17970  Biso   1.000  C
  H26      1.0000 0.63880  0.69500  0.13940  Biso   1.000  H
  C36      1.0000 0.50340  0.62470  0.18130  Biso   1.000  C
  C37      1.0000 0.40780  0.57430  0.11920  Biso   1.000  C
  C38      1.0000 0.33630  0.56560  0.07540  Biso   1.000  C
  C39      1.0000 0.33490  0.49350  0.03870  Biso   1.000  C
  H27      1.0000 0.38000  0.45410  0.04090  Biso   1.000  H
  C40      1.0000 0.26830  0.47910  0.99900  Biso   1.000  C
  H28      1.0000 0.26380  0.42730  0.97690  Biso   1.000  H
  C41      1.0000 0.20630  0.54320  0.99170  Biso   1.000  C
  H29      1.0000 0.16470  0.53830  0.96000  Biso   1.000  H
  C42      1.0000 0.20660  0.61160  0.03000  Biso   1.000  C
  C43      1.0000 0.27350  0.62470  0.07010  Biso   1.000  C
  H30      1.0000 0.27600  0.67490  0.09430  Biso   1.000  H
  C44      1.0000 0.13990  0.68010  0.02250  Biso   1.000  C
  C45      1.0000 0.12300  0.73510  0.07130  Biso   1.000  C
  H31      1.0000 0.14930  0.72850  0.11080  Biso   1.000  H
  C46      1.0000 0.06640  0.79970  0.06020  Biso   1.000  C
  H32      1.0000 0.05780  0.83890  0.09310  Biso   1.000  H
  C47      1.0000 0.03890  0.75540  0.96390  Biso   1.000  C
  H33      1.0000 0.00910  0.76210  0.92580  Biso   1.000  H
  C48      1.0000 0.09370  0.68850  0.96800  Biso   1.000  C
  H34      1.0000 0.09970  0.64940  0.93470  Biso   1.000  H
  N7       1.0000 0.12550  0.11940  0.41160  Biso   1.000  N
  N8       1.0000 0.50830  0.54410  0.18370  Biso   1.000  N
  N9       1.0000 0.44730  0.51050  0.14460  Biso   1.000  N
  N10      1.0000 0.44020  0.64700  0.14180  Biso   1.000  N
  N11      1.0000 0.41880  0.73100  0.12330  Biso   1.000  N
  H35      1.0000 0.41700  0.76480  0.15760  Biso   1.000  H
  H36      1.0000 0.45900  0.75030  0.09660  Biso   1.000  H
  N12      1.0000 0.02360  0.81250  0.00910  Biso   1.000  N
  C49      1.0000 0.64080  0.41270  0.10800  Biso   1.000  C
  H37      1.0000 0.61170  0.46290  0.09680  Biso   1.000  H
  C50      1.0000 0.70220  0.38320  0.06870  Biso   1.000  C
  H38      1.0000 0.71560  0.41370  0.03190  Biso   1.000  H
  C51      1.0000 0.74570  0.30770  0.08270  Biso   1.000  C
  C52      1.0000 0.71820  0.26510  0.13500  Biso   1.000  C
  H39      1.0000 0.74130  0.21130  0.14480  Biso   1.000  H
  C53      1.0000 0.65740  0.29970  0.17290  Biso   1.000  C
  H40      1.0000 0.64130  0.26930  0.20910  Biso   1.000  H
  C54      1.0000 0.81780  0.27800  0.04480  Biso   1.000  C
  C55      1.0000 0.83640  0.30810  0.98590  Biso   1.000  C
  H41      1.0000 0.80100  0.34970  0.96760  Biso   1.000  H
  C56      1.0000 0.27860  0.90570  0.04650  Biso   1.000  C
  H42      1.0000 0.29900  0.91600  0.08740  Biso   1.000  H
  C57      1.0000 0.22010  0.96040  0.02100  Biso   1.000  C
  H43      1.0000 0.20190  0.00900  0.04320  Biso   1.000  H
  C58      1.0000 0.18880  0.94270  0.96280  Biso   1.000  C
  C59      1.0000 0.21710  0.87240  0.92970  Biso   1.000  C
  H44      1.0000 0.19500  0.86120  0.88940  Biso   1.000  H
  C60      1.0000 0.12470  0.99660  0.93130  Biso   1.000  C
  C61      1.0000 0.07430  0.09220  0.86920  Biso   1.000  C
  C62      1.0000 0.06560  0.16370  0.82540  Biso   1.000  C
  C63      1.0000 0.99350  0.16510  0.78870  Biso   1.000  C
  H45      1.0000 0.95410  0.12000  0.79090  Biso   1.000  H
  C64      1.0000 0.97910  0.23170  0.74900  Biso   1.000  C
  H46      1.0000 0.92730  0.23620  0.72690  Biso   1.000  H
  C65      1.0000 0.04320  0.29370  0.74170  Biso   1.000  C
  H47      1.0000 0.03830  0.33530  0.71000  Biso   1.000  H
  C66      1.0000 0.11160  0.29340  0.78000  Biso   1.000  C
  C67      1.0000 0.12470  0.22650  0.82010  Biso   1.000  C
  H48      1.0000 0.17490  0.22400  0.84430  Biso   1.000  H
  C68      1.0000 0.18010  0.36010  0.77250  Biso   1.000  C
  C69      1.0000 0.23510  0.37700  0.82130  Biso   1.000  C
  H49      1.0000 0.22850  0.35070  0.86080  Biso   1.000  H
  C70      1.0000 0.29970  0.43360  0.81020  Biso   1.000  C
  H50      1.0000 0.33890  0.44220  0.84310  Biso   1.000  H
  C71      1.0000 0.25540  0.46110  0.71390  Biso   1.000  C
  H51      1.0000 0.26210  0.49090  0.67580  Biso   1.000  H
  C72      1.0000 0.18850  0.40630  0.71800  Biso   1.000  C
  H52      1.0000 0.14940  0.40030  0.68470  Biso   1.000  H
  N13      1.0000 0.61940  0.37450  0.16160  Biso   1.000  N
  N14      1.0000 0.04410  0.99170  0.93370  Biso   1.000  N
  N15      1.0000 0.01050  0.05270  0.89460  Biso   1.000  N
  N16      1.0000 0.14700  0.05980  0.89180  Biso   1.000  N
  N17      1.0000 0.23100  0.08120  0.87330  Biso   1.000  N
  H53      1.0000 0.26480  0.08300  0.90760  Biso   1.000  H
  H54      1.0000 0.25030  0.04100  0.84660  Biso   1.000  H
  N18      1.0000 0.31250  0.47640  0.75910  Biso   1.000  N
  C73      1.0000 0.35920  0.58730  0.60800  Biso   1.000  C
  H55      1.0000 0.38830  0.53710  0.59680  Biso   1.000  H
  C74      1.0000 0.29780  0.61680  0.56870  Biso   1.000  C
  H56      1.0000 0.28440  0.58630  0.53190  Biso   1.000  H
  C75      1.0000 0.25430  0.69230  0.58270  Biso   1.000  C
  C76      1.0000 0.28180  0.73490  0.63500  Biso   1.000  C
  H57      1.0000 0.25870  0.78870  0.64480  Biso   1.000  H
  C77      1.0000 0.34260  0.70030  0.67290  Biso   1.000  C
  H58      1.0000 0.35870  0.73070  0.70910  Biso   1.000  H
  C78      1.0000 0.18220  0.72200  0.54480  Biso   1.000  C
  C79      1.0000 0.16360  0.69190  0.48590  Biso   1.000  C
  H59      1.0000 0.19900  0.65030  0.46760  Biso   1.000  H
  C80      1.0000 0.72140  0.09430  0.54650  Biso   1.000  C
  H60      1.0000 0.70100  0.08400  0.58740  Biso   1.000  H
  C81      1.0000 0.77990  0.03960  0.52100  Biso   1.000  C
  H61      1.0000 0.79810  0.99100  0.54320  Biso   1.000  H
  C82      1.0000 0.81120  0.05730  0.46280  Biso   1.000  C
  C83      1.0000 0.78290  0.12760  0.42970  Biso   1.000  C
  H62      1.0000 0.80500  0.13880  0.38940  Biso   1.000  H
  C84      1.0000 0.87530  0.00340  0.43130  Biso   1.000  C
  C85      1.0000 0.92570  0.90780  0.36920  Biso   1.000  C
  C86      1.0000 0.93440  0.83630  0.32540  Biso   1.000  C
  C87      1.0000 0.00650  0.83490  0.28870  Biso   1.000  C
  H63      1.0000 0.04590  0.88000  0.29090  Biso   1.000  H
  C88      1.0000 0.02090  0.76830  0.24900  Biso   1.000  C
  H64      1.0000 0.07270  0.76380  0.22690  Biso   1.000  H
  C89      1.0000 0.95680  0.70630  0.24170  Biso   1.000  C
  H65      1.0000 0.96170  0.66470  0.21000  Biso   1.000  H
  C90      1.0000 0.88840  0.70660  0.28000  Biso   1.000  C
  C91      1.0000 0.87530  0.77350  0.32010  Biso   1.000  C
  H66      1.0000 0.82510  0.77600  0.34430  Biso   1.000  H
  C92      1.0000 0.81990  0.63990  0.27250  Biso   1.000  C
  C93      1.0000 0.76490  0.62300  0.32130  Biso   1.000  C
  H67      1.0000 0.77150  0.64930  0.36080  Biso   1.000  H
  C94      1.0000 0.70030  0.56640  0.31020  Biso   1.000  C
  H68      1.0000 0.66110  0.55780  0.34310  Biso   1.000  H
  C95      1.0000 0.74460  0.53890  0.21390  Biso   1.000  C
  H69      1.0000 0.73790  0.50910  0.17580  Biso   1.000  H
  C96      1.0000 0.81150  0.59370  0.21800  Biso   1.000  C
  H70      1.0000 0.85060  0.59970  0.18470  Biso   1.000  H
  N19      1.0000 0.38060  0.62550  0.66160  Biso   1.000  N
  N20      1.0000 0.95590  0.00830  0.43370  Biso   1.000  N
  N21      1.0000 0.98950  0.94730  0.39460  Biso   1.000  N
  N22      1.0000 0.85300  0.94020  0.39180  Biso   1.000  N
  N23      1.0000 0.76900  0.91880  0.37330  Biso   1.000  N
  H71      1.0000 0.73520  0.91700  0.40760  Biso   1.000  H
  H72      1.0000 0.74970  0.95900  0.34660  Biso   1.000  H
  N24      1.0000 0.68750  0.52360  0.25910  Biso   1.000  N
  C97      1.0000 0.58730  0.35920  0.39200  Biso   1.000  C
  H73      1.0000 0.53710  0.38830  0.40320  Biso   1.000  H
  C98      1.0000 0.61680  0.29780  0.43130  Biso   1.000  C
  H74      1.0000 0.58630  0.28440  0.46810  Biso   1.000  H
  C99      1.0000 0.69230  0.25430  0.41730  Biso   1.000  C
  C100     1.0000 0.73490  0.28180  0.36500  Biso   1.000  C
  H75      1.0000 0.78870  0.25870  0.35520  Biso   1.000  H
  C101     1.0000 0.70030  0.34260  0.32710  Biso   1.000  C
  H76      1.0000 0.73070  0.35870  0.29090  Biso   1.000  H
  C102     1.0000 0.72200  0.18220  0.45520  Biso   1.000  C
  C103     1.0000 0.69190  0.16360  0.51410  Biso   1.000  C
  H77      1.0000 0.65030  0.19900  0.53240  Biso   1.000  H
  C104     1.0000 0.09430  0.72140  0.45350  Biso   1.000  C
  H78      1.0000 0.08400  0.70100  0.41260  Biso   1.000  H
  C105     1.0000 0.03960  0.77990  0.47900  Biso   1.000  C
  H79      1.0000 0.99100  0.79810  0.45680  Biso   1.000  H
  C106     1.0000 0.05730  0.81120  0.53720  Biso   1.000  C
  C107     1.0000 0.12760  0.78290  0.57030  Biso   1.000  C
  H80      1.0000 0.13880  0.80500  0.61060  Biso   1.000  H
  C108     1.0000 0.00340  0.87530  0.56870  Biso   1.000  C
  C109     1.0000 0.90780  0.92570  0.63080  Biso   1.000  C
  C110     1.0000 0.83630  0.93440  0.67460  Biso   1.000  C
  C111     1.0000 0.83490  0.00650  0.71130  Biso   1.000  C
  H81      1.0000 0.88000  0.04590  0.70910  Biso   1.000  H
  C112     1.0000 0.76830  0.02090  0.75100  Biso   1.000  C
  H82      1.0000 0.76380  0.07270  0.77310  Biso   1.000  H
  C113     1.0000 0.70630  0.95680  0.75830  Biso   1.000  C
  H83      1.0000 0.66470  0.96170  0.79000  Biso   1.000  H
  C114     1.0000 0.70660  0.88840  0.72000  Biso   1.000  C
  C115     1.0000 0.77350  0.87530  0.67990  Biso   1.000  C
  H84      1.0000 0.77600  0.82510  0.65570  Biso   1.000  H
  C116     1.0000 0.63990  0.81990  0.72750  Biso   1.000  C
  C117     1.0000 0.62300  0.76490  0.67870  Biso   1.000  C
  H85      1.0000 0.64930  0.77150  0.63920  Biso   1.000  H
  C118     1.0000 0.56640  0.70030  0.68980  Biso   1.000  C
  H86      1.0000 0.55780  0.66110  0.65690  Biso   1.000  H
  C119     1.0000 0.53890  0.74460  0.78610  Biso   1.000  C
  H87      1.0000 0.50910  0.73790  0.82420  Biso   1.000  H
  C120     1.0000 0.59370  0.81150  0.78200  Biso   1.000  C
  H88      1.0000 0.59970  0.85060  0.81530  Biso   1.000  H
  N25      1.0000 0.62550  0.38060  0.33840  Biso   1.000  N
  N26      1.0000 0.00830  0.95590  0.56630  Biso   1.000  N
  N27      1.0000 0.94730  0.98950  0.60540  Biso   1.000  N
  N28      1.0000 0.94020  0.85300  0.60820  Biso   1.000  N
  N29      1.0000 0.91880  0.76900  0.62670  Biso   1.000  N
  H89      1.0000 0.91700  0.73520  0.59240  Biso   1.000  H
  H90      1.0000 0.95900  0.74970  0.65340  Biso   1.000  H
  N30      1.0000 0.52360  0.68750  0.74090  Biso   1.000  N
  C121     1.0000 0.41270  0.64080  0.89200  Biso   1.000  C
  H91      1.0000 0.46290  0.61170  0.90320  Biso   1.000  H
  C122     1.0000 0.38320  0.70220  0.93130  Biso   1.000  C
  H92      1.0000 0.41370  0.71560  0.96810  Biso   1.000  H
  C123     1.0000 0.30770  0.74570  0.91730  Biso   1.000  C
  C124     1.0000 0.26510  0.71820  0.86500  Biso   1.000  C
  H93      1.0000 0.21130  0.74130  0.85520  Biso   1.000  H
  C125     1.0000 0.29970  0.65740  0.82710  Biso   1.000  C
  H94      1.0000 0.26930  0.64130  0.79090  Biso   1.000  H
  C126     1.0000 0.27800  0.81780  0.95520  Biso   1.000  C
  C127     1.0000 0.30810  0.83640  0.01410  Biso   1.000  C
  H95      1.0000 0.34970  0.80100  0.03240  Biso   1.000  H
  C128     1.0000 0.90570  0.27860  0.95350  Biso   1.000  C
  H96      1.0000 0.91600  0.29900  0.91260  Biso   1.000  H
  C129     1.0000 0.96040  0.22010  0.97900  Biso   1.000  C
  H97      1.0000 0.00900  0.20190  0.95680  Biso   1.000  H
  C130     1.0000 0.94270  0.18880  0.03720  Biso   1.000  C
  C131     1.0000 0.87240  0.21710  0.07030  Biso   1.000  C
  H98      1.0000 0.86120  0.19500  0.11060  Biso   1.000  H
  C132     1.0000 0.99660  0.12470  0.06870  Biso   1.000  C
  C133     1.0000 0.09220  0.07430  0.13080  Biso   1.000  C
  C134     1.0000 0.16370  0.06560  0.17460  Biso   1.000  C
  C135     1.0000 0.16510  0.99350  0.21130  Biso   1.000  C
  H99      1.0000 0.12000  0.95410  0.20910  Biso   1.000  H
  C136     1.0000 0.23170  0.97910  0.25100  Biso   1.000  C
  H100     1.0000 0.23620  0.92730  0.27310  Biso   1.000  H
  C137     1.0000 0.29370  0.04320  0.25830  Biso   1.000  C
  H101     1.0000 0.33530  0.03830  0.29000  Biso   1.000  H
  C138     1.0000 0.29340  0.11160  0.22000  Biso   1.000  C
  C139     1.0000 0.22650  0.12470  0.17990  Biso   1.000  C
  H102     1.0000 0.22400  0.17490  0.15570  Biso   1.000  H
  C140     1.0000 0.36010  0.18010  0.22750  Biso   1.000  C
  C141     1.0000 0.37700  0.23510  0.17870  Biso   1.000  C
  H103     1.0000 0.35070  0.22850  0.13920  Biso   1.000  H
  C142     1.0000 0.43360  0.29970  0.18980  Biso   1.000  C
  H104     1.0000 0.44220  0.33890  0.15690  Biso   1.000  H
  C143     1.0000 0.46110  0.25540  0.28610  Biso   1.000  C
  H105     1.0000 0.49090  0.26210  0.32420  Biso   1.000  H
  C144     1.0000 0.40630  0.18850  0.28200  Biso   1.000  C
  H106     1.0000 0.40030  0.14940  0.31530  Biso   1.000  H
  N31      1.0000 0.37450  0.61940  0.83840  Biso   1.000  N
  N32      1.0000 0.99170  0.04410  0.06630  Biso   1.000  N
  N33      1.0000 0.05270  0.01050  0.10540  Biso   1.000  N
  N34      1.0000 0.05980  0.14700  0.10820  Biso   1.000  N
  N35      1.0000 0.08120  0.23100  0.12670  Biso   1.000  N
  H107     1.0000 0.08300  0.26480  0.09240  Biso   1.000  H
  H108     1.0000 0.04100  0.25030  0.15340  Biso   1.000  H
  N36      1.0000 0.47640  0.31250  0.24090  Biso   1.000  N
  C145     1.0000 0.85920  0.91270  0.14200  Biso   1.000  C
  H109     1.0000 0.88830  0.96290  0.15320  Biso   1.000  H
  C146     1.0000 0.79780  0.88320  0.18130  Biso   1.000  C
  H110     1.0000 0.78440  0.91370  0.21810  Biso   1.000  H
  C147     1.0000 0.75430  0.80770  0.16730  Biso   1.000  C
  C148     1.0000 0.78180  0.76510  0.11500  Biso   1.000  C
  H111     1.0000 0.75870  0.71130  0.10520  Biso   1.000  H
  C149     1.0000 0.84260  0.79970  0.07710  Biso   1.000  C
  H112     1.0000 0.85870  0.76930  0.04090  Biso   1.000  H
  C150     1.0000 0.68220  0.77800  0.20520  Biso   1.000  C
  C151     1.0000 0.66360  0.80810  0.26410  Biso   1.000  C
  H113     1.0000 0.69900  0.84970  0.28240  Biso   1.000  H
  C152     1.0000 0.22140  0.40570  0.20350  Biso   1.000  C
  H114     1.0000 0.20100  0.41600  0.16260  Biso   1.000  H
  C153     1.0000 0.27990  0.46040  0.22900  Biso   1.000  C
  H115     1.0000 0.29810  0.50900  0.20680  Biso   1.000  H
  C154     1.0000 0.31120  0.44270  0.28720  Biso   1.000  C
  C155     1.0000 0.28290  0.37240  0.32030  Biso   1.000  C
  H116     1.0000 0.30500  0.36120  0.36060  Biso   1.000  H
  C156     1.0000 0.37530  0.49660  0.31870  Biso   1.000  C
  C157     1.0000 0.42570  0.59220  0.38080  Biso   1.000  C
  C158     1.0000 0.43440  0.66370  0.42460  Biso   1.000  C
  C159     1.0000 0.50650  0.66510  0.46130  Biso   1.000  C
  H117     1.0000 0.54590  0.62000  0.45910  Biso   1.000  H
  C160     1.0000 0.52090  0.73170  0.50100  Biso   1.000  C
  H118     1.0000 0.57270  0.73620  0.52310  Biso   1.000  H
  C161     1.0000 0.45680  0.79370  0.50830  Biso   1.000  C
  H119     1.0000 0.46170  0.83530  0.54000  Biso   1.000  H
  C162     1.0000 0.38840  0.79340  0.47000  Biso   1.000  C
  C163     1.0000 0.37530  0.72650  0.42990  Biso   1.000  C
  H120     1.0000 0.32510  0.72400  0.40570  Biso   1.000  H
  C164     1.0000 0.31990  0.86010  0.47750  Biso   1.000  C
  C165     1.0000 0.26490  0.87700  0.42870  Biso   1.000  C
  H121     1.0000 0.27150  0.85070  0.38920  Biso   1.000  H
  C166     1.0000 0.20030  0.93360  0.43980  Biso   1.000  C
  H122     1.0000 0.16110  0.94220  0.40690  Biso   1.000  H
  C167     1.0000 0.24460  0.96110  0.53610  Biso   1.000  C
  H123     1.0000 0.23790  0.99090  0.57420  Biso   1.000  H
  C168     1.0000 0.31150  0.90630  0.53200  Biso   1.000  C
  H124     1.0000 0.35060  0.90030  0.56530  Biso   1.000  H
  N37      1.0000 0.88060  0.87450  0.08840  Biso   1.000  N
  N38      1.0000 0.45590  0.49170  0.31630  Biso   1.000  N
  N39      1.0000 0.48950  0.55270  0.35540  Biso   1.000  N
  N40      1.0000 0.35300  0.55980  0.35820  Biso   1.000  N
  N41      1.0000 0.26900  0.58120  0.37670  Biso   1.000  N
  H125     1.0000 0.23520  0.58300  0.34240  Biso   1.000  H
  H126     1.0000 0.24970  0.54100  0.40340  Biso   1.000  H
  N42      1.0000 0.18750  0.97640  0.49090  Biso   1.000  N
  C169     1.0000 0.14080  0.08730  0.64200  Biso   1.000  C
  H127     1.0000 0.11170  0.03710  0.65320  Biso   1.000  H
  C170     1.0000 0.20220  0.11680  0.68130  Biso   1.000  C
  H128     1.0000 0.21560  0.08630  0.71810  Biso   1.000  H
  C171     1.0000 0.24570  0.19230  0.66730  Biso   1.000  C
  C172     1.0000 0.21820  0.23490  0.61500  Biso   1.000  C
  H129     1.0000 0.24130  0.28870  0.60520  Biso   1.000  H
  C173     1.0000 0.15740  0.20030  0.57710  Biso   1.000  C
  H130     1.0000 0.14130  0.23070  0.54090  Biso   1.000  H
  C174     1.0000 0.31780  0.22200  0.70520  Biso   1.000  C
  C175     1.0000 0.33640  0.19190  0.76410  Biso   1.000  C
  H131     1.0000 0.30100  0.15030  0.78240  Biso   1.000  H
  C176     1.0000 0.77860  0.59430  0.70350  Biso   1.000  C
  H132     1.0000 0.79900  0.58400  0.66260  Biso   1.000  H
  C177     1.0000 0.72010  0.53960  0.72900  Biso   1.000  C
  H133     1.0000 0.70190  0.49100  0.70680  Biso   1.000  H
  C178     1.0000 0.68880  0.55730  0.78720  Biso   1.000  C
  C179     1.0000 0.71710  0.62760  0.82030  Biso   1.000  C
  H134     1.0000 0.69500  0.63880  0.86060  Biso   1.000  H
  C180     1.0000 0.62470  0.50340  0.81870  Biso   1.000  C
  C181     1.0000 0.57430  0.40780  0.88080  Biso   1.000  C
  C182     1.0000 0.56560  0.33630  0.92460  Biso   1.000  C
  C183     1.0000 0.49350  0.33490  0.96130  Biso   1.000  C
  H135     1.0000 0.45410  0.38000  0.95910  Biso   1.000  H
  C184     1.0000 0.47910  0.26830  0.00100  Biso   1.000  C
  H136     1.0000 0.42730  0.26380  0.02310  Biso   1.000  H
  C185     1.0000 0.54320  0.20630  0.00830  Biso   1.000  C
  H137     1.0000 0.53830  0.16470  0.04000  Biso   1.000  H
  C186     1.0000 0.61160  0.20660  0.97000  Biso   1.000  C
  C187     1.0000 0.62470  0.27350  0.92990  Biso   1.000  C
  H138     1.0000 0.67490  0.27600  0.90570  Biso   1.000  H
  C188     1.0000 0.68010  0.13990  0.97750  Biso   1.000  C
  C189     1.0000 0.73510  0.12300  0.92870  Biso   1.000  C
  H139     1.0000 0.72850  0.14930  0.88920  Biso   1.000  H
  C190     1.0000 0.79970  0.06640  0.93980  Biso   1.000  C
  H140     1.0000 0.83890  0.05780  0.90690  Biso   1.000  H
  C191     1.0000 0.75540  0.03890  0.03610  Biso   1.000  C
  H141     1.0000 0.76210  0.00910  0.07420  Biso   1.000  H
  C192     1.0000 0.68850  0.09370  0.03200  Biso   1.000  C
  H142     1.0000 0.64940  0.09970  0.06530  Biso   1.000  H
  N43      1.0000 0.11940  0.12550  0.58840  Biso   1.000  N
  N44      1.0000 0.54410  0.50830  0.81630  Biso   1.000  N
  N45      1.0000 0.51050  0.44730  0.85540  Biso   1.000  N
  N46      1.0000 0.64700  0.44020  0.85820  Biso   1.000  N
  N47      1.0000 0.73100  0.41880  0.87670  Biso   1.000  N
  H143     1.0000 0.76480  0.41700  0.84240  Biso   1.000  H
  H144     1.0000 0.75030  0.45900  0.90340  Biso   1.000  H
  N48      1.0000 0.81250  0.02360  0.99090  Biso   1.000  N
  Cd1      1.0000 0.43979  0.56021  0.75000  Biso   1.000  Cd
  Cd2      1.0000 0.56021  0.43979  0.25000  Biso   1.000  Cd
  Cd3      1.0000 0.93979  0.93979  0.00000  Biso   1.000  Cd
  Cd4      1.0000 0.06021  0.06021  0.50000  Biso   1.000  Cd
