data_image0
_cell_length_a       15.9506
_cell_length_b       15.9506
_cell_length_c       21.125
_cell_angle_alpha    90
_cell_angle_beta     90
_cell_angle_gamma    90

_symmetry_space_group_name_H-M    "P 1"
_symmetry_int_tables_number       1

loop_
  _symmetry_equiv_pos_as_xyz
  'x, y, z'

loop_
  _atom_site_label
  _atom_site_occupancy
  _atom_site_fract_x
  _atom_site_fract_y
  _atom_site_fract_z
  _atom_site_thermal_displace_type
  _atom_site_B_iso_or_equiv
  _atom_site_type_symbol
  C1       1.0000 0.03750  0.24290  0.78570  Biso   1.000  C
  H1       1.0000 0.00530  0.23760  0.82330  Biso   1.000  H
  C2       1.0000 0.09130  0.30980  0.78140  Biso   1.000  C
  H2       1.0000 0.09510  0.34950  0.81480  Biso   1.000  H
  C3       1.0000 0.14010  0.31820  0.72750  Biso   1.000  C
  C4       1.0000 0.12760  0.25990  0.68080  Biso   1.000  C
  H3       1.0000 0.15760  0.26320  0.64200  Biso   1.000  H
  C5       1.0000 0.06910  0.19470  0.69140  Biso   1.000  C
  H4       1.0000 0.06040  0.15470  0.65880  Biso   1.000  H
  C6       1.0000 0.20740  0.38270  0.72220  Biso   1.000  C
  C7       1.0000 0.20810  0.45460  0.76110  Biso   1.000  C
  H5       1.0000 0.16610  0.46040  0.79270  Biso   1.000  H
  C8       1.0000 0.26770  0.51650  0.75470  Biso   1.000  C
  H6       1.0000 0.26330  0.56700  0.77820  Biso   1.000  H
  C9       1.0000 0.33450  0.50410  0.71330  Biso   1.000  C
  H7       1.0000 0.37760  0.54510  0.71010  Biso   1.000  H
  C10      1.0000 0.33830  0.43230  0.67680  Biso   1.000  C
  C11      1.0000 0.27500  0.37230  0.68160  Biso   1.000  C
  H8       1.0000 0.27830  0.32310  0.65640  Biso   1.000  H
  C12      1.0000 0.40680  0.42350  0.63390  Biso   1.000  C
  C13      1.0000 0.50440  0.37530  0.57030  Biso   1.000  C
  C14      1.0000 0.56030  0.31060  0.53950  Biso   1.000  C
  C15      1.0000 0.54200  0.27970  0.48040  Biso   1.000  C
  H9       1.0000 0.49440  0.29980  0.45810  Biso   1.000  H
  C16      1.0000 0.59370  0.21850  0.45300  Biso   1.000  C
  H10      1.0000 0.58120  0.19670  0.41230  Biso   1.000  H
  C17      1.0000 0.66230  0.19070  0.48570  Biso   1.000  C
  H11      1.0000 0.69850  0.15030  0.46710  Biso   1.000  H
  C18      1.0000 0.67960  0.22190  0.54750  Biso   1.000  C
  C19      1.0000 0.63010  0.28610  0.57140  Biso   1.000  C
  H12      1.0000 0.64510  0.31290  0.60990  Biso   1.000  H
  C20      1.0000 0.75180  0.19040  0.58330  Biso   1.000  C
  C21      1.0000 0.79470  0.11780  0.56930  Biso   1.000  C
  H13      1.0000 0.78120  0.08710  0.53210  Biso   1.000  H
  C22      1.0000 0.85670  0.08970  0.60870  Biso   1.000  C
  H14      1.0000 0.88520  0.03970  0.59710  Biso   1.000  H
  C23      1.0000 0.84690  0.19940  0.67200  Biso   1.000  C
  H15      1.0000 0.86760  0.23000  0.70730  Biso   1.000  H
  C24      1.0000 0.78250  0.23660  0.63500  Biso   1.000  C
  H16      1.0000 0.76100  0.29060  0.64480  Biso   1.000  H
  N1       1.0000 0.02750  0.18700  0.74260  Biso   1.000  N
  N2       1.0000 0.44630  0.48740  0.60710  Biso   1.000  N
  N3       1.0000 0.50730  0.45650  0.56710  Biso   1.000  N
  N4       1.0000 0.44600  0.35290  0.61150  Biso   1.000  N
  N5       1.0000 0.42400  0.27170  0.63100  Biso   1.000  N
  H17      1.0000 0.44610  0.23420  0.60320  Biso   1.000  H
  H18      1.0000 0.44510  0.26180  0.67030  Biso   1.000  H
  N6       1.0000 0.87940  0.12630  0.66080  Biso   1.000  N
  C25      1.0000 0.96250  0.75710  0.28570  Biso   1.000  C
  H19      1.0000 0.99470  0.76240  0.32330  Biso   1.000  H
  C26      1.0000 0.90870  0.69020  0.28140  Biso   1.000  C
  H20      1.0000 0.90490  0.65050  0.31480  Biso   1.000  H
  C27      1.0000 0.85990  0.68180  0.22750  Biso   1.000  C
  C28      1.0000 0.87240  0.74010  0.18080  Biso   1.000  C
  H21      1.0000 0.84240  0.73680  0.14200  Biso   1.000  H
  C29      1.0000 0.93090  0.80530  0.19140  Biso   1.000  C
  H22      1.0000 0.93960  0.84530  0.15880  Biso   1.000  H
  C30      1.0000 0.79260  0.61730  0.22220  Biso   1.000  C
  C31      1.0000 0.79190  0.54540  0.26110  Biso   1.000  C
  H23      1.0000 0.83390  0.53960  0.29270  Biso   1.000  H
  C32      1.0000 0.73230  0.48350  0.25470  Biso   1.000  C
  H24      1.0000 0.73670  0.43300  0.27820  Biso   1.000  H
  C33      1.0000 0.66550  0.49590  0.21330  Biso   1.000  C
  H25      1.0000 0.62240  0.45490  0.21010  Biso   1.000  H
  C34      1.0000 0.66170  0.56770  0.17680  Biso   1.000  C
  C35      1.0000 0.72500  0.62770  0.18160  Biso   1.000  C
  H26      1.0000 0.72170  0.67690  0.15640  Biso   1.000  H
  C36      1.0000 0.59320  0.57650  0.13390  Biso   1.000  C
  C37      1.0000 0.49560  0.62470  0.07030  Biso   1.000  C
  C38      1.0000 0.43970  0.68940  0.03950  Biso   1.000  C
  C39      1.0000 0.45800  0.72030  0.98040  Biso   1.000  C
  H27      1.0000 0.50560  0.70020  0.95810  Biso   1.000  H
  C40      1.0000 0.40630  0.78150  0.95300  Biso   1.000  C
  H28      1.0000 0.41880  0.80330  0.91230  Biso   1.000  H
  C41      1.0000 0.33770  0.80930  0.98570  Biso   1.000  C
  H29      1.0000 0.30150  0.84970  0.96710  Biso   1.000  H
  C42      1.0000 0.32040  0.77810  0.04750  Biso   1.000  C
  C43      1.0000 0.36990  0.71390  0.07140  Biso   1.000  C
  H30      1.0000 0.35490  0.68710  0.10990  Biso   1.000  H
  C44      1.0000 0.24820  0.80960  0.08330  Biso   1.000  C
  C45      1.0000 0.20530  0.88220  0.06930  Biso   1.000  C
  H31      1.0000 0.21880  0.91290  0.03210  Biso   1.000  H
  C46      1.0000 0.14330  0.91030  0.10870  Biso   1.000  C
  H32      1.0000 0.11480  0.96030  0.09710  Biso   1.000  H
  C47      1.0000 0.15310  0.80060  0.17200  Biso   1.000  C
  H33      1.0000 0.13240  0.77000  0.20730  Biso   1.000  H
  C48      1.0000 0.21750  0.76340  0.13500  Biso   1.000  C
  H34      1.0000 0.23900  0.70940  0.14480  Biso   1.000  H
  N7       1.0000 0.97250  0.81300  0.24260  Biso   1.000  N
  N8       1.0000 0.55370  0.51260  0.10710  Biso   1.000  N
  N9       1.0000 0.49270  0.54350  0.06710  Biso   1.000  N
  N10      1.0000 0.55400  0.64710  0.11150  Biso   1.000  N
  N11      1.0000 0.57600  0.72830  0.13100  Biso   1.000  N
  H35      1.0000 0.55390  0.76580  0.10320  Biso   1.000  H
  H36      1.0000 0.55490  0.73820  0.17030  Biso   1.000  H
  N12      1.0000 0.12060  0.87370  0.16080  Biso   1.000  N
  C49      1.0000 0.25710  0.53750  0.03570  Biso   1.000  C
  H37      1.0000 0.26240  0.50530  0.07330  Biso   1.000  H
  C50      1.0000 0.19020  0.59130  0.03140  Biso   1.000  C
  H38      1.0000 0.15050  0.59510  0.06480  Biso   1.000  H
  C51      1.0000 0.18180  0.64010  0.97750  Biso   1.000  C
  C52      1.0000 0.24010  0.62760  0.93080  Biso   1.000  C
  H39      1.0000 0.23680  0.65760  0.89200  Biso   1.000  H
  C53      1.0000 0.30530  0.56910  0.94140  Biso   1.000  C
  H40      1.0000 0.34530  0.56040  0.90880  Biso   1.000  H
  C54      1.0000 0.11730  0.70740  0.97220  Biso   1.000  C
  C55      1.0000 0.04540  0.70810  0.01110  Biso   1.000  C
  H41      1.0000 0.03960  0.66610  0.04270  Biso   1.000  H
  C56      1.0000 0.98350  0.76770  0.00470  Biso   1.000  C
  H42      1.0000 0.93300  0.76330  0.02820  Biso   1.000  H
  C57      1.0000 0.99590  0.83450  0.96330  Biso   1.000  C
  H43      1.0000 0.95490  0.87760  0.96010  Biso   1.000  H
  C58      1.0000 0.06770  0.83830  0.92680  Biso   1.000  C
  C59      1.0000 0.12770  0.77500  0.93160  Biso   1.000  C
  H44      1.0000 0.17690  0.77830  0.90640  Biso   1.000  H
  C60      1.0000 0.07650  0.90680  0.88390  Biso   1.000  C
  C61      1.0000 0.12470  0.00440  0.82030  Biso   1.000  C
  C62      1.0000 0.18940  0.06030  0.78950  Biso   1.000  C
  C63      1.0000 0.22030  0.04200  0.73040  Biso   1.000  C
  H45      1.0000 0.20020  0.99440  0.70810  Biso   1.000  H
  C64      1.0000 0.28150  0.09370  0.70300  Biso   1.000  C
  H46      1.0000 0.30330  0.08120  0.66230  Biso   1.000  H
  C65      1.0000 0.30930  0.16230  0.73570  Biso   1.000  C
  H47      1.0000 0.34970  0.19850  0.71710  Biso   1.000  H
  C66      1.0000 0.27810  0.17960  0.79750  Biso   1.000  C
  C67      1.0000 0.21390  0.13010  0.82140  Biso   1.000  C
  H48      1.0000 0.18710  0.14510  0.85990  Biso   1.000  H
  C68      1.0000 0.30960  0.25180  0.83330  Biso   1.000  C
  C69      1.0000 0.38220  0.29470  0.81930  Biso   1.000  C
  H49      1.0000 0.41290  0.28120  0.78210  Biso   1.000  H
  C70      1.0000 0.41030  0.35670  0.85870  Biso   1.000  C
  H50      1.0000 0.46030  0.38520  0.84710  Biso   1.000  H
  C71      1.0000 0.30060  0.34690  0.92200  Biso   1.000  C
  H51      1.0000 0.27000  0.36760  0.95730  Biso   1.000  H
  C72      1.0000 0.26340  0.28250  0.88500  Biso   1.000  C
  H52      1.0000 0.20940  0.26100  0.89480  Biso   1.000  H
  N13      1.0000 0.31300  0.52750  0.99260  Biso   1.000  N
  N14      1.0000 0.01260  0.94630  0.85710  Biso   1.000  N
  N15      1.0000 0.04350  0.00730  0.81710  Biso   1.000  N
  N16      1.0000 0.14710  0.94600  0.86150  Biso   1.000  N
  N17      1.0000 0.22830  0.92400  0.88100  Biso   1.000  N
  H53      1.0000 0.26580  0.94610  0.85320  Biso   1.000  H
  H54      1.0000 0.23820  0.94510  0.92030  Biso   1.000  H
  N18      1.0000 0.37370  0.37940  0.91080  Biso   1.000  N
  C73      1.0000 0.74290  0.46250  0.53570  Biso   1.000  C
  H55      1.0000 0.73760  0.49470  0.57330  Biso   1.000  H
  C74      1.0000 0.80980  0.40870  0.53140  Biso   1.000  C
  H56      1.0000 0.84950  0.40490  0.56480  Biso   1.000  H
  C75      1.0000 0.81820  0.35990  0.47750  Biso   1.000  C
  C76      1.0000 0.75990  0.37240  0.43080  Biso   1.000  C
  H57      1.0000 0.76320  0.34240  0.39200  Biso   1.000  H
  C77      1.0000 0.69470  0.43090  0.44140  Biso   1.000  C
  H58      1.0000 0.65470  0.43960  0.40880  Biso   1.000  H
  C78      1.0000 0.88270  0.29260  0.47220  Biso   1.000  C
  C79      1.0000 0.95460  0.29190  0.51110  Biso   1.000  C
  H59      1.0000 0.96040  0.33390  0.54270  Biso   1.000  H
  C80      1.0000 0.01650  0.23230  0.50470  Biso   1.000  C
  H60      1.0000 0.06700  0.23670  0.52820  Biso   1.000  H
  C81      1.0000 0.00410  0.16550  0.46330  Biso   1.000  C
  H61      1.0000 0.04510  0.12240  0.46010  Biso   1.000  H
  C82      1.0000 0.93230  0.16170  0.42680  Biso   1.000  C
  C83      1.0000 0.87230  0.22500  0.43160  Biso   1.000  C
  H62      1.0000 0.82310  0.22170  0.40640  Biso   1.000  H
  C84      1.0000 0.92350  0.09320  0.38390  Biso   1.000  C
  C85      1.0000 0.87530  0.99560  0.32030  Biso   1.000  C
  C86      1.0000 0.81060  0.93970  0.28950  Biso   1.000  C
  C87      1.0000 0.77970  0.95800  0.23040  Biso   1.000  C
  H63      1.0000 0.79980  0.00560  0.20810  Biso   1.000  H
  C88      1.0000 0.71850  0.90630  0.20300  Biso   1.000  C
  H64      1.0000 0.69670  0.91880  0.16230  Biso   1.000  H
  C89      1.0000 0.69070  0.83770  0.23570  Biso   1.000  C
  H65      1.0000 0.65030  0.80150  0.21710  Biso   1.000  H
  C90      1.0000 0.72190  0.82040  0.29750  Biso   1.000  C
  C91      1.0000 0.78610  0.86990  0.32140  Biso   1.000  C
  H66      1.0000 0.81290  0.85490  0.35990  Biso   1.000  H
  C92      1.0000 0.69040  0.74820  0.33330  Biso   1.000  C
  C93      1.0000 0.61780  0.70530  0.31930  Biso   1.000  C
  H67      1.0000 0.58710  0.71880  0.28210  Biso   1.000  H
  C94      1.0000 0.58970  0.64330  0.35870  Biso   1.000  C
  H68      1.0000 0.53970  0.61480  0.34710  Biso   1.000  H
  C95      1.0000 0.69940  0.65310  0.42200  Biso   1.000  C
  H69      1.0000 0.73000  0.63240  0.45730  Biso   1.000  H
  C96      1.0000 0.73660  0.71750  0.38500  Biso   1.000  C
  H70      1.0000 0.79060  0.73900  0.39480  Biso   1.000  H
  N19      1.0000 0.68700  0.47250  0.49260  Biso   1.000  N
  N20      1.0000 0.98740  0.05370  0.35710  Biso   1.000  N
  N21      1.0000 0.95650  0.99270  0.31710  Biso   1.000  N
  N22      1.0000 0.85290  0.05400  0.36150  Biso   1.000  N
  N23      1.0000 0.77170  0.07600  0.38100  Biso   1.000  N
  H71      1.0000 0.73420  0.05390  0.35320  Biso   1.000  H
  H72      1.0000 0.76180  0.05490  0.42030  Biso   1.000  H
  N24      1.0000 0.62630  0.62060  0.41080  Biso   1.000  N
  C97      1.0000 0.46250  0.74290  0.46430  Biso   1.000  C
  H73      1.0000 0.49470  0.73760  0.42670  Biso   1.000  H
  C98      1.0000 0.40870  0.80980  0.46860  Biso   1.000  C
  H74      1.0000 0.40490  0.84950  0.43520  Biso   1.000  H
  C99      1.0000 0.35990  0.81820  0.52250  Biso   1.000  C
  C100     1.0000 0.37240  0.75990  0.56920  Biso   1.000  C
  H75      1.0000 0.34240  0.76320  0.60800  Biso   1.000  H
  C101     1.0000 0.43090  0.69470  0.55860  Biso   1.000  C
  H76      1.0000 0.43960  0.65470  0.59120  Biso   1.000  H
  C102     1.0000 0.29260  0.88270  0.52780  Biso   1.000  C
  C103     1.0000 0.29190  0.95460  0.48890  Biso   1.000  C
  H77      1.0000 0.33390  0.96040  0.45730  Biso   1.000  H
  C104     1.0000 0.23230  0.01650  0.49530  Biso   1.000  C
  H78      1.0000 0.23670  0.06700  0.47180  Biso   1.000  H
  C105     1.0000 0.16550  0.00410  0.53670  Biso   1.000  C
  H79      1.0000 0.12240  0.04510  0.53990  Biso   1.000  H
  C106     1.0000 0.16170  0.93230  0.57320  Biso   1.000  C
  C107     1.0000 0.22500  0.87230  0.56840  Biso   1.000  C
  H80      1.0000 0.22170  0.82310  0.59360  Biso   1.000  H
  C108     1.0000 0.09320  0.92350  0.61610  Biso   1.000  C
  C109     1.0000 0.99560  0.87530  0.67970  Biso   1.000  C
  C110     1.0000 0.93970  0.81060  0.71050  Biso   1.000  C
  C111     1.0000 0.95800  0.77970  0.76960  Biso   1.000  C
  H81      1.0000 0.00560  0.79980  0.79190  Biso   1.000  H
  C112     1.0000 0.90630  0.71850  0.79700  Biso   1.000  C
  H82      1.0000 0.91880  0.69670  0.83770  Biso   1.000  H
  C113     1.0000 0.83770  0.69070  0.76430  Biso   1.000  C
  H83      1.0000 0.80150  0.65030  0.78290  Biso   1.000  H
  C114     1.0000 0.82040  0.72190  0.70250  Biso   1.000  C
  C115     1.0000 0.86990  0.78610  0.67860  Biso   1.000  C
  H84      1.0000 0.85490  0.81290  0.64010  Biso   1.000  H
  C116     1.0000 0.74820  0.69040  0.66670  Biso   1.000  C
  C117     1.0000 0.70530  0.61780  0.68070  Biso   1.000  C
  H85      1.0000 0.71880  0.58710  0.71790  Biso   1.000  H
  C118     1.0000 0.64330  0.58970  0.64130  Biso   1.000  C
  H86      1.0000 0.61480  0.53970  0.65290  Biso   1.000  H
  C119     1.0000 0.65310  0.69940  0.57800  Biso   1.000  C
  H87      1.0000 0.63240  0.73000  0.54270  Biso   1.000  H
  C120     1.0000 0.71750  0.73660  0.61500  Biso   1.000  C
  H88      1.0000 0.73900  0.79060  0.60520  Biso   1.000  H
  N25      1.0000 0.47250  0.68700  0.50740  Biso   1.000  N
  N26      1.0000 0.05370  0.98740  0.64290  Biso   1.000  N
  N27      1.0000 0.99270  0.95650  0.68290  Biso   1.000  N
  N28      1.0000 0.05400  0.85290  0.63850  Biso   1.000  N
  N29      1.0000 0.07600  0.77170  0.61900  Biso   1.000  N
  H89      1.0000 0.05390  0.73420  0.64680  Biso   1.000  H
  H90      1.0000 0.05490  0.76180  0.57970  Biso   1.000  H
  N30      1.0000 0.62060  0.62630  0.58920  Biso   1.000  N
  C121     1.0000 0.53750  0.25710  0.96430  Biso   1.000  C
  H91      1.0000 0.50530  0.26240  0.92670  Biso   1.000  H
  C122     1.0000 0.59130  0.19020  0.96860  Biso   1.000  C
  H92      1.0000 0.59510  0.15050  0.93520  Biso   1.000  H
  C123     1.0000 0.64010  0.18180  0.02250  Biso   1.000  C
  C124     1.0000 0.62760  0.24010  0.06920  Biso   1.000  C
  H93      1.0000 0.65760  0.23680  0.10800  Biso   1.000  H
  C125     1.0000 0.56910  0.30530  0.05860  Biso   1.000  C
  H94      1.0000 0.56040  0.34530  0.09120  Biso   1.000  H
  C126     1.0000 0.70740  0.11730  0.02780  Biso   1.000  C
  C127     1.0000 0.70810  0.04540  0.98890  Biso   1.000  C
  H95      1.0000 0.66610  0.03960  0.95730  Biso   1.000  H
  C128     1.0000 0.76770  0.98350  0.99530  Biso   1.000  C
  H96      1.0000 0.76330  0.93300  0.97180  Biso   1.000  H
  C129     1.0000 0.83450  0.99590  0.03670  Biso   1.000  C
  H97      1.0000 0.87760  0.95490  0.03990  Biso   1.000  H
  C130     1.0000 0.83830  0.06770  0.07320  Biso   1.000  C
  C131     1.0000 0.77500  0.12770  0.06840  Biso   1.000  C
  H98      1.0000 0.77830  0.17690  0.09360  Biso   1.000  H
  C132     1.0000 0.90680  0.07650  0.11610  Biso   1.000  C
  C133     1.0000 0.00440  0.12470  0.17970  Biso   1.000  C
  C134     1.0000 0.06030  0.18940  0.21050  Biso   1.000  C
  C135     1.0000 0.04200  0.22030  0.26960  Biso   1.000  C
  H99      1.0000 0.99440  0.20020  0.29190  Biso   1.000  H
  C136     1.0000 0.09370  0.28150  0.29700  Biso   1.000  C
  H100     1.0000 0.08120  0.30330  0.33770  Biso   1.000  H
  C137     1.0000 0.16230  0.30930  0.26430  Biso   1.000  C
  H101     1.0000 0.19850  0.34970  0.28290  Biso   1.000  H
  C138     1.0000 0.17960  0.27810  0.20250  Biso   1.000  C
  C139     1.0000 0.13010  0.21390  0.17860  Biso   1.000  C
  H102     1.0000 0.14510  0.18710  0.14010  Biso   1.000  H
  C140     1.0000 0.25180  0.30960  0.16670  Biso   1.000  C
  C141     1.0000 0.29470  0.38220  0.18070  Biso   1.000  C
  H103     1.0000 0.28120  0.41290  0.21790  Biso   1.000  H
  C142     1.0000 0.35670  0.41030  0.14130  Biso   1.000  C
  H104     1.0000 0.38520  0.46030  0.15290  Biso   1.000  H
  C143     1.0000 0.34690  0.30060  0.07800  Biso   1.000  C
  H105     1.0000 0.36760  0.27000  0.04270  Biso   1.000  H
  C144     1.0000 0.28250  0.26340  0.11500  Biso   1.000  C
  H106     1.0000 0.26100  0.20940  0.10520  Biso   1.000  H
  N31      1.0000 0.52750  0.31300  0.00740  Biso   1.000  N
  N32      1.0000 0.94630  0.01260  0.14290  Biso   1.000  N
  N33      1.0000 0.00730  0.04350  0.18290  Biso   1.000  N
  N34      1.0000 0.94600  0.14710  0.13850  Biso   1.000  N
  N35      1.0000 0.92400  0.22830  0.11900  Biso   1.000  N
  H107     1.0000 0.94610  0.26580  0.14680  Biso   1.000  H
  H108     1.0000 0.94510  0.23820  0.07970  Biso   1.000  H
  N36      1.0000 0.37940  0.37370  0.08920  Biso   1.000  N
  C145     1.0000 0.24290  0.03750  0.21430  Biso   1.000  C
  H109     1.0000 0.23760  0.00530  0.17670  Biso   1.000  H
  C146     1.0000 0.30980  0.09130  0.21860  Biso   1.000  C
  H110     1.0000 0.34950  0.09510  0.18520  Biso   1.000  H
  C147     1.0000 0.31820  0.14010  0.27250  Biso   1.000  C
  C148     1.0000 0.25990  0.12760  0.31920  Biso   1.000  C
  H111     1.0000 0.26320  0.15760  0.35800  Biso   1.000  H
  C149     1.0000 0.19470  0.06910  0.30860  Biso   1.000  C
  H112     1.0000 0.15470  0.06040  0.34120  Biso   1.000  H
  C150     1.0000 0.38270  0.20740  0.27780  Biso   1.000  C
  C151     1.0000 0.45460  0.20810  0.23890  Biso   1.000  C
  H113     1.0000 0.46040  0.16610  0.20730  Biso   1.000  H
  C152     1.0000 0.51650  0.26770  0.24530  Biso   1.000  C
  H114     1.0000 0.56700  0.26330  0.22180  Biso   1.000  H
  C153     1.0000 0.50410  0.33450  0.28670  Biso   1.000  C
  H115     1.0000 0.54510  0.37760  0.28990  Biso   1.000  H
  C154     1.0000 0.43230  0.33830  0.32320  Biso   1.000  C
  C155     1.0000 0.37230  0.27500  0.31840  Biso   1.000  C
  H116     1.0000 0.32310  0.27830  0.34360  Biso   1.000  H
  C156     1.0000 0.42350  0.40680  0.36610  Biso   1.000  C
  C157     1.0000 0.37530  0.50440  0.42970  Biso   1.000  C
  C158     1.0000 0.31060  0.56030  0.46050  Biso   1.000  C
  C159     1.0000 0.27970  0.54200  0.51960  Biso   1.000  C
  H117     1.0000 0.29980  0.49440  0.54190  Biso   1.000  H
  C160     1.0000 0.21850  0.59370  0.54700  Biso   1.000  C
  H118     1.0000 0.19670  0.58120  0.58770  Biso   1.000  H
  C161     1.0000 0.19070  0.66230  0.51430  Biso   1.000  C
  H119     1.0000 0.15030  0.69850  0.53290  Biso   1.000  H
  C162     1.0000 0.22190  0.67960  0.45250  Biso   1.000  C
  C163     1.0000 0.28610  0.63010  0.42860  Biso   1.000  C
  H120     1.0000 0.31290  0.64510  0.39010  Biso   1.000  H
  C164     1.0000 0.19040  0.75180  0.41670  Biso   1.000  C
  C165     1.0000 0.11780  0.79470  0.43070  Biso   1.000  C
  H121     1.0000 0.08710  0.78120  0.46790  Biso   1.000  H
  C166     1.0000 0.08970  0.85670  0.39130  Biso   1.000  C
  H122     1.0000 0.03970  0.88520  0.40290  Biso   1.000  H
  C167     1.0000 0.19940  0.84690  0.32800  Biso   1.000  C
  H123     1.0000 0.23000  0.86760  0.29270  Biso   1.000  H
  C168     1.0000 0.23660  0.78250  0.36500  Biso   1.000  C
  H124     1.0000 0.29060  0.76100  0.35520  Biso   1.000  H
  N37      1.0000 0.18700  0.02750  0.25740  Biso   1.000  N
  N38      1.0000 0.48740  0.44630  0.39290  Biso   1.000  N
  N39      1.0000 0.45650  0.50730  0.43290  Biso   1.000  N
  N40      1.0000 0.35290  0.44600  0.38850  Biso   1.000  N
  N41      1.0000 0.27170  0.42400  0.36900  Biso   1.000  N
  H125     1.0000 0.23420  0.44610  0.39680  Biso   1.000  H
  H126     1.0000 0.26180  0.44510  0.32970  Biso   1.000  H
  N42      1.0000 0.12630  0.87940  0.33920  Biso   1.000  N
  C169     1.0000 0.75710  0.96250  0.71430  Biso   1.000  C
  H127     1.0000 0.76240  0.99470  0.67670  Biso   1.000  H
  C170     1.0000 0.69020  0.90870  0.71860  Biso   1.000  C
  H128     1.0000 0.65050  0.90490  0.68520  Biso   1.000  H
  C171     1.0000 0.68180  0.85990  0.77250  Biso   1.000  C
  C172     1.0000 0.74010  0.87240  0.81920  Biso   1.000  C
  H129     1.0000 0.73680  0.84240  0.85800  Biso   1.000  H
  C173     1.0000 0.80530  0.93090  0.80860  Biso   1.000  C
  H130     1.0000 0.84530  0.93960  0.84120  Biso   1.000  H
  C174     1.0000 0.61730  0.79260  0.77780  Biso   1.000  C
  C175     1.0000 0.54540  0.79190  0.73890  Biso   1.000  C
  H131     1.0000 0.53960  0.83390  0.70730  Biso   1.000  H
  C176     1.0000 0.48350  0.73230  0.74530  Biso   1.000  C
  H132     1.0000 0.43300  0.73670  0.72180  Biso   1.000  H
  C177     1.0000 0.49590  0.66550  0.78670  Biso   1.000  C
  H133     1.0000 0.45490  0.62240  0.78990  Biso   1.000  H
  C178     1.0000 0.56770  0.66170  0.82320  Biso   1.000  C
  C179     1.0000 0.62770  0.72500  0.81840  Biso   1.000  C
  H134     1.0000 0.67690  0.72170  0.84360  Biso   1.000  H
  C180     1.0000 0.57650  0.59320  0.86610  Biso   1.000  C
  C181     1.0000 0.62470  0.49560  0.92970  Biso   1.000  C
  C182     1.0000 0.68940  0.43970  0.96050  Biso   1.000  C
  C183     1.0000 0.72030  0.45800  0.01960  Biso   1.000  C
  H135     1.0000 0.70020  0.50560  0.04190  Biso   1.000  H
  C184     1.0000 0.78150  0.40630  0.04700  Biso   1.000  C
  H136     1.0000 0.80330  0.41880  0.08770  Biso   1.000  H
  C185     1.0000 0.80930  0.33770  0.01430  Biso   1.000  C
  H137     1.0000 0.84970  0.30150  0.03290  Biso   1.000  H
  C186     1.0000 0.77810  0.32040  0.95250  Biso   1.000  C
  C187     1.0000 0.71390  0.36990  0.92860  Biso   1.000  C
  H138     1.0000 0.68710  0.35490  0.89010  Biso   1.000  H
  C188     1.0000 0.80960  0.24820  0.91670  Biso   1.000  C
  C189     1.0000 0.88220  0.20530  0.93070  Biso   1.000  C
  H139     1.0000 0.91290  0.21880  0.96790  Biso   1.000  H
  C190     1.0000 0.91030  0.14330  0.89130  Biso   1.000  C
  H140     1.0000 0.96030  0.11480  0.90290  Biso   1.000  H
  C191     1.0000 0.80060  0.15310  0.82800  Biso   1.000  C
  H141     1.0000 0.77000  0.13240  0.79270  Biso   1.000  H
  C192     1.0000 0.76340  0.21750  0.86500  Biso   1.000  C
  H142     1.0000 0.70940  0.23900  0.85520  Biso   1.000  H
  N43      1.0000 0.81300  0.97250  0.75740  Biso   1.000  N
  N44      1.0000 0.51260  0.55370  0.89290  Biso   1.000  N
  N45      1.0000 0.54350  0.49270  0.93290  Biso   1.000  N
  N46      1.0000 0.64710  0.55400  0.88850  Biso   1.000  N
  N47      1.0000 0.72830  0.57600  0.86900  Biso   1.000  N
  H143     1.0000 0.76580  0.55390  0.89680  Biso   1.000  H
  H144     1.0000 0.73820  0.55490  0.82970  Biso   1.000  H
  N48      1.0000 0.87370  0.12060  0.83920  Biso   1.000  N
  Cd1      1.0000 0.94053  0.05947  0.75000  Biso   1.000  Cd
  Cd2      1.0000 0.05947  0.94053  0.25000  Biso   1.000  Cd
  Cd3      1.0000 0.44053  0.44053  0.00000  Biso   1.000  Cd
  Cd4      1.0000 0.55947  0.55947  0.50000  Biso   1.000  Cd
