data_image0
_cell_length_a       11.3356
_cell_length_b       12.1513
_cell_length_c       12.8611
_cell_angle_alpha    87.543
_cell_angle_beta     68.761
_cell_angle_gamma    71.799

_symmetry_space_group_name_H-M    P 1
_symmetry_int_tables_number       1

loop_
  _symmetry_equiv_pos_as_xyz
  'x, y, z'

loop_
  _atom_site_label
  _atom_site_occupancy
  _atom_site_fract_x
  _atom_site_fract_y
  _atom_site_fract_z
  _atom_site_thermal_displace_type
  _atom_site_B_iso_or_equiv
  _atom_site_type_symbol
  Cd1      1.0000 0.65252  0.21755  0.70992  Biso   1.000  Cd
  Cd2      1.0000 0.34748  0.78245  0.29008  Biso   1.000  Cd
  H1       1.0000 0.58630  0.98380  0.78280  Biso   1.000  H
  H2       1.0000 0.42370  0.91400  0.90120  Biso   1.000  H
  H3       1.0000 0.23510  0.23100  0.06170  Biso   1.000  H
  H4       1.0000 0.40090  0.29310  0.93900  Biso   1.000  H
  H5       1.0000 0.13660  0.08340  0.13000  Biso   1.000  H
  H6       1.0000 0.23690  0.95650  0.10780  Biso   1.000  H
  H7       1.0000 0.06150  0.88220  0.12940  Biso   1.000  H
  H8       1.0000 0.96250  0.00990  0.15300  Biso   1.000  H
  H9       1.0000 0.00340  0.15020  0.01740  Biso   1.000  H
  H10      1.0000 0.12860  0.11370  0.90540  Biso   1.000  H
  H11      1.0000 0.87980  0.98730  0.37620  Biso   1.000  H
  H12      1.0000 0.95590  0.90320  0.44390  Biso   1.000  H
  H13      1.0000 0.78550  0.82430  0.51940  Biso   1.000  H
  H14      1.0000 0.81770  0.82160  0.39020  Biso   1.000  H
  H15      1.0000 0.56000  0.89170  0.63480  Biso   1.000  H
  H16      1.0000 0.66160  0.00870  0.33010  Biso   1.000  H
  H17      1.0000 0.69240  0.43960  0.97710  Biso   1.000  H
  H18      1.0000 0.74690  0.50140  0.86950  Biso   1.000  H
  H19      1.0000 0.89000  0.30040  0.93280  Biso   1.000  H
  H20      1.0000 0.94570  0.35180  0.81870  Biso   1.000  H
  H21      1.0000 0.88720  0.37860  0.09750  Biso   1.000  H
  H22      1.0000 0.01540  0.53140  0.82030  Biso   1.000  H
  H23      1.0000 0.55230  0.22210  0.50750  Biso   1.000  H
  H24      1.0000 0.41180  0.33240  0.42580  Biso   1.000  H
  H25      1.0000 0.27230  0.57730  0.67600  Biso   1.000  H
  H26      1.0000 0.41680  0.46050  0.75180  Biso   1.000  H
  H27      1.0000 0.28550  0.56510  0.41630  Biso   1.000  H
  H28      1.0000 0.18380  0.62040  0.53550  Biso   1.000  H
  H29      1.0000 0.11020  0.41000  0.61590  Biso   1.000  H
  H30      1.0000 0.00720  0.53580  0.63590  Biso   1.000  H
  H31      1.0000 0.00050  0.65210  0.48200  Biso   1.000  H
  H32      1.0000 0.09950  0.60340  0.35980  Biso   1.000  H
  H33      1.0000 0.41370  0.01620  0.21720  Biso   1.000  H
  H34      1.0000 0.57630  0.08600  0.09880  Biso   1.000  H
  H35      1.0000 0.76490  0.76900  0.93830  Biso   1.000  H
  H36      1.0000 0.59910  0.70690  0.06100  Biso   1.000  H
  H37      1.0000 0.86340  0.91660  0.87000  Biso   1.000  H
  H38      1.0000 0.76310  0.04350  0.89220  Biso   1.000  H
  H39      1.0000 0.93850  0.11780  0.87060  Biso   1.000  H
  H40      1.0000 0.03750  0.99010  0.84700  Biso   1.000  H
  H41      1.0000 0.99660  0.84980  0.98260  Biso   1.000  H
  H42      1.0000 0.87140  0.88630  0.09460  Biso   1.000  H
  H43      1.0000 0.12020  0.01270  0.62380  Biso   1.000  H
  H44      1.0000 0.04410  0.09680  0.55610  Biso   1.000  H
  H45      1.0000 0.21450  0.17570  0.48060  Biso   1.000  H
  H46      1.0000 0.18230  0.17840  0.60980  Biso   1.000  H
  H47      1.0000 0.44000  0.10830  0.36520  Biso   1.000  H
  H48      1.0000 0.33840  0.99130  0.66990  Biso   1.000  H
  H49      1.0000 0.30760  0.56040  0.02290  Biso   1.000  H
  H50      1.0000 0.25310  0.49860  0.13050  Biso   1.000  H
  H51      1.0000 0.11000  0.69960  0.06720  Biso   1.000  H
  H52      1.0000 0.05430  0.64820  0.18130  Biso   1.000  H
  H53      1.0000 0.11280  0.62140  0.90250  Biso   1.000  H
  H54      1.0000 0.98460  0.46860  0.17970  Biso   1.000  H
  H55      1.0000 0.44770  0.77790  0.49250  Biso   1.000  H
  H56      1.0000 0.58820  0.66760  0.57420  Biso   1.000  H
  H57      1.0000 0.72770  0.42270  0.32400  Biso   1.000  H
  H58      1.0000 0.58320  0.53950  0.24820  Biso   1.000  H
  H59      1.0000 0.71450  0.43490  0.58370  Biso   1.000  H
  H60      1.0000 0.81620  0.37960  0.46450  Biso   1.000  H
  H61      1.0000 0.88980  0.59000  0.38410  Biso   1.000  H
  H62      1.0000 0.99280  0.46420  0.36410  Biso   1.000  H
  H63      1.0000 0.99950  0.34790  0.51800  Biso   1.000  H
  H64      1.0000 0.90050  0.39660  0.64020  Biso   1.000  H
  C1       1.0000 0.51400  0.03440  0.83892  Biso   1.000  C
  C2       1.0000 0.41650  0.99170  0.90995  Biso   1.000  C
  C3       1.0000 0.30810  0.06530  0.99421  Biso   1.000  C
  C4       1.0000 0.30490  0.17940  0.00470  Biso   1.000  C
  C5       1.0000 0.40500  0.21620  0.93090  Biso   1.000  C
  C6       1.0000 0.19840  0.02240  0.07200  Biso   1.000  C
  C7       1.0000 0.02060  0.94800  0.09481  Biso   1.000  C
  C8       1.0000 0.06100  0.08680  0.96066  Biso   1.000  C
  C9       1.0000 0.80660  0.04370  0.54229  Biso   1.000  C
  C10      1.0000 0.86840  0.95070  0.44610  Biso   1.000  C
  C11      1.0000 0.78100  0.87270  0.45800  Biso   1.000  C
  C12      1.0000 0.63580  0.93851  0.47900  Biso   1.000  C
  C13      1.0000 0.53660  0.93520  0.57990  Biso   1.000  C
  C14      1.0000 0.59720  0.00470  0.39870  Biso   1.000  C
  C15      1.0000 0.70360  0.35890  0.83620  Biso   1.000  C
  C16      1.0000 0.75270  0.42610  0.89950  Biso   1.000  C
  C17      1.0000 0.88680  0.37230  0.89640  Biso   1.000  C
  C18      1.0000 0.94270  0.44220  0.94970  Biso   1.000  C
  C19      1.0000 0.93330  0.42720  0.05670  Biso   1.000  C
  C20      1.0000 0.00930  0.51760  0.89350  Biso   1.000  C
  C21      1.0000 0.49540  0.29490  0.54180  Biso   1.000  C
  C22      1.0000 0.41110  0.36070  0.49220  Biso   1.000  C
  C23      1.0000 0.32500  0.46920  0.54136  Biso   1.000  C
  C24      1.0000 0.32890  0.50510  0.63980  Biso   1.000  C
  C25      1.0000 0.41630  0.43430  0.68510  Biso   1.000  C
  C26      1.0000 0.23250  0.54772  0.48930  Biso   1.000  C
  C27      1.0000 0.05370  0.46674  0.58423  Biso   1.000  C
  C28      1.0000 0.04700  0.58244  0.43118  Biso   1.000  C
  C29      1.0000 0.48600  0.96560  0.16108  Biso   1.000  C
  C30      1.0000 0.58350  0.00830  0.09005  Biso   1.000  C
  C31      1.0000 0.69190  0.93470  0.00579  Biso   1.000  C
  C32      1.0000 0.69510  0.82060  0.99530  Biso   1.000  C
  C33      1.0000 0.59500  0.78380  0.06910  Biso   1.000  C
  C34      1.0000 0.80160  0.97760  0.92800  Biso   1.000  C
  C35      1.0000 0.97940  0.05200  0.90519  Biso   1.000  C
  C36      1.0000 0.93900  0.91320  0.03934  Biso   1.000  C
  C37      1.0000 0.19340  0.95630  0.45771  Biso   1.000  C
  C38      1.0000 0.13160  0.04930  0.55390  Biso   1.000  C
  C39      1.0000 0.21900  0.12730  0.54200  Biso   1.000  C
  C40      1.0000 0.36420  0.06149  0.52100  Biso   1.000  C
  C41      1.0000 0.46340  0.06480  0.42010  Biso   1.000  C
  C42      1.0000 0.40280  0.99530  0.60130  Biso   1.000  C
  C43      1.0000 0.29640  0.64110  0.16380  Biso   1.000  C
  C44      1.0000 0.24730  0.57390  0.10050  Biso   1.000  C
  C45      1.0000 0.11320  0.62770  0.10360  Biso   1.000  C
  C46      1.0000 0.05730  0.55780  0.05030  Biso   1.000  C
  C47      1.0000 0.06670  0.57280  0.94330  Biso   1.000  C
  C48      1.0000 0.99070  0.48240  0.10650  Biso   1.000  C
  C49      1.0000 0.50460  0.70510  0.45820  Biso   1.000  C
  C50      1.0000 0.58890  0.63930  0.50780  Biso   1.000  C
  C51      1.0000 0.67500  0.53080  0.45864  Biso   1.000  C
  C52      1.0000 0.67110  0.49490  0.36020  Biso   1.000  C
  C53      1.0000 0.58370  0.56570  0.31490  Biso   1.000  C
  C54      1.0000 0.76750  0.45228  0.51070  Biso   1.000  C
  C55      1.0000 0.94630  0.53326  0.41577  Biso   1.000  C
  C56      1.0000 0.95300  0.41756  0.56882  Biso   1.000  C
  N1       1.0000 0.50845  0.14565  0.84753  Biso   1.000  N
  N2       1.0000 0.12526  0.98783  0.01228  Biso   1.000  N
  N3       1.0000 0.50036  0.32983  0.63717  Biso   1.000  N
  N4       1.0000 0.13626  0.49615  0.47663  Biso   1.000  N
  N5       1.0000 0.49155  0.85435  0.15247  Biso   1.000  N
  N6       1.0000 0.87474  0.01217  0.98772  Biso   1.000  N
  N7       1.0000 0.49964  0.67017  0.36283  Biso   1.000  N
  N8       1.0000 0.86374  0.50385  0.52337  Biso   1.000  N
  O1       1.0000 0.78035  0.14934  0.52195  Biso   1.000  O
  O2       1.0000 0.77837  0.01522  0.64137  Biso   1.000  O
  O3       1.0000 0.78211  0.26228  0.78443  Biso   1.000  O
  O4       1.0000 0.58955  0.40211  0.83308  Biso   1.000  O
  O5       1.0000 0.21965  0.85066  0.47805  Biso   1.000  O
  O6       1.0000 0.22163  0.98478  0.35863  Biso   1.000  O
  O7       1.0000 0.21789  0.73772  0.21557  Biso   1.000  O
  O8       1.0000 0.41045  0.59789  0.16692  Biso   1.000  O
