data_IVEHEW_clean5b
_audit_creation_date              2014-07-02
_audit_creation_method            'Materials Studio'
_symmetry_space_group_name_H-M    'P1'
_symmetry_Int_Tables_number       1
_symmetry_cell_setting            triclinic
loop_
_symmetry_equiv_pos_as_xyz
  x,y,z
_cell_length_a                    11.0837
_cell_length_b                    11.1496
_cell_length_c                    16.9370
_cell_angle_alpha                 90.0000
_cell_angle_beta                  97.5340
_cell_angle_gamma                 90.0000
loop_
_atom_site_label
_atom_site_type_symbol
_atom_site_fract_x
_atom_site_fract_y
_atom_site_fract_z
_atom_site_U_iso_or_equiv
_atom_site_adp_type
_atom_site_occupancy
Cu1    Cu    0.50000   0.54209   0.25000   0.01267  Uiso   1.00
Cu2    Cu    0.50000   0.45791   0.75000   0.01267  Uiso   1.00
H1     H     0.27710   0.45100   0.15510   0.01267  Uiso   1.00
H2     H     0.06660   0.43420   0.15510   0.01267  Uiso   1.00
H3     H     0.11490   0.62230   0.36150   0.01267  Uiso   1.00
H4     H     0.32690   0.63840   0.35400   0.01267  Uiso   1.00
H5     H     0.36080   0.74150   0.16820   0.01267  Uiso   1.00
H6     H     0.35500   0.94930   0.16400   0.01267  Uiso   1.00
H7     H     0.57640   0.13700   0.14930   0.01267  Uiso   1.00
H8     H     0.58120   0.33970   0.15300   0.01267  Uiso   1.00
H9     H     0.72290   0.45100   0.34490   0.01267  Uiso   1.00
H10    H     0.93340   0.43420   0.34490   0.01267  Uiso   1.00
H11    H     0.88510   0.62230   0.13850   0.01267  Uiso   1.00
H12    H     0.67310   0.63840   0.14600   0.01267  Uiso   1.00
H13    H     0.63920   0.74150   0.33180   0.01267  Uiso   1.00
H14    H     0.64500   0.94930   0.33600   0.01267  Uiso   1.00
H15    H     0.42360   0.13700   0.35070   0.01267  Uiso   1.00
H16    H     0.41880   0.33970   0.34700   0.01267  Uiso   1.00
H17    H     0.72290   0.54900   0.84490   0.01267  Uiso   1.00
H18    H     0.93340   0.56580   0.84490   0.01267  Uiso   1.00
H19    H     0.88510   0.37770   0.63850   0.01267  Uiso   1.00
H20    H     0.67310   0.36160   0.64600   0.01267  Uiso   1.00
H21    H     0.39650   0.25630   0.83680   0.01267  Uiso   1.00
H22    H     0.39130   0.04420   0.83840   0.01267  Uiso   1.00
H23    H     0.42360   0.86300   0.85070   0.01267  Uiso   1.00
H24    H     0.41880   0.66030   0.84700   0.01267  Uiso   1.00
H25    H     0.27710   0.54900   0.65510   0.01267  Uiso   1.00
H26    H     0.06660   0.56580   0.65510   0.01267  Uiso   1.00
H27    H     0.11490   0.37770   0.86150   0.01267  Uiso   1.00
H28    H     0.32690   0.36160   0.85400   0.01267  Uiso   1.00
H29    H     0.60350   0.25630   0.66320   0.01267  Uiso   1.00
H30    H     0.60870   0.04420   0.66160   0.01267  Uiso   1.00
H31    H     0.57640   0.86300   0.64930   0.01267  Uiso   1.00
H32    H     0.58120   0.66030   0.65300   0.01267  Uiso   1.00
C1     C     0.24050   0.48920   0.19620   0.01267  Uiso   1.00
C2     C     0.11750   0.47890   0.19390   0.01267  Uiso   1.00
C3     C     0.07800   0.53950   0.25300   0.01267  Uiso   1.00
C4     C     0.14960   0.59220   0.31710   0.01267  Uiso   1.00
C5     C     0.27310   0.59930   0.31380   0.01267  Uiso   1.00
C6     C     0.41840   0.78770   0.20190   0.01267  Uiso   1.00
C7     C     0.41450   0.90810   0.19940   0.01267  Uiso   1.00
C8     C     0.54510   0.17630   0.19200   0.01267  Uiso   1.00
C9     C     0.54700   0.29560   0.19260   0.01267  Uiso   1.00
C10    C     0.75950   0.48920   0.30380   0.01267  Uiso   1.00
C11    C     0.88250   0.47890   0.30610   0.01267  Uiso   1.00
C12    C     0.92200   0.53950   0.24700   0.01267  Uiso   1.00
C13    C     0.85040   0.59220   0.18290   0.01267  Uiso   1.00
C14    C     0.72690   0.59930   0.18620   0.01267  Uiso   1.00
C15    C     0.58160   0.78770   0.29810   0.01267  Uiso   1.00
C16    C     0.58550   0.90810   0.30060   0.01267  Uiso   1.00
C17    C     0.45490   0.17630   0.30800   0.01267  Uiso   1.00
C18    C     0.45300   0.29560   0.30740   0.01267  Uiso   1.00
C19    C     0.75950   0.51080   0.80380   0.01267  Uiso   1.00
C20    C     0.88250   0.52110   0.80610   0.01267  Uiso   1.00
C21    C     0.92200   0.46050   0.74700   0.01267  Uiso   1.00
C22    C     0.85040   0.40780   0.68290   0.01267  Uiso   1.00
C23    C     0.72690   0.40070   0.68620   0.01267  Uiso   1.00
C24    C     0.43810   0.21050   0.80160   0.01267  Uiso   1.00
C25    C     0.43510   0.08740   0.80310   0.01267  Uiso   1.00
C26    C     0.45490   0.82370   0.80800   0.01267  Uiso   1.00
C27    C     0.45300   0.70440   0.80740   0.01267  Uiso   1.00
C28    C     0.24050   0.51080   0.69620   0.01267  Uiso   1.00
C29    C     0.11750   0.52110   0.69390   0.01267  Uiso   1.00
C30    C     0.07800   0.46050   0.75300   0.01267  Uiso   1.00
C31    C     0.14960   0.40780   0.81710   0.01267  Uiso   1.00
C32    C     0.27310   0.40070   0.81380   0.01267  Uiso   1.00
C33    C     0.56190   0.21050   0.69840   0.01267  Uiso   1.00
C34    C     0.56490   0.08740   0.69690   0.01267  Uiso   1.00
C35    C     0.54510   0.82370   0.69200   0.01267  Uiso   1.00
C36    C     0.54700   0.70440   0.69260   0.01267  Uiso   1.00
C37    C     0.50000   0.96910   0.25000   0.01267  Uiso   1.00
C38    C     0.50000   0.10330   0.25000   0.01267  Uiso   1.00
C39    C     0.50000   0.03090   0.75000   0.01267  Uiso   1.00
C40    C     0.50000   0.89670   0.75000   0.01267  Uiso   1.00
S1     S     0.45510   0.55230   0.03020   0.01267  Uiso   1.00
S2     S     0.54490   0.55230   0.46980   0.01267  Uiso   1.00
S3     S     0.54490   0.44770   0.96980   0.01267  Uiso   1.00
S4     S     0.45510   0.44770   0.53020   0.01267  Uiso   1.00
N1     N     0.31250   0.54800   0.25090   0.01267  Uiso   1.00
N2     N     0.68750   0.54800   0.24910   0.01267  Uiso   1.00
N3     N     0.68750   0.45200   0.74910   0.01267  Uiso   1.00
N4     N     0.31250   0.45200   0.75090   0.01267  Uiso   1.00
N5     N     0.50000   0.73630   0.25000   0.01267  Uiso   1.00
N6     N     0.50000   0.35000   0.25000   0.01267  Uiso   1.00
N7     N     0.50000   0.26370   0.75000   0.01267  Uiso   1.00
N8     N     0.50000   0.65000   0.75000   0.01267  Uiso   1.00
O1     O     0.46790   0.54660   0.10840   0.01267  Uiso   1.00
O2     O     0.33500   0.58220   0.98470   0.01267  Uiso   1.00
O3     O     0.51010   0.66990   0.01030   0.01267  Uiso   1.00
O4     O     0.53210   0.54660   0.39160   0.01267  Uiso   1.00
O5     O     0.66500   0.58220   0.51530   0.01267  Uiso   1.00
O6     O     0.48990   0.66990   0.48970   0.01267  Uiso   1.00
O7     O     0.53210   0.45340   0.89160   0.01267  Uiso   1.00
O8     O     0.66500   0.41780   0.01530   0.01267  Uiso   1.00
O9     O     0.48990   0.33010   0.98970   0.01267  Uiso   1.00
O10    O     0.46790   0.45340   0.60840   0.01267  Uiso   1.00
O11    O     0.33500   0.41780   0.48470   0.01267  Uiso   1.00
O12    O     0.51010   0.33010   0.51030   0.01267  Uiso   1.00
