data_image0
_cell_length_a       18.947
_cell_length_b       6.915
_cell_length_c       11.295
_cell_angle_alpha    90
_cell_angle_beta     90.45
_cell_angle_gamma    90

_symmetry_space_group_name_H-M    "P 1"
_symmetry_int_tables_number       1

loop_
  _symmetry_equiv_pos_as_xyz
  'x, y, z'

loop_
  _atom_site_label
  _atom_site_occupancy
  _atom_site_fract_x
  _atom_site_fract_y
  _atom_site_fract_z
  _atom_site_thermal_displace_type
  _atom_site_B_iso_or_equiv
  _atom_site_type_symbol
  O1       1.0000 0.32200  0.17500  0.62000  Biso   1.000  O
  O2       1.0000 0.31400  0.16200  0.36500  Biso   1.000  O
  C1       1.0000 0.46900  0.17600  0.45500  Biso   1.000  C
  N1       1.0000 0.24800  0.15400  0.88500  Biso   1.000  N
  C2       1.0000 0.31700  0.20100  0.94600  Biso   1.000  C
  C3       1.0000 0.18600  0.14200  0.96600  Biso   1.000  C
  O3       1.0000 0.82200  0.67500  0.62000  Biso   1.000  O
  O4       1.0000 0.81400  0.66200  0.36500  Biso   1.000  O
  C4       1.0000 0.96900  0.67600  0.45500  Biso   1.000  C
  N2       1.0000 0.74800  0.65400  0.88500  Biso   1.000  N
  C5       1.0000 0.81700  0.70100  0.94600  Biso   1.000  C
  C6       1.0000 0.68600  0.64200  0.96600  Biso   1.000  C
  O5       1.0000 0.67800  0.17500  0.38000  Biso   1.000  O
  O6       1.0000 0.68600  0.16200  0.63500  Biso   1.000  O
  C7       1.0000 0.53100  0.17600  0.54500  Biso   1.000  C
  N3       1.0000 0.75200  0.15400  0.11500  Biso   1.000  N
  C8       1.0000 0.68300  0.20100  0.05400  Biso   1.000  C
  C9       1.0000 0.81400  0.14200  0.03400  Biso   1.000  C
  O7       1.0000 0.17800  0.67500  0.38000  Biso   1.000  O
  O8       1.0000 0.18600  0.66200  0.63500  Biso   1.000  O
  C10      1.0000 0.03100  0.67600  0.54500  Biso   1.000  C
  N4       1.0000 0.25200  0.65400  0.11500  Biso   1.000  N
  C11      1.0000 0.18300  0.70100  0.05400  Biso   1.000  C
  C12      1.0000 0.31400  0.64200  0.03400  Biso   1.000  C
  O9       1.0000 0.67800  0.82500  0.38000  Biso   1.000  O
  O10      1.0000 0.68600  0.83800  0.63500  Biso   1.000  O
  C13      1.0000 0.53100  0.82400  0.54500  Biso   1.000  C
  N5       1.0000 0.75200  0.84600  0.11500  Biso   1.000  N
  C14      1.0000 0.68300  0.79900  0.05400  Biso   1.000  C
  C15      1.0000 0.81400  0.85800  0.03400  Biso   1.000  C
  O11      1.0000 0.17800  0.32500  0.38000  Biso   1.000  O
  O12      1.0000 0.18600  0.33800  0.63500  Biso   1.000  O
  C16      1.0000 0.03100  0.32400  0.54500  Biso   1.000  C
  N6       1.0000 0.25200  0.34600  0.11500  Biso   1.000  N
  C17      1.0000 0.18300  0.29900  0.05400  Biso   1.000  C
  C18      1.0000 0.31400  0.35800  0.03400  Biso   1.000  C
  O13      1.0000 0.32200  0.82500  0.62000  Biso   1.000  O
  O14      1.0000 0.31400  0.83800  0.36500  Biso   1.000  O
  C19      1.0000 0.46900  0.82400  0.45500  Biso   1.000  C
  N7       1.0000 0.24800  0.84600  0.88500  Biso   1.000  N
  C20      1.0000 0.31700  0.79900  0.94600  Biso   1.000  C
  C21      1.0000 0.18600  0.85800  0.96600  Biso   1.000  C
  O15      1.0000 0.82200  0.32500  0.62000  Biso   1.000  O
  O16      1.0000 0.81400  0.33800  0.36500  Biso   1.000  O
  C22      1.0000 0.96900  0.32400  0.45500  Biso   1.000  C
  N8       1.0000 0.74800  0.34600  0.88500  Biso   1.000  N
  C23      1.0000 0.81700  0.29900  0.94600  Biso   1.000  C
  C24      1.0000 0.68600  0.35800  0.96600  Biso   1.000  C
  P1       1.0000 0.33200  0.00000  0.70500  Biso   1.000  P
  P2       1.0000 0.34000  0.00000  0.30500  Biso   1.000  P
  O17      1.0000 0.21500  0.00000  0.54100  Biso   1.000  O
  O18      1.0000 0.41100  0.00000  0.73000  Biso   1.000  O
  O19      1.0000 0.30000  0.00000  0.19300  Biso   1.000  O
  N9       1.0000 0.47400  0.00000  0.37800  Biso   1.000  N
  C25      1.0000 0.43100  0.00000  0.26200  Biso   1.000  C
  C26      1.0000 0.25100  0.00000  0.79400  Biso   1.000  C
  P3       1.0000 0.83200  0.50000  0.70500  Biso   1.000  P
  P4       1.0000 0.84000  0.50000  0.30500  Biso   1.000  P
  O20      1.0000 0.71500  0.50000  0.54100  Biso   1.000  O
  O21      1.0000 0.91100  0.50000  0.73000  Biso   1.000  O
  O22      1.0000 0.80000  0.50000  0.19300  Biso   1.000  O
  N10      1.0000 0.97400  0.50000  0.37800  Biso   1.000  N
  C27      1.0000 0.93100  0.50000  0.26200  Biso   1.000  C
  C28      1.0000 0.75100  0.50000  0.79400  Biso   1.000  C
  P5       1.0000 0.66800  0.00000  0.29500  Biso   1.000  P
  P6       1.0000 0.66000  0.00000  0.69500  Biso   1.000  P
  O23      1.0000 0.78500  0.00000  0.45900  Biso   1.000  O
  O24      1.0000 0.58900  0.00000  0.27000  Biso   1.000  O
  O25      1.0000 0.70000  0.00000  0.80700  Biso   1.000  O
  N11      1.0000 0.52600  0.00000  0.62200  Biso   1.000  N
  C29      1.0000 0.56900  0.00000  0.73800  Biso   1.000  C
  C30      1.0000 0.74900  0.00000  0.20600  Biso   1.000  C
  P7       1.0000 0.16800  0.50000  0.29500  Biso   1.000  P
  P8       1.0000 0.16000  0.50000  0.69500  Biso   1.000  P
  O26      1.0000 0.28500  0.50000  0.45900  Biso   1.000  O
  O27      1.0000 0.08900  0.50000  0.27000  Biso   1.000  O
  O28      1.0000 0.20000  0.50000  0.80700  Biso   1.000  O
  N12      1.0000 0.02600  0.50000  0.62200  Biso   1.000  N
  C31      1.0000 0.06900  0.50000  0.73800  Biso   1.000  C
  C32      1.0000 0.24900  0.50000  0.20600  Biso   1.000  C
  Al1      1.0000 0.25000  0.25000  0.50000  Biso   1.000  Al
  Al2      1.0000 0.75000  0.25000  0.50000  Biso   1.000  Al
  Al3      1.0000 0.75000  0.75000  0.50000  Biso   1.000  Al
  Al4      1.0000 0.25000  0.75000  0.50000  Biso   1.000  Al
