data_image0
_cell_length_a       14.689
_cell_length_b       14.995
_cell_length_c       30.625
_cell_angle_alpha    90
_cell_angle_beta     90
_cell_angle_gamma    90

_symmetry_space_group_name_H-M    P 1
_symmetry_int_tables_number       1

loop_
  _symmetry_equiv_pos_as_xyz
  'x, y, z'

loop_
  _atom_site_label
  _atom_site_occupancy
  _atom_site_fract_x
  _atom_site_fract_y
  _atom_site_fract_z
  _atom_site_thermal_displace_type
  _atom_site_B_iso_or_equiv
  _atom_site_type_symbol
  Cu1      1.0000 0.50000  0.25000  0.25000  Biso   1.000  Cu
  Cu2      1.0000 0.00000  0.75000  0.75000  Biso   1.000  Cu
  H1       1.0000 0.60130  0.08780  0.22650  Biso   1.000  H
  H2       1.0000 0.60730  0.97850  0.17200  Biso   1.000  H
  H3       1.0000 0.38620  0.09600  0.11790  Biso   1.000  H
  H4       1.0000 0.39250  0.20000  0.17130  Biso   1.000  H
  H5       1.0000 0.62900  0.91970  0.11020  Biso   1.000  H
  H6       1.0000 0.63260  0.81280  0.05480  Biso   1.000  H
  H7       1.0000 0.37110  0.87160  0.02600  Biso   1.000  H
  H8       1.0000 0.36990  0.97660  0.08080  Biso   1.000  H
  H9       1.0000 0.85520  0.62630  0.78800  Biso   1.000  H
  H10      1.0000 0.75790  0.62300  0.84680  Biso   1.000  H
  H11      1.0000 0.84090  0.87130  0.88030  Biso   1.000  H
  H12      1.0000 0.93580  0.86530  0.81880  Biso   1.000  H
  H13      1.0000 0.66790  0.61770  0.89600  Biso   1.000  H
  H14      1.0000 0.55400  0.62480  0.94800  Biso   1.000  H
  H15      1.0000 0.63700  0.86920  0.98410  Biso   1.000  H
  H16      1.0000 0.75200  0.86520  0.93160  Biso   1.000  H
  H17      1.0000 0.60130  0.41220  0.27350  Biso   1.000  H
  H18      1.0000 0.60730  0.52150  0.32800  Biso   1.000  H
  H19      1.0000 0.38620  0.40400  0.38210  Biso   1.000  H
  H20      1.0000 0.39250  0.30000  0.32870  Biso   1.000  H
  H21      1.0000 0.62900  0.58030  0.38980  Biso   1.000  H
  H22      1.0000 0.63260  0.68720  0.44520  Biso   1.000  H
  H23      1.0000 0.37110  0.62840  0.47400  Biso   1.000  H
  H24      1.0000 0.36990  0.52340  0.41920  Biso   1.000  H
  H25      1.0000 0.85520  0.87370  0.71200  Biso   1.000  H
  H26      1.0000 0.75790  0.87700  0.65320  Biso   1.000  H
  H27      1.0000 0.84090  0.62870  0.61970  Biso   1.000  H
  H28      1.0000 0.93580  0.63470  0.68120  Biso   1.000  H
  H29      1.0000 0.66790  0.88230  0.60400  Biso   1.000  H
  H30      1.0000 0.55400  0.87520  0.55200  Biso   1.000  H
  H31      1.0000 0.63700  0.63080  0.51590  Biso   1.000  H
  H32      1.0000 0.75200  0.63480  0.56840  Biso   1.000  H
  H33      1.0000 0.39870  0.41220  0.22650  Biso   1.000  H
  H34      1.0000 0.39270  0.52150  0.17200  Biso   1.000  H
  H35      1.0000 0.61380  0.40400  0.11790  Biso   1.000  H
  H36      1.0000 0.60750  0.30000  0.17130  Biso   1.000  H
  H37      1.0000 0.37100  0.58030  0.11020  Biso   1.000  H
  H38      1.0000 0.36740  0.68720  0.05480  Biso   1.000  H
  H39      1.0000 0.62890  0.62840  0.02600  Biso   1.000  H
  H40      1.0000 0.63010  0.52340  0.08080  Biso   1.000  H
  H41      1.0000 0.14480  0.87370  0.78800  Biso   1.000  H
  H42      1.0000 0.24210  0.87700  0.84680  Biso   1.000  H
  H43      1.0000 0.15910  0.62870  0.88030  Biso   1.000  H
  H44      1.0000 0.06420  0.63470  0.81880  Biso   1.000  H
  H45      1.0000 0.33210  0.88230  0.89600  Biso   1.000  H
  H46      1.0000 0.44600  0.87520  0.94800  Biso   1.000  H
  H47      1.0000 0.36300  0.63080  0.98410  Biso   1.000  H
  H48      1.0000 0.24800  0.63480  0.93160  Biso   1.000  H
  H49      1.0000 0.39870  0.08780  0.27350  Biso   1.000  H
  H50      1.0000 0.39270  0.97850  0.32800  Biso   1.000  H
  H51      1.0000 0.61380  0.09600  0.38210  Biso   1.000  H
  H52      1.0000 0.60750  0.20000  0.32870  Biso   1.000  H
  H53      1.0000 0.37100  0.91970  0.38980  Biso   1.000  H
  H54      1.0000 0.36740  0.81280  0.44520  Biso   1.000  H
  H55      1.0000 0.62890  0.87160  0.47400  Biso   1.000  H
  H56      1.0000 0.63010  0.97660  0.41920  Biso   1.000  H
  H57      1.0000 0.14480  0.62630  0.71200  Biso   1.000  H
  H58      1.0000 0.24210  0.62300  0.65320  Biso   1.000  H
  H59      1.0000 0.15910  0.87130  0.61970  Biso   1.000  H
  H60      1.0000 0.06420  0.86530  0.68120  Biso   1.000  H
  H61      1.0000 0.33210  0.61770  0.60400  Biso   1.000  H
  H62      1.0000 0.44600  0.62480  0.55200  Biso   1.000  H
  H63      1.0000 0.36300  0.86920  0.51590  Biso   1.000  H
  H64      1.0000 0.24800  0.86520  0.56840  Biso   1.000  H
  C1       1.0000 0.55820  0.08950  0.20343  Biso   1.000  C
  C2       1.0000 0.56220  0.02380  0.17115  Biso   1.000  C
  C3       1.0000 0.49670  0.02690  0.13714  Biso   1.000  C
  C4       1.0000 0.43310  0.09290  0.13923  Biso   1.000  C
  C5       1.0000 0.43670  0.15380  0.17151  Biso   1.000  C
  C6       1.0000 0.49610  0.95930  0.10182  Biso   1.000  C
  C7       1.0000 0.57600  0.90950  0.09308  Biso   1.000  C
  C8       1.0000 0.57850  0.84590  0.05994  Biso   1.000  C
  C9       1.0000 0.50140  0.83070  0.03414  Biso   1.000  C
  C10      1.0000 0.42450  0.88050  0.04297  Biso   1.000  C
  C11      1.0000 0.42400  0.94320  0.07607  Biso   1.000  C
  C12      1.0000 0.85230  0.67640  0.80700  Biso   1.000  C
  C13      1.0000 0.79420  0.67440  0.84180  Biso   1.000  C
  C14      1.0000 0.78770  0.74570  0.86968  Biso   1.000  C
  C15      1.0000 0.84210  0.82030  0.86190  Biso   1.000  C
  C16      1.0000 0.89880  0.81490  0.82500  Biso   1.000  C
  C17      1.0000 0.71940  0.74020  0.90719  Biso   1.000  C
  C18      1.0000 0.66160  0.66980  0.91343  Biso   1.000  C
  C19      1.0000 0.59450  0.67380  0.94473  Biso   1.000  C
  C20      1.0000 0.58460  0.74740  0.97161  Biso   1.000  C
  C21      1.0000 0.64330  0.81800  0.96602  Biso   1.000  C
  C22      1.0000 0.71130  0.81630  0.93469  Biso   1.000  C
  C23      1.0000 0.55820  0.41050  0.29657  Biso   1.000  C
  C24      1.0000 0.56220  0.47620  0.32885  Biso   1.000  C
  C25      1.0000 0.49670  0.47310  0.36286  Biso   1.000  C
  C26      1.0000 0.43310  0.40710  0.36077  Biso   1.000  C
  C27      1.0000 0.43670  0.34620  0.32849  Biso   1.000  C
  C28      1.0000 0.49610  0.54070  0.39818  Biso   1.000  C
  C29      1.0000 0.57600  0.59050  0.40692  Biso   1.000  C
  C30      1.0000 0.57850  0.65410  0.44006  Biso   1.000  C
  C31      1.0000 0.50140  0.66930  0.46586  Biso   1.000  C
  C32      1.0000 0.42450  0.61950  0.45703  Biso   1.000  C
  C33      1.0000 0.42400  0.55680  0.42393  Biso   1.000  C
  C34      1.0000 0.85230  0.82360  0.69300  Biso   1.000  C
  C35      1.0000 0.79420  0.82560  0.65820  Biso   1.000  C
  C36      1.0000 0.78770  0.75430  0.63032  Biso   1.000  C
  C37      1.0000 0.84210  0.67970  0.63810  Biso   1.000  C
  C38      1.0000 0.89880  0.68510  0.67500  Biso   1.000  C
  C39      1.0000 0.71940  0.75980  0.59281  Biso   1.000  C
  C40      1.0000 0.66160  0.83020  0.58657  Biso   1.000  C
  C41      1.0000 0.59450  0.82620  0.55527  Biso   1.000  C
  C42      1.0000 0.58460  0.75260  0.52839  Biso   1.000  C
  C43      1.0000 0.64330  0.68200  0.53398  Biso   1.000  C
  C44      1.0000 0.71130  0.68370  0.56531  Biso   1.000  C
  C45      1.0000 0.44180  0.41050  0.20343  Biso   1.000  C
  C46      1.0000 0.43780  0.47620  0.17115  Biso   1.000  C
  C47      1.0000 0.50330  0.47310  0.13714  Biso   1.000  C
  C48      1.0000 0.56690  0.40710  0.13923  Biso   1.000  C
  C49      1.0000 0.56330  0.34620  0.17151  Biso   1.000  C
  C50      1.0000 0.50390  0.54070  0.10182  Biso   1.000  C
  C51      1.0000 0.42400  0.59050  0.09308  Biso   1.000  C
  C52      1.0000 0.42150  0.65410  0.05994  Biso   1.000  C
  C53      1.0000 0.49860  0.66930  0.03414  Biso   1.000  C
  C54      1.0000 0.57550  0.61950  0.04297  Biso   1.000  C
  C55      1.0000 0.57600  0.55680  0.07607  Biso   1.000  C
  C56      1.0000 0.14770  0.82360  0.80700  Biso   1.000  C
  C57      1.0000 0.20580  0.82560  0.84180  Biso   1.000  C
  C58      1.0000 0.21230  0.75430  0.86968  Biso   1.000  C
  C59      1.0000 0.15790  0.67970  0.86190  Biso   1.000  C
  C60      1.0000 0.10120  0.68510  0.82500  Biso   1.000  C
  C61      1.0000 0.28060  0.75980  0.90719  Biso   1.000  C
  C62      1.0000 0.33840  0.83020  0.91343  Biso   1.000  C
  C63      1.0000 0.40550  0.82620  0.94473  Biso   1.000  C
  C64      1.0000 0.41540  0.75260  0.97161  Biso   1.000  C
  C65      1.0000 0.35670  0.68200  0.96602  Biso   1.000  C
  C66      1.0000 0.28870  0.68370  0.93469  Biso   1.000  C
  C67      1.0000 0.44180  0.08950  0.29657  Biso   1.000  C
  C68      1.0000 0.43780  0.02380  0.32885  Biso   1.000  C
  C69      1.0000 0.50330  0.02690  0.36286  Biso   1.000  C
  C70      1.0000 0.56690  0.09290  0.36077  Biso   1.000  C
  C71      1.0000 0.56330  0.15380  0.32849  Biso   1.000  C
  C72      1.0000 0.50390  0.95930  0.39818  Biso   1.000  C
  C73      1.0000 0.42400  0.90950  0.40692  Biso   1.000  C
  C74      1.0000 0.42150  0.84590  0.44006  Biso   1.000  C
  C75      1.0000 0.49860  0.83070  0.46586  Biso   1.000  C
  C76      1.0000 0.57550  0.88050  0.45703  Biso   1.000  C
  C77      1.0000 0.57600  0.94320  0.42393  Biso   1.000  C
  C78      1.0000 0.14770  0.67640  0.69300  Biso   1.000  C
  C79      1.0000 0.20580  0.67440  0.65820  Biso   1.000  C
  C80      1.0000 0.21230  0.74570  0.63032  Biso   1.000  C
  C81      1.0000 0.15790  0.82030  0.63810  Biso   1.000  C
  C82      1.0000 0.10120  0.81490  0.67500  Biso   1.000  C
  C83      1.0000 0.28060  0.74020  0.59281  Biso   1.000  C
  C84      1.0000 0.33840  0.66980  0.58657  Biso   1.000  C
  C85      1.0000 0.40550  0.67380  0.55527  Biso   1.000  C
  C86      1.0000 0.41540  0.74740  0.52839  Biso   1.000  C
  C87      1.0000 0.35670  0.81800  0.53398  Biso   1.000  C
  C88      1.0000 0.28870  0.81630  0.56531  Biso   1.000  C
  C89      1.0000 0.50000  0.75000  0.00303  Biso   1.000  C
  C90      1.0000 0.50000  0.75000  0.49697  Biso   1.000  C
  N1       1.0000 0.49660  0.15400  0.20315  Biso   1.000  N
  N2       1.0000 0.90540  0.74770  0.79881  Biso   1.000  N
  N3       1.0000 0.49660  0.34600  0.29685  Biso   1.000  N
  N4       1.0000 0.90540  0.75230  0.70119  Biso   1.000  N
  N5       1.0000 0.50340  0.34600  0.20315  Biso   1.000  N
  N6       1.0000 0.09460  0.75230  0.79881  Biso   1.000  N
  N7       1.0000 0.50340  0.15400  0.29685  Biso   1.000  N
  N8       1.0000 0.09460  0.74770  0.70119  Biso   1.000  N
  Cu3      1.0000 0.50000  0.75000  0.75000  Biso   1.000  Cu
  Cu4      1.0000 0.00000  0.25000  0.25000  Biso   1.000  Cu
  H65      1.0000 0.39870  0.91220  0.77350  Biso   1.000  H
  H66      1.0000 0.39270  0.02150  0.82800  Biso   1.000  H
  H67      1.0000 0.61380  0.90400  0.88210  Biso   1.000  H
  H68      1.0000 0.60750  0.80000  0.82870  Biso   1.000  H
  H69      1.0000 0.37100  0.08030  0.88980  Biso   1.000  H
  H70      1.0000 0.36740  0.18720  0.94520  Biso   1.000  H
  H71      1.0000 0.62890  0.12840  0.97400  Biso   1.000  H
  H72      1.0000 0.63010  0.02340  0.91920  Biso   1.000  H
  H73      1.0000 0.14480  0.37370  0.21200  Biso   1.000  H
  H74      1.0000 0.24210  0.37700  0.15320  Biso   1.000  H
  H75      1.0000 0.15910  0.12870  0.11970  Biso   1.000  H
  H76      1.0000 0.06420  0.13470  0.18120  Biso   1.000  H
  H77      1.0000 0.33210  0.38230  0.10400  Biso   1.000  H
  H78      1.0000 0.44600  0.37520  0.05200  Biso   1.000  H
  H79      1.0000 0.36300  0.13080  0.01590  Biso   1.000  H
  H80      1.0000 0.24800  0.13480  0.06840  Biso   1.000  H
  H81      1.0000 0.39870  0.58780  0.72650  Biso   1.000  H
  H82      1.0000 0.39270  0.47850  0.67200  Biso   1.000  H
  H83      1.0000 0.61380  0.59600  0.61790  Biso   1.000  H
  H84      1.0000 0.60750  0.70000  0.67130  Biso   1.000  H
  H85      1.0000 0.37100  0.41970  0.61020  Biso   1.000  H
  H86      1.0000 0.36740  0.31280  0.55480  Biso   1.000  H
  H87      1.0000 0.62890  0.37160  0.52600  Biso   1.000  H
  H88      1.0000 0.63010  0.47660  0.58080  Biso   1.000  H
  H89      1.0000 0.14480  0.12630  0.28800  Biso   1.000  H
  H90      1.0000 0.24210  0.12300  0.34680  Biso   1.000  H
  H91      1.0000 0.15910  0.37130  0.38030  Biso   1.000  H
  H92      1.0000 0.06420  0.36530  0.31880  Biso   1.000  H
  H93      1.0000 0.33210  0.11770  0.39600  Biso   1.000  H
  H94      1.0000 0.44600  0.12480  0.44800  Biso   1.000  H
  H95      1.0000 0.36300  0.36920  0.48410  Biso   1.000  H
  H96      1.0000 0.24800  0.36520  0.43160  Biso   1.000  H
  H97      1.0000 0.60130  0.58780  0.77350  Biso   1.000  H
  H98      1.0000 0.60730  0.47850  0.82800  Biso   1.000  H
  H99      1.0000 0.38620  0.59600  0.88210  Biso   1.000  H
  H100     1.0000 0.39250  0.70000  0.82870  Biso   1.000  H
  H101     1.0000 0.62900  0.41970  0.88980  Biso   1.000  H
  H102     1.0000 0.63260  0.31280  0.94520  Biso   1.000  H
  H103     1.0000 0.37110  0.37160  0.97400  Biso   1.000  H
  H104     1.0000 0.36990  0.47660  0.91920  Biso   1.000  H
  H105     1.0000 0.85520  0.12630  0.21200  Biso   1.000  H
  H106     1.0000 0.75790  0.12300  0.15320  Biso   1.000  H
  H107     1.0000 0.84090  0.37130  0.11970  Biso   1.000  H
  H108     1.0000 0.93580  0.36530  0.18120  Biso   1.000  H
  H109     1.0000 0.66790  0.11770  0.10400  Biso   1.000  H
  H110     1.0000 0.55400  0.12480  0.05200  Biso   1.000  H
  H111     1.0000 0.63700  0.36920  0.01590  Biso   1.000  H
  H112     1.0000 0.75200  0.36520  0.06840  Biso   1.000  H
  H113     1.0000 0.60130  0.91220  0.72650  Biso   1.000  H
  H114     1.0000 0.60730  0.02150  0.67200  Biso   1.000  H
  H115     1.0000 0.38620  0.90400  0.61790  Biso   1.000  H
  H116     1.0000 0.39250  0.80000  0.67130  Biso   1.000  H
  H117     1.0000 0.62900  0.08030  0.61020  Biso   1.000  H
  H118     1.0000 0.63260  0.18720  0.55480  Biso   1.000  H
  H119     1.0000 0.37110  0.12840  0.52600  Biso   1.000  H
  H120     1.0000 0.36990  0.02340  0.58080  Biso   1.000  H
  H121     1.0000 0.85520  0.37370  0.28800  Biso   1.000  H
  H122     1.0000 0.75790  0.37700  0.34680  Biso   1.000  H
  H123     1.0000 0.84090  0.12870  0.38030  Biso   1.000  H
  H124     1.0000 0.93580  0.13470  0.31880  Biso   1.000  H
  H125     1.0000 0.66790  0.38230  0.39600  Biso   1.000  H
  H126     1.0000 0.55400  0.37520  0.44800  Biso   1.000  H
  H127     1.0000 0.63700  0.13080  0.48410  Biso   1.000  H
  H128     1.0000 0.75200  0.13480  0.43160  Biso   1.000  H
  C91      1.0000 0.44180  0.91050  0.79657  Biso   1.000  C
  C92      1.0000 0.43780  0.97620  0.82885  Biso   1.000  C
  C93      1.0000 0.50330  0.97310  0.86286  Biso   1.000  C
  C94      1.0000 0.56690  0.90710  0.86077  Biso   1.000  C
  C95      1.0000 0.56330  0.84620  0.82849  Biso   1.000  C
  C96      1.0000 0.50390  0.04070  0.89818  Biso   1.000  C
  C97      1.0000 0.42400  0.09050  0.90692  Biso   1.000  C
  C98      1.0000 0.42150  0.15410  0.94006  Biso   1.000  C
  C99      1.0000 0.49860  0.16930  0.96586  Biso   1.000  C
  C100     1.0000 0.57550  0.11950  0.95703  Biso   1.000  C
  C101     1.0000 0.57600  0.05680  0.92393  Biso   1.000  C
  C102     1.0000 0.14770  0.32360  0.19300  Biso   1.000  C
  C103     1.0000 0.20580  0.32560  0.15820  Biso   1.000  C
  C104     1.0000 0.21230  0.25430  0.13032  Biso   1.000  C
  C105     1.0000 0.15790  0.17970  0.13810  Biso   1.000  C
  C106     1.0000 0.10120  0.18510  0.17500  Biso   1.000  C
  C107     1.0000 0.28060  0.25980  0.09281  Biso   1.000  C
  C108     1.0000 0.33840  0.33020  0.08657  Biso   1.000  C
  C109     1.0000 0.40550  0.32620  0.05527  Biso   1.000  C
  C110     1.0000 0.41540  0.25260  0.02839  Biso   1.000  C
  C111     1.0000 0.35670  0.18200  0.03398  Biso   1.000  C
  C112     1.0000 0.28870  0.18370  0.06531  Biso   1.000  C
  C113     1.0000 0.44180  0.58950  0.70343  Biso   1.000  C
  C114     1.0000 0.43780  0.52380  0.67115  Biso   1.000  C
  C115     1.0000 0.50330  0.52690  0.63714  Biso   1.000  C
  C116     1.0000 0.56690  0.59290  0.63923  Biso   1.000  C
  C117     1.0000 0.56330  0.65380  0.67151  Biso   1.000  C
  C118     1.0000 0.50390  0.45930  0.60182  Biso   1.000  C
  C119     1.0000 0.42400  0.40950  0.59308  Biso   1.000  C
  C120     1.0000 0.42150  0.34590  0.55994  Biso   1.000  C
  C121     1.0000 0.49860  0.33070  0.53414  Biso   1.000  C
  C122     1.0000 0.57550  0.38050  0.54297  Biso   1.000  C
  C123     1.0000 0.57600  0.44320  0.57607  Biso   1.000  C
  C124     1.0000 0.14770  0.17640  0.30700  Biso   1.000  C
  C125     1.0000 0.20580  0.17440  0.34180  Biso   1.000  C
  C126     1.0000 0.21230  0.24570  0.36968  Biso   1.000  C
  C127     1.0000 0.15790  0.32030  0.36190  Biso   1.000  C
  C128     1.0000 0.10120  0.31490  0.32500  Biso   1.000  C
  C129     1.0000 0.28060  0.24020  0.40719  Biso   1.000  C
  C130     1.0000 0.33840  0.16980  0.41343  Biso   1.000  C
  C131     1.0000 0.40550  0.17380  0.44473  Biso   1.000  C
  C132     1.0000 0.41540  0.24740  0.47161  Biso   1.000  C
  C133     1.0000 0.35670  0.31800  0.46602  Biso   1.000  C
  C134     1.0000 0.28870  0.31630  0.43469  Biso   1.000  C
  C135     1.0000 0.55820  0.58950  0.79657  Biso   1.000  C
  C136     1.0000 0.56220  0.52380  0.82885  Biso   1.000  C
  C137     1.0000 0.49670  0.52690  0.86286  Biso   1.000  C
  C138     1.0000 0.43310  0.59290  0.86077  Biso   1.000  C
  C139     1.0000 0.43670  0.65380  0.82849  Biso   1.000  C
  C140     1.0000 0.49610  0.45930  0.89818  Biso   1.000  C
  C141     1.0000 0.57600  0.40950  0.90692  Biso   1.000  C
  C142     1.0000 0.57850  0.34590  0.94006  Biso   1.000  C
  C143     1.0000 0.50140  0.33070  0.96586  Biso   1.000  C
  C144     1.0000 0.42450  0.38050  0.95703  Biso   1.000  C
  C145     1.0000 0.42400  0.44320  0.92393  Biso   1.000  C
  C146     1.0000 0.85230  0.17640  0.19300  Biso   1.000  C
  C147     1.0000 0.79420  0.17440  0.15820  Biso   1.000  C
  C148     1.0000 0.78770  0.24570  0.13032  Biso   1.000  C
  C149     1.0000 0.84210  0.32030  0.13810  Biso   1.000  C
  C150     1.0000 0.89880  0.31490  0.17500  Biso   1.000  C
  C151     1.0000 0.71940  0.24020  0.09281  Biso   1.000  C
  C152     1.0000 0.66160  0.16980  0.08657  Biso   1.000  C
  C153     1.0000 0.59450  0.17380  0.05527  Biso   1.000  C
  C154     1.0000 0.58460  0.24740  0.02839  Biso   1.000  C
  C155     1.0000 0.64330  0.31800  0.03398  Biso   1.000  C
  C156     1.0000 0.71130  0.31630  0.06531  Biso   1.000  C
  C157     1.0000 0.55820  0.91050  0.70343  Biso   1.000  C
  C158     1.0000 0.56220  0.97620  0.67115  Biso   1.000  C
  C159     1.0000 0.49670  0.97310  0.63714  Biso   1.000  C
  C160     1.0000 0.43310  0.90710  0.63923  Biso   1.000  C
  C161     1.0000 0.43670  0.84620  0.67151  Biso   1.000  C
  C162     1.0000 0.49610  0.04070  0.60182  Biso   1.000  C
  C163     1.0000 0.57600  0.09050  0.59308  Biso   1.000  C
  C164     1.0000 0.57850  0.15410  0.55994  Biso   1.000  C
  C165     1.0000 0.50140  0.16930  0.53414  Biso   1.000  C
  C166     1.0000 0.42450  0.11950  0.54297  Biso   1.000  C
  C167     1.0000 0.42400  0.05680  0.57607  Biso   1.000  C
  C168     1.0000 0.85230  0.32360  0.30700  Biso   1.000  C
  C169     1.0000 0.79420  0.32560  0.34180  Biso   1.000  C
  C170     1.0000 0.78770  0.25430  0.36968  Biso   1.000  C
  C171     1.0000 0.84210  0.17970  0.36190  Biso   1.000  C
  C172     1.0000 0.89880  0.18510  0.32500  Biso   1.000  C
  C173     1.0000 0.71940  0.25980  0.40719  Biso   1.000  C
  C174     1.0000 0.66160  0.33020  0.41343  Biso   1.000  C
  C175     1.0000 0.59450  0.32620  0.44473  Biso   1.000  C
  C176     1.0000 0.58460  0.25260  0.47161  Biso   1.000  C
  C177     1.0000 0.64330  0.18200  0.46602  Biso   1.000  C
  C178     1.0000 0.71130  0.18370  0.43469  Biso   1.000  C
  C179     1.0000 0.50000  0.25000  0.99697  Biso   1.000  C
  C180     1.0000 0.50000  0.25000  0.50303  Biso   1.000  C
  N9       1.0000 0.50340  0.84600  0.79685  Biso   1.000  N
  N10      1.0000 0.09460  0.25230  0.20119  Biso   1.000  N
  N11      1.0000 0.50340  0.65400  0.70315  Biso   1.000  N
  N12      1.0000 0.09460  0.24770  0.29881  Biso   1.000  N
  N13      1.0000 0.49660  0.65400  0.79685  Biso   1.000  N
  N14      1.0000 0.90540  0.24770  0.20119  Biso   1.000  N
  N15      1.0000 0.49660  0.84600  0.70315  Biso   1.000  N
  N16      1.0000 0.90540  0.25230  0.29881  Biso   1.000  N
