data_image0
_cell_length_a       13.705
_cell_length_b       10.7337
_cell_length_c       15.8778
_cell_angle_alpha    90
_cell_angle_beta     90
_cell_angle_gamma    90

_symmetry_space_group_name_H-M    "P 1"
_symmetry_int_tables_number       1

loop_
  _symmetry_equiv_pos_as_xyz
  'x, y, z'

loop_
  _atom_site_label
  _atom_site_occupancy
  _atom_site_fract_x
  _atom_site_fract_y
  _atom_site_fract_z
  _atom_site_thermal_displace_type
  _atom_site_B_iso_or_equiv
  _atom_site_type_symbol
  Zn1      1.0000 0.66276  0.65860  0.42976  Biso   1.000  Zn
  P1       1.0000 0.84021  0.86257  0.41648  Biso   1.000  P
  H1       1.0000 0.91230  0.86070  0.47020  Biso   1.000  H
  O1       1.0000 0.77470  0.76370  0.45010  Biso   1.000  O
  O2       1.0000 0.88320  0.82830  0.33320  Biso   1.000  O
  O3       1.0000 0.79260  0.98790  0.41640  Biso   1.000  O
  O4       1.0000 0.59180  0.67690  0.53570  Biso   1.000  O
  O5       1.0000 0.59100  0.71890  0.33340  Biso   1.000  O
  Zn2      1.0000 0.16276  0.15860  0.42976  Biso   1.000  Zn
  P2       1.0000 0.34021  0.36257  0.41648  Biso   1.000  P
  H2       1.0000 0.41230  0.36070  0.47020  Biso   1.000  H
  O6       1.0000 0.27470  0.26370  0.45010  Biso   1.000  O
  O7       1.0000 0.38320  0.32830  0.33320  Biso   1.000  O
  O8       1.0000 0.29260  0.48790  0.41640  Biso   1.000  O
  O9       1.0000 0.09180  0.17690  0.53570  Biso   1.000  O
  O10      1.0000 0.09100  0.21890  0.33340  Biso   1.000  O
  Zn3      1.0000 0.33724  0.34140  0.92976  Biso   1.000  Zn
  P3       1.0000 0.15979  0.13743  0.91648  Biso   1.000  P
  H3       1.0000 0.08770  0.13930  0.97020  Biso   1.000  H
  O11      1.0000 0.22530  0.23630  0.95010  Biso   1.000  O
  O12      1.0000 0.11680  0.17170  0.83320  Biso   1.000  O
  O13      1.0000 0.20740  0.01210  0.91640  Biso   1.000  O
  O14      1.0000 0.40820  0.32310  0.03570  Biso   1.000  O
  O15      1.0000 0.40900  0.28110  0.83340  Biso   1.000  O
  Zn4      1.0000 0.83724  0.84140  0.92976  Biso   1.000  Zn
  P4       1.0000 0.65979  0.63743  0.91648  Biso   1.000  P
  H4       1.0000 0.58770  0.63930  0.97020  Biso   1.000  H
  O16      1.0000 0.72530  0.73630  0.95010  Biso   1.000  O
  O17      1.0000 0.61680  0.67170  0.83320  Biso   1.000  O
  O18      1.0000 0.70740  0.51210  0.91640  Biso   1.000  O
  O19      1.0000 0.90820  0.82310  0.03570  Biso   1.000  O
  O20      1.0000 0.90900  0.78110  0.83340  Biso   1.000  O
  Zn5      1.0000 0.66276  0.34140  0.92976  Biso   1.000  Zn
  P5       1.0000 0.84021  0.13743  0.91648  Biso   1.000  P
  H5       1.0000 0.91230  0.13930  0.97020  Biso   1.000  H
  O21      1.0000 0.77470  0.23630  0.95010  Biso   1.000  O
  O22      1.0000 0.88320  0.17170  0.83320  Biso   1.000  O
  O23      1.0000 0.79260  0.01210  0.91640  Biso   1.000  O
  O24      1.0000 0.59180  0.32310  0.03570  Biso   1.000  O
  O25      1.0000 0.59100  0.28110  0.83340  Biso   1.000  O
  Zn6      1.0000 0.16276  0.84140  0.92976  Biso   1.000  Zn
  P6       1.0000 0.34021  0.63743  0.91648  Biso   1.000  P
  H6       1.0000 0.41230  0.63930  0.97020  Biso   1.000  H
  O26      1.0000 0.27470  0.73630  0.95010  Biso   1.000  O
  O27      1.0000 0.38320  0.67170  0.83320  Biso   1.000  O
  O28      1.0000 0.29260  0.51210  0.91640  Biso   1.000  O
  O29      1.0000 0.09180  0.82310  0.03570  Biso   1.000  O
  O30      1.0000 0.09100  0.78110  0.83340  Biso   1.000  O
  Zn7      1.0000 0.33724  0.65860  0.42976  Biso   1.000  Zn
  P7       1.0000 0.15979  0.86257  0.41648  Biso   1.000  P
  H7       1.0000 0.08770  0.86070  0.47020  Biso   1.000  H
  O31      1.0000 0.22530  0.76370  0.45010  Biso   1.000  O
  O32      1.0000 0.11680  0.82830  0.33320  Biso   1.000  O
  O33      1.0000 0.20740  0.98790  0.41640  Biso   1.000  O
  O34      1.0000 0.40820  0.67690  0.53570  Biso   1.000  O
  O35      1.0000 0.40900  0.71890  0.33340  Biso   1.000  O
  Zn8      1.0000 0.83724  0.15860  0.42976  Biso   1.000  Zn
  P8       1.0000 0.65979  0.36257  0.41648  Biso   1.000  P
  H8       1.0000 0.58770  0.36070  0.47020  Biso   1.000  H
  O36      1.0000 0.72530  0.26370  0.45010  Biso   1.000  O
  O37      1.0000 0.61680  0.32830  0.33320  Biso   1.000  O
  O38      1.0000 0.70740  0.48790  0.41640  Biso   1.000  O
  O39      1.0000 0.90820  0.17690  0.53570  Biso   1.000  O
  O40      1.0000 0.90900  0.21890  0.33340  Biso   1.000  O
  Zn9      1.0000 0.50000  0.38161  0.27572  Biso   1.000  Zn
  P9       1.0000 0.50000  0.64480  0.58089  Biso   1.000  P
  H9       1.0000 0.50000  0.52730  0.60110  Biso   1.000  H
  P10      1.0000 0.50000  0.68320  0.28837  Biso   1.000  P
  H10      1.0000 0.50000  0.74760  0.21910  Biso   1.000  H
  O41      1.0000 0.50000  0.70830  0.66680  Biso   1.000  O
  O42      1.0000 0.50000  0.55720  0.25140  Biso   1.000  O
  Zn10     1.0000 0.00000  0.88161  0.27572  Biso   1.000  Zn
  P11      1.0000 0.00000  0.14480  0.58089  Biso   1.000  P
  H11      1.0000 0.00000  0.02730  0.60110  Biso   1.000  H
  P12      1.0000 0.00000  0.18320  0.28837  Biso   1.000  P
  H12      1.0000 0.00000  0.24760  0.21910  Biso   1.000  H
  O43      1.0000 0.00000  0.20830  0.66680  Biso   1.000  O
  O44      1.0000 0.00000  0.05720  0.25140  Biso   1.000  O
  Zn11     1.0000 0.50000  0.61839  0.77572  Biso   1.000  Zn
  P13      1.0000 0.50000  0.35520  0.08089  Biso   1.000  P
  H13      1.0000 0.50000  0.47270  0.10110  Biso   1.000  H
  P14      1.0000 0.50000  0.31680  0.78837  Biso   1.000  P
  H14      1.0000 0.50000  0.25240  0.71910  Biso   1.000  H
  O45      1.0000 0.50000  0.29170  0.16680  Biso   1.000  O
  O46      1.0000 0.50000  0.44280  0.75140  Biso   1.000  O
  Zn12     1.0000 0.00000  0.11839  0.77572  Biso   1.000  Zn
  P15      1.0000 0.00000  0.85520  0.08089  Biso   1.000  P
  H15      1.0000 0.00000  0.97270  0.10110  Biso   1.000  H
  P16      1.0000 0.00000  0.81680  0.78837  Biso   1.000  P
  H16      1.0000 0.00000  0.75240  0.71910  Biso   1.000  H
  O47      1.0000 0.00000  0.79170  0.16680  Biso   1.000  O
  O48      1.0000 0.00000  0.94280  0.75140  Biso   1.000  O
