data_image0
_cell_length_a       11.038
_cell_length_b       11.249
_cell_length_c       16.132
_cell_angle_alpha    75.24
_cell_angle_beta     82.8
_cell_angle_gamma    75.26

_symmetry_space_group_name_H-M    "P 1"
_symmetry_int_tables_number       1

loop_
  _symmetry_equiv_pos_as_xyz
  'x, y, z'

loop_
  _atom_site_label
  _atom_site_occupancy
  _atom_site_fract_x
  _atom_site_fract_y
  _atom_site_fract_z
  _atom_site_thermal_displace_type
  _atom_site_B_iso_or_equiv
  _atom_site_type_symbol
  O1       1.0000 0.75850  0.15330  0.21760  Biso   1.000  O
  C1       1.0000 0.71620  0.25000  0.24610  Biso   1.000  C
  C2       1.0000 0.76220  0.36590  0.20000  Biso   1.000  C
  N1       1.0000 0.97500  0.45510  0.01460  Biso   1.000  N
  O2       1.0000 0.85160  0.93200  0.00760  Biso   1.000  O
  C3       1.0000 0.90490  0.92500  0.93480  Biso   1.000  C
  O3       1.0000 0.02070  0.92410  0.91540  Biso   1.000  O
  O4       1.0000 0.42470  0.00530  0.75870  Biso   1.000  O
  O5       1.0000 0.42900  0.98110  0.89780  Biso   1.000  O
  C4       1.0000 0.48640  0.97790  0.82590  Biso   1.000  C
  C5       1.0000 0.62560  0.93890  0.81650  Biso   1.000  C
  C6       1.0000 0.69830  0.94040  0.88120  Biso   1.000  C
  H1       1.0000 0.65986  0.95777  0.93284  Biso   1.000  H
  C7       1.0000 0.83010  0.91560  0.86750  Biso   1.000  C
  O6       1.0000 0.38800  0.88140  0.45980  Biso   1.000  O
  O7       1.0000 0.37940  0.81500  0.34350  Biso   1.000  O
  C8       1.0000 0.32730  0.84380  0.41210  Biso   1.000  C
  C9       1.0000 0.19480  0.83730  0.43790  Biso   1.000  C
  C10      1.0000 0.14670  0.83690  0.52100  Biso   1.000  C
  H2       1.0000 0.19905  0.83568  0.56229  Biso   1.000  H
  C11      1.0000 0.11720  0.83990  0.37660  Biso   1.000  C
  H3       1.0000 0.15014  0.83853  0.32078  Biso   1.000  H
  Sm1      1.0000 0.58754  0.83987  0.37340  Biso   1.000  Sm
  Sm2      1.0000 0.79283  0.00495  0.13442  Biso   1.000  Sm
  C12      1.0000 0.63180  0.31830  0.80940  Biso   1.000  C
  H4       1.0000 0.69593  0.36395  0.78718  Biso   1.000  H
  H5       1.0000 0.55114  0.37240  0.79480  Biso   1.000  H
  H6       1.0000 0.64620  0.24617  0.78494  Biso   1.000  H
  O8       1.0000 0.93520  0.90280  0.25090  Biso   1.000  O
  O9       1.0000 0.63830  0.80400  0.52600  Biso   1.000  O
  H7       1.0000 0.68348  0.72762  0.54377  Biso   1.000  H
  H8       1.0000 0.56970  0.81360  0.55932  Biso   1.000  H
  O10      1.0000 0.57900  0.04650  0.40200  Biso   1.000  O
  H9       1.0000 0.60688  0.09512  0.35696  Biso   1.000  H
  H10      1.0000 0.62464  0.03719  0.44416  Biso   1.000  H
  O11      1.0000 0.64090  0.71290  0.27350  Biso   1.000  O
  O12      1.0000 0.58310  0.62370  0.44520  Biso   1.000  O
  H11      1.0000 0.65792  0.57972  0.45660  Biso   1.000  H
  H12      1.0000 0.55271  0.59022  0.41253  Biso   1.000  H
  O13      1.0000 0.77590  0.79510  0.17470  Biso   1.000  O
  N2       1.0000 0.97840  0.84810  0.63040  Biso   1.000  N
  O14      1.0000 0.64180  0.25450  0.31050  Biso   1.000  O
  C13      1.0000 0.76610  0.58550  0.18500  Biso   1.000  C
  O15      1.0000 0.79710  0.83270  0.35400  Biso   1.000  O
  N3       1.0000 0.86200  0.85930  0.64540  Biso   1.000  N
  O16      1.0000 0.71700  0.19780  0.02970  Biso   1.000  O
  C14      1.0000 0.72490  0.70740  0.21290  Biso   1.000  C
  C15      1.0000 0.94020  0.84330  0.48080  Biso   1.000  C
  H13      1.0000 0.85548  0.84565  0.49492  Biso   1.000  H
  C16      1.0000 0.84520  0.36180  0.12950  Biso   1.000  C
  H14      1.0000 0.87254  0.28764  0.11016  Biso   1.000  H
  C17      1.0000 0.72180  0.47960  0.22810  Biso   1.000  C
  H15      1.0000 0.66524  0.48368  0.27574  Biso   1.000  H
  C18      1.0000 0.99100  0.84440  0.39710  Biso   1.000  C
  C19      1.0000 0.81400  0.87960  0.72850  Biso   1.000  C
  C20      1.0000 0.90100  0.86060  0.32790  Biso   1.000  C
  C21      1.0000 0.02090  0.83840  0.54380  Biso   1.000  C
  C22      1.0000 0.68530  0.90570  0.74160  Biso   1.000  C
  H16      1.0000 0.63731  0.90107  0.69955  Biso   1.000  H
  C23      1.0000 0.88910  0.47010  0.08640  Biso   1.000  C
  C24      1.0000 0.84870  0.58010  0.11250  Biso   1.000  C
  H17      1.0000 0.87597  0.65169  0.08207  Biso   1.000  H
  C25      1.0000 0.88740  0.88800  0.79180  Biso   1.000  C
  H18      1.0000 0.97409  0.87494  0.78217  Biso   1.000  H
  N4       1.0000 0.63480  0.27610  0.90330  Biso   1.000  N
  C26      1.0000 0.85120  0.24270  0.89650  Biso   1.000  C
  H19      1.0000 0.85843  0.20292  0.84948  Biso   1.000  H
  H20      1.0000 0.91835  0.19936  0.93345  Biso   1.000  H
  H21      1.0000 0.85567  0.32931  0.87470  Biso   1.000  H
  C27      1.0000 0.72110  0.23680  0.94900  Biso   1.000  C
  C28      1.0000 0.50400  0.26450  0.95210  Biso   1.000  C
  H22      1.0000 0.44919  0.34709  0.94635  Biso   1.000  H
  H23      1.0000 0.51559  0.22623  0.01187  Biso   1.000  H
  H24      1.0000 0.46743  0.21312  0.92799  Biso   1.000  H
  O17      1.0000 0.24150  0.84670  0.78240  Biso   1.000  O
  C29      1.0000 0.28380  0.75000  0.75390  Biso   1.000  C
  C30      1.0000 0.23780  0.63410  0.80000  Biso   1.000  C
  N5       1.0000 0.02500  0.54490  0.98540  Biso   1.000  N
  O18      1.0000 0.14840  0.06800  0.99240  Biso   1.000  O
  C31      1.0000 0.09510  0.07500  0.06520  Biso   1.000  C
  O19      1.0000 0.97930  0.07590  0.08460  Biso   1.000  O
  O20      1.0000 0.57530  0.99470  0.24130  Biso   1.000  O
  O21      1.0000 0.57100  0.01890  0.10220  Biso   1.000  O
  C32      1.0000 0.51360  0.02210  0.17410  Biso   1.000  C
  C33      1.0000 0.37440  0.06110  0.18350  Biso   1.000  C
  C34      1.0000 0.30170  0.05960  0.11880  Biso   1.000  C
  H25      1.0000 0.34014  0.04223  0.06716  Biso   1.000  H
  C35      1.0000 0.16990  0.08440  0.13250  Biso   1.000  C
  O22      1.0000 0.61200  0.11860  0.54020  Biso   1.000  O
  O23      1.0000 0.62060  0.18500  0.65650  Biso   1.000  O
  C36      1.0000 0.67270  0.15620  0.58790  Biso   1.000  C
  C37      1.0000 0.80520  0.16270  0.56210  Biso   1.000  C
  C38      1.0000 0.85330  0.16310  0.47900  Biso   1.000  C
  H26      1.0000 0.80095  0.16432  0.43771  Biso   1.000  H
  C39      1.0000 0.88280  0.16010  0.62340  Biso   1.000  C
  H27      1.0000 0.84986  0.16147  0.67922  Biso   1.000  H
  Sm3      1.0000 0.41246  0.16013  0.62660  Biso   1.000  Sm
  Sm4      1.0000 0.20717  0.99505  0.86558  Biso   1.000  Sm
  C40      1.0000 0.36820  0.68170  0.19060  Biso   1.000  C
  H28      1.0000 0.30407  0.63605  0.21282  Biso   1.000  H
  H29      1.0000 0.44886  0.62760  0.20520  Biso   1.000  H
  H30      1.0000 0.35380  0.75383  0.21506  Biso   1.000  H
  O24      1.0000 0.06480  0.09720  0.74910  Biso   1.000  O
  O25      1.0000 0.36170  0.19600  0.47400  Biso   1.000  O
  H31      1.0000 0.31652  0.27238  0.45623  Biso   1.000  H
  H32      1.0000 0.43030  0.18640  0.44068  Biso   1.000  H
  O26      1.0000 0.42100  0.95350  0.59800  Biso   1.000  O
  H33      1.0000 0.39312  0.90488  0.64304  Biso   1.000  H
  H34      1.0000 0.37536  0.96281  0.55584  Biso   1.000  H
  O27      1.0000 0.35910  0.28710  0.72650  Biso   1.000  O
  O28      1.0000 0.41690  0.37630  0.55480  Biso   1.000  O
  H35      1.0000 0.34208  0.42028  0.54340  Biso   1.000  H
  H36      1.0000 0.44729  0.40978  0.58747  Biso   1.000  H
  O29      1.0000 0.22410  0.20490  0.82530  Biso   1.000  O
  N6       1.0000 0.02160  0.15190  0.36960  Biso   1.000  N
  O30      1.0000 0.35820  0.74550  0.68950  Biso   1.000  O
  C41      1.0000 0.23390  0.41450  0.81500  Biso   1.000  C
  O31      1.0000 0.20290  0.16730  0.64600  Biso   1.000  O
  N7       1.0000 0.13800  0.14070  0.35460  Biso   1.000  N
  O32      1.0000 0.28300  0.80220  0.97030  Biso   1.000  O
  C42      1.0000 0.27510  0.29260  0.78710  Biso   1.000  C
  C43      1.0000 0.05980  0.15670  0.51920  Biso   1.000  C
  H37      1.0000 0.14452  0.15435  0.50508  Biso   1.000  H
  C44      1.0000 0.15480  0.63820  0.87050  Biso   1.000  C
  H38      1.0000 0.12746  0.71236  0.88984  Biso   1.000  H
  C45      1.0000 0.27820  0.52040  0.77190  Biso   1.000  C
  H39      1.0000 0.33476  0.51632  0.72426  Biso   1.000  H
  C46      1.0000 0.00900  0.15560  0.60290  Biso   1.000  C
  C47      1.0000 0.18600  0.12040  0.27150  Biso   1.000  C
  C48      1.0000 0.09900  0.13940  0.67210  Biso   1.000  C
  C49      1.0000 0.97910  0.16160  0.45620  Biso   1.000  C
  C50      1.0000 0.31470  0.09430  0.25840  Biso   1.000  C
  H40      1.0000 0.36269  0.09893  0.30045  Biso   1.000  H
  C51      1.0000 0.11090  0.52990  0.91360  Biso   1.000  C
  C52      1.0000 0.15130  0.41990  0.88750  Biso   1.000  C
  H41      1.0000 0.12403  0.34831  0.91793  Biso   1.000  H
  C53      1.0000 0.11260  0.11200  0.20820  Biso   1.000  C
  H42      1.0000 0.02591  0.12506  0.21783  Biso   1.000  H
  N8       1.0000 0.36520  0.72390  0.09670  Biso   1.000  N
  C54      1.0000 0.14880  0.75730  0.10350  Biso   1.000  C
  H43      1.0000 0.14157  0.79708  0.15052  Biso   1.000  H
  H44      1.0000 0.08165  0.80064  0.06655  Biso   1.000  H
  H45      1.0000 0.14433  0.67069  0.12530  Biso   1.000  H
  C55      1.0000 0.27890  0.76320  0.05100  Biso   1.000  C
  C56      1.0000 0.49600  0.73550  0.04790  Biso   1.000  C
  H46      1.0000 0.55081  0.65291  0.05365  Biso   1.000  H
  H47      1.0000 0.48441  0.77377  0.98813  Biso   1.000  H
  H48      1.0000 0.53257  0.78688  0.07201  Biso   1.000  H
