data_image0
_cell_length_a       14.8173
_cell_length_b       14.8173
_cell_length_c       14.8173
_cell_angle_alpha    90
_cell_angle_beta     90
_cell_angle_gamma    90

_symmetry_space_group_name_H-M    "P 1"
_symmetry_int_tables_number       1

loop_
  _symmetry_equiv_pos_as_xyz
  'x, y, z'

loop_
  _atom_site_label
  _atom_site_occupancy
  _atom_site_fract_x
  _atom_site_fract_y
  _atom_site_fract_z
  _atom_site_thermal_displace_type
  _atom_site_B_iso_or_equiv
  _atom_site_type_symbol
  Ca1      1.0000 0.25000  0.00000  0.50000  Biso   1.000  Ca
  Ca2      1.0000 0.75000  0.00000  0.50000  Biso   1.000  Ca
  Ca3      1.0000 0.25000  0.50000  0.00000  Biso   1.000  Ca
  Ca4      1.0000 0.50000  0.25000  0.00000  Biso   1.000  Ca
  Ca5      1.0000 0.50000  0.75000  0.00000  Biso   1.000  Ca
  Ca6      1.0000 0.00000  0.50000  0.25000  Biso   1.000  Ca
  Ca7      1.0000 0.00000  0.50000  0.75000  Biso   1.000  Ca
  Ca8      1.0000 0.50000  0.00000  0.25000  Biso   1.000  Ca
  Ca9      1.0000 0.00000  0.25000  0.50000  Biso   1.000  Ca
  Ca10     1.0000 0.00000  0.75000  0.50000  Biso   1.000  Ca
  Ca11     1.0000 0.75000  0.50000  0.00000  Biso   1.000  Ca
  Ca12     1.0000 0.50000  0.00000  0.75000  Biso   1.000  Ca
  C1       1.0000 0.31900  0.00000  0.31900  Biso   1.000  C
  O1       1.0000 0.38030  0.00000  0.38030  Biso   1.000  O
  C2       1.0000 0.81900  0.50000  0.81900  Biso   1.000  C
  O2       1.0000 0.88030  0.50000  0.88030  Biso   1.000  O
  C3       1.0000 0.68100  0.00000  0.31900  Biso   1.000  C
  O3       1.0000 0.61970  0.00000  0.38030  Biso   1.000  O
  C4       1.0000 0.18100  0.50000  0.81900  Biso   1.000  C
  O4       1.0000 0.11970  0.50000  0.88030  Biso   1.000  O
  C5       1.0000 0.68100  0.00000  0.68100  Biso   1.000  C
  O5       1.0000 0.61970  0.00000  0.61970  Biso   1.000  O
  C6       1.0000 0.18100  0.50000  0.18100  Biso   1.000  C
  O6       1.0000 0.11970  0.50000  0.11970  Biso   1.000  O
  C7       1.0000 0.31900  0.00000  0.68100  Biso   1.000  C
  O7       1.0000 0.38030  0.00000  0.61970  Biso   1.000  O
  C8       1.0000 0.81900  0.50000  0.18100  Biso   1.000  C
  O8       1.0000 0.88030  0.50000  0.11970  Biso   1.000  O
  C9       1.0000 0.31900  0.31900  0.00000  Biso   1.000  C
  O9       1.0000 0.38030  0.38030  0.00000  Biso   1.000  O
  C10      1.0000 0.81900  0.81900  0.50000  Biso   1.000  C
  O10      1.0000 0.88030  0.88030  0.50000  Biso   1.000  O
  C11      1.0000 0.31900  0.68100  0.00000  Biso   1.000  C
  O11      1.0000 0.38030  0.61970  0.00000  Biso   1.000  O
  C12      1.0000 0.81900  0.18100  0.50000  Biso   1.000  C
  O12      1.0000 0.88030  0.11970  0.50000  Biso   1.000  O
  C13      1.0000 0.68100  0.68100  0.00000  Biso   1.000  C
  O13      1.0000 0.61970  0.61970  0.00000  Biso   1.000  O
  C14      1.0000 0.18100  0.18100  0.50000  Biso   1.000  C
  O14      1.0000 0.11970  0.11970  0.50000  Biso   1.000  O
  C15      1.0000 0.68100  0.31900  0.00000  Biso   1.000  C
  O15      1.0000 0.61970  0.38030  0.00000  Biso   1.000  O
  C16      1.0000 0.18100  0.81900  0.50000  Biso   1.000  C
  O16      1.0000 0.11970  0.88030  0.50000  Biso   1.000  O
  C17      1.0000 0.00000  0.31900  0.31900  Biso   1.000  C
  O17      1.0000 0.00000  0.38030  0.38030  Biso   1.000  O
  C18      1.0000 0.50000  0.81900  0.81900  Biso   1.000  C
  O18      1.0000 0.50000  0.88030  0.88030  Biso   1.000  O
  C19      1.0000 0.00000  0.31900  0.68100  Biso   1.000  C
  O19      1.0000 0.00000  0.38030  0.61970  Biso   1.000  O
  C20      1.0000 0.50000  0.81900  0.18100  Biso   1.000  C
  O20      1.0000 0.50000  0.88030  0.11970  Biso   1.000  O
  C21      1.0000 0.00000  0.68100  0.68100  Biso   1.000  C
  O21      1.0000 0.00000  0.61970  0.61970  Biso   1.000  O
  C22      1.0000 0.50000  0.18100  0.18100  Biso   1.000  C
  O22      1.0000 0.50000  0.11970  0.11970  Biso   1.000  O
  C23      1.0000 0.00000  0.68100  0.31900  Biso   1.000  C
  O23      1.0000 0.00000  0.61970  0.38030  Biso   1.000  O
  C24      1.0000 0.50000  0.18100  0.81900  Biso   1.000  C
  O24      1.0000 0.50000  0.11970  0.88030  Biso   1.000  O
  O25      1.0000 0.23560  0.00000  0.34220  Biso   1.000  O
  O26      1.0000 0.73560  0.50000  0.84220  Biso   1.000  O
  O27      1.0000 0.76440  0.00000  0.34220  Biso   1.000  O
  O28      1.0000 0.26440  0.50000  0.84220  Biso   1.000  O
  O29      1.0000 0.76440  0.00000  0.65780  Biso   1.000  O
  O30      1.0000 0.26440  0.50000  0.15780  Biso   1.000  O
  O31      1.0000 0.23560  0.00000  0.65780  Biso   1.000  O
  O32      1.0000 0.73560  0.50000  0.15780  Biso   1.000  O
  O33      1.0000 0.34220  0.23560  0.00000  Biso   1.000  O
  O34      1.0000 0.84220  0.73560  0.50000  Biso   1.000  O
  O35      1.0000 0.34220  0.76440  0.00000  Biso   1.000  O
  O36      1.0000 0.84220  0.26440  0.50000  Biso   1.000  O
  O37      1.0000 0.65780  0.76440  0.00000  Biso   1.000  O
  O38      1.0000 0.15780  0.26440  0.50000  Biso   1.000  O
  O39      1.0000 0.65780  0.23560  0.00000  Biso   1.000  O
  O40      1.0000 0.15780  0.73560  0.50000  Biso   1.000  O
  O41      1.0000 0.00000  0.34220  0.23560  Biso   1.000  O
  O42      1.0000 0.50000  0.84220  0.73560  Biso   1.000  O
  O43      1.0000 0.00000  0.34220  0.76440  Biso   1.000  O
  O44      1.0000 0.50000  0.84220  0.26440  Biso   1.000  O
  O45      1.0000 0.00000  0.65780  0.76440  Biso   1.000  O
  O46      1.0000 0.50000  0.15780  0.26440  Biso   1.000  O
  O47      1.0000 0.00000  0.65780  0.23560  Biso   1.000  O
  O48      1.0000 0.50000  0.15780  0.73560  Biso   1.000  O
  O49      1.0000 0.00000  0.23560  0.65780  Biso   1.000  O
  O50      1.0000 0.50000  0.73560  0.15780  Biso   1.000  O
  O51      1.0000 0.00000  0.76440  0.65780  Biso   1.000  O
  O52      1.0000 0.50000  0.26440  0.15780  Biso   1.000  O
  O53      1.0000 0.00000  0.76440  0.34220  Biso   1.000  O
  O54      1.0000 0.50000  0.26440  0.84220  Biso   1.000  O
  O55      1.0000 0.00000  0.23560  0.34220  Biso   1.000  O
  O56      1.0000 0.50000  0.73560  0.84220  Biso   1.000  O
  O57      1.0000 0.23560  0.34220  0.00000  Biso   1.000  O
  O58      1.0000 0.73560  0.84220  0.50000  Biso   1.000  O
  O59      1.0000 0.76440  0.34220  0.00000  Biso   1.000  O
  O60      1.0000 0.26440  0.84220  0.50000  Biso   1.000  O
  O61      1.0000 0.76440  0.65780  0.00000  Biso   1.000  O
  O62      1.0000 0.26440  0.15780  0.50000  Biso   1.000  O
  O63      1.0000 0.23560  0.65780  0.00000  Biso   1.000  O
  O64      1.0000 0.73560  0.15780  0.50000  Biso   1.000  O
  O65      1.0000 0.34220  0.00000  0.76440  Biso   1.000  O
  O66      1.0000 0.84220  0.50000  0.26440  Biso   1.000  O
  O67      1.0000 0.34220  0.00000  0.23560  Biso   1.000  O
  O68      1.0000 0.84220  0.50000  0.73560  Biso   1.000  O
  O69      1.0000 0.65780  0.00000  0.23560  Biso   1.000  O
  O70      1.0000 0.15780  0.50000  0.73560  Biso   1.000  O
  O71      1.0000 0.65780  0.00000  0.76440  Biso   1.000  O
  O72      1.0000 0.15780  0.50000  0.26440  Biso   1.000  O
  K1       1.0000 0.00000  0.00000  0.43750  Biso   1.000  K
  O73      1.0000 0.00000  0.00000  0.36100  Biso   1.000  O
  K2       1.0000 0.50000  0.50000  0.93750  Biso   1.000  K
  O74      1.0000 0.50000  0.50000  0.86100  Biso   1.000  O
  K3       1.0000 0.00000  0.00000  0.56250  Biso   1.000  K
  O75      1.0000 0.00000  0.00000  0.63900  Biso   1.000  O
  K4       1.0000 0.50000  0.50000  0.06250  Biso   1.000  K
  O76      1.0000 0.50000  0.50000  0.13900  Biso   1.000  O
  K5       1.0000 0.43750  0.00000  0.00000  Biso   1.000  K
  O77      1.0000 0.36100  0.00000  0.00000  Biso   1.000  O
  K6       1.0000 0.93750  0.50000  0.50000  Biso   1.000  K
  O78      1.0000 0.86100  0.50000  0.50000  Biso   1.000  O
  K7       1.0000 0.56250  0.00000  0.00000  Biso   1.000  K
  O79      1.0000 0.63900  0.00000  0.00000  Biso   1.000  O
  K8       1.0000 0.06250  0.50000  0.50000  Biso   1.000  K
  O80      1.0000 0.13900  0.50000  0.50000  Biso   1.000  O
  K9       1.0000 0.00000  0.43750  0.00000  Biso   1.000  K
  O81      1.0000 0.00000  0.36100  0.00000  Biso   1.000  O
  K10      1.0000 0.50000  0.93750  0.50000  Biso   1.000  K
  O82      1.0000 0.50000  0.86100  0.50000  Biso   1.000  O
  K11      1.0000 0.00000  0.56250  0.00000  Biso   1.000  K
  O83      1.0000 0.00000  0.63900  0.00000  Biso   1.000  O
  K12      1.0000 0.50000  0.06250  0.50000  Biso   1.000  K
  O84      1.0000 0.50000  0.13900  0.50000  Biso   1.000  O
