data_image0
_cell_length_a       8.46817
_cell_length_b       15.2744
_cell_length_c       15.2744
_cell_angle_alpha    85.593
_cell_angle_beta     73.9068
_cell_angle_gamma    73.9068

_symmetry_space_group_name_H-M    P 1
_symmetry_int_tables_number       1

loop_
  _symmetry_equiv_pos_as_xyz
  'x, y, z'

loop_
  _atom_site_label
  _atom_site_occupancy
  _atom_site_fract_x
  _atom_site_fract_y
  _atom_site_fract_z
  _atom_site_thermal_displace_type
  _atom_site_B_iso_or_equiv
  _atom_site_type_symbol
  Co1      1.0000 0.40407  0.96053  0.94981  Biso   1.000  Co
  Co2      1.0000 0.81441  0.53947  0.55019  Biso   1.000  Co
  Co3      1.0000 0.35388  0.05019  0.46053  Biso   1.000  Co
  Co4      1.0000 0.36460  0.44981  0.03947  Biso   1.000  Co
  Co5      1.0000 0.59593  0.03947  0.05019  Biso   1.000  Co
  Co6      1.0000 0.18559  0.46053  0.44981  Biso   1.000  Co
  Co7      1.0000 0.64612  0.94981  0.53947  Biso   1.000  Co
  Co8      1.0000 0.63540  0.55019  0.96053  Biso   1.000  Co
  Co9      1.0000 0.00000  0.00000  0.00000  Biso   1.000  Co
  Co10     1.0000 0.50000  0.50000  0.50000  Biso   1.000  Co
  Co11     1.0000 0.00000  0.00000  0.50000  Biso   1.000  Co
  Co12     1.0000 0.00000  0.50000  0.00000  Biso   1.000  Co
  H1       1.0000 0.93340  0.97560  0.19320  Biso   1.000  H
  H2       1.0000 0.86400  0.97950  0.34110  Biso   1.000  H
  H3       1.0000 0.54230  0.07810  0.25290  Biso   1.000  H
  H4       1.0000 0.60220  0.52440  0.30680  Biso   1.000  H
  H5       1.0000 0.68460  0.52050  0.15890  Biso   1.000  H
  H6       1.0000 0.37330  0.42190  0.24710  Biso   1.000  H
  H7       1.0000 0.12660  0.80680  0.47560  Biso   1.000  H
  H8       1.0000 0.20510  0.65890  0.47950  Biso   1.000  H
  H9       1.0000 0.79520  0.74710  0.57810  Biso   1.000  H
  H10      1.0000 0.90900  0.69320  0.02440  Biso   1.000  H
  H11      1.0000 0.84350  0.84110  0.02050  Biso   1.000  H
  H12      1.0000 0.62040  0.75290  0.92190  Biso   1.000  H
  H13      1.0000 0.06660  0.02440  0.80680  Biso   1.000  H
  H14      1.0000 0.13600  0.02050  0.65890  Biso   1.000  H
  H15      1.0000 0.45770  0.92190  0.74710  Biso   1.000  H
  H16      1.0000 0.39780  0.47560  0.69320  Biso   1.000  H
  H17      1.0000 0.31540  0.47950  0.84110  Biso   1.000  H
  H18      1.0000 0.62670  0.57810  0.75290  Biso   1.000  H
  H19      1.0000 0.87340  0.19320  0.52440  Biso   1.000  H
  H20      1.0000 0.79490  0.34110  0.52050  Biso   1.000  H
  H21      1.0000 0.20480  0.25290  0.42190  Biso   1.000  H
  H22      1.0000 0.09100  0.30680  0.97560  Biso   1.000  H
  H23      1.0000 0.15650  0.15890  0.97950  Biso   1.000  H
  H24      1.0000 0.37960  0.24710  0.07810  Biso   1.000  H
  C1       1.0000 0.96690  0.99070  0.30850  Biso   1.000  C
  C2       1.0000 0.20930  0.02600  0.30020  Biso   1.000  C
  C3       1.0000 0.26110  0.02190  0.20470  Biso   1.000  C
  C4       1.0000 0.15680  0.99910  0.15850  Biso   1.000  C
  C5       1.0000 0.44560  0.06080  0.25240  Biso   1.000  C
  C6       1.0000 0.76610  0.50930  0.19150  Biso   1.000  C
  C7       1.0000 0.03550  0.47400  0.19980  Biso   1.000  C
  C8       1.0000 0.98770  0.47810  0.29530  Biso   1.000  C
  C9       1.0000 0.81440  0.50090  0.34150  Biso   1.000  C
  C10      1.0000 0.25880  0.43920  0.24760  Biso   1.000  C
  C11      1.0000 0.27540  0.69150  0.49070  Biso   1.000  C
  C12      1.0000 0.50950  0.69980  0.52600  Biso   1.000  C
  C13      1.0000 0.46580  0.79530  0.52190  Biso   1.000  C
  C14      1.0000 0.31530  0.84150  0.49910  Biso   1.000  C
  C15      1.0000 0.69800  0.74760  0.56080  Biso   1.000  C
  C16      1.0000 0.95760  0.80850  0.00930  Biso   1.000  C
  C17      1.0000 0.23530  0.80020  0.97400  Biso   1.000  C
  C18      1.0000 0.28300  0.70470  0.97810  Biso   1.000  C
  C19      1.0000 0.15590  0.65850  0.00090  Biso   1.000  C
  C20      1.0000 0.50640  0.75240  0.93920  Biso   1.000  C
  C21      1.0000 0.03310  0.00930  0.69150  Biso   1.000  C
  C22      1.0000 0.79070  0.97400  0.69980  Biso   1.000  C
  C23      1.0000 0.73890  0.97810  0.79530  Biso   1.000  C
  C24      1.0000 0.84320  0.00090  0.84150  Biso   1.000  C
  C25      1.0000 0.55440  0.93920  0.74760  Biso   1.000  C
  C26      1.0000 0.23390  0.49070  0.80850  Biso   1.000  C
  C27      1.0000 0.96450  0.52600  0.80020  Biso   1.000  C
  C28      1.0000 0.01230  0.52190  0.70470  Biso   1.000  C
  C29      1.0000 0.18560  0.49910  0.65850  Biso   1.000  C
  C30      1.0000 0.74120  0.56080  0.75240  Biso   1.000  C
  C31      1.0000 0.72460  0.30850  0.50930  Biso   1.000  C
  C32      1.0000 0.49050  0.30020  0.47400  Biso   1.000  C
  C33      1.0000 0.53420  0.20470  0.47810  Biso   1.000  C
  C34      1.0000 0.68470  0.15850  0.50090  Biso   1.000  C
  C35      1.0000 0.30200  0.25240  0.43920  Biso   1.000  C
  C36      1.0000 0.04240  0.19150  0.99070  Biso   1.000  C
  C37      1.0000 0.76470  0.19980  0.02600  Biso   1.000  C
  C38      1.0000 0.71700  0.29530  0.02190  Biso   1.000  C
  C39      1.0000 0.84410  0.34150  0.99910  Biso   1.000  C
  C40      1.0000 0.49360  0.24760  0.06080  Biso   1.000  C
  N1       1.0000 0.00650  0.98660  0.21720  Biso   1.000  N
  N2       1.0000 0.06200  0.00920  0.35460  Biso   1.000  N
  N3       1.0000 0.41430  0.04510  0.17550  Biso   1.000  N
  N4       1.0000 0.32780  0.05000  0.33020  Biso   1.000  N
  N5       1.0000 0.71030  0.51340  0.28280  Biso   1.000  N
  N6       1.0000 0.92580  0.49080  0.14540  Biso   1.000  N
  N7       1.0000 0.13490  0.45490  0.32450  Biso   1.000  N
  N8       1.0000 0.20800  0.45000  0.16980  Biso   1.000  N
  N9       1.0000 0.22370  0.78280  0.48660  Biso   1.000  N
  N10      1.0000 0.41660  0.64540  0.50920  Biso   1.000  N
  N11      1.0000 0.58980  0.82450  0.54510  Biso   1.000  N
  N12      1.0000 0.65800  0.66980  0.55000  Biso   1.000  N
  N13      1.0000 0.99310  0.71720  0.01340  Biso   1.000  N
  N14      1.0000 0.07120  0.85460  0.99080  Biso   1.000  N
  N15      1.0000 0.45940  0.67550  0.95490  Biso   1.000  N
  N16      1.0000 0.37780  0.83020  0.95000  Biso   1.000  N
  N17      1.0000 0.99350  0.01340  0.78280  Biso   1.000  N
  N18      1.0000 0.93800  0.99080  0.64540  Biso   1.000  N
  N19      1.0000 0.58570  0.95490  0.82450  Biso   1.000  N
  N20      1.0000 0.67220  0.95000  0.66980  Biso   1.000  N
  N21      1.0000 0.28970  0.48660  0.71720  Biso   1.000  N
  N22      1.0000 0.07420  0.50920  0.85460  Biso   1.000  N
  N23      1.0000 0.86510  0.54510  0.67550  Biso   1.000  N
  N24      1.0000 0.79200  0.55000  0.83020  Biso   1.000  N
  N25      1.0000 0.77630  0.21720  0.51340  Biso   1.000  N
  N26      1.0000 0.58340  0.35460  0.49080  Biso   1.000  N
  N27      1.0000 0.41020  0.17550  0.45490  Biso   1.000  N
  N28      1.0000 0.34200  0.33020  0.45000  Biso   1.000  N
  N29      1.0000 0.00690  0.28280  0.98660  Biso   1.000  N
  N30      1.0000 0.92880  0.14540  0.00920  Biso   1.000  N
  N31      1.0000 0.54060  0.32450  0.04510  Biso   1.000  N
  N32      1.0000 0.62220  0.16980  0.05000  Biso   1.000  N
  O1       1.0000 0.42550  0.08360  0.97380  Biso   1.000  O
  O2       1.0000 0.20000  0.00800  0.89440  Biso   1.000  O
  O3       1.0000 0.18200  0.99070  0.07310  Biso   1.000  O
  O4       1.0000 0.98290  0.41640  0.52620  Biso   1.000  O
  O5       1.0000 0.60240  0.49200  0.60560  Biso   1.000  O
  O6       1.0000 0.74580  0.50930  0.42690  Biso   1.000  O
  O7       1.0000 0.39930  0.02620  0.58360  Biso   1.000  O
  O8       1.0000 0.09440  0.10560  0.50800  Biso   1.000  O
  O9       1.0000 0.25510  0.92690  0.49070  Biso   1.000  O
  O10      1.0000 0.50910  0.47380  0.91640  Biso   1.000  O
  O11      1.0000 0.20800  0.39440  0.99200  Biso   1.000  O
  O12      1.0000 0.17270  0.57310  0.00930  Biso   1.000  O
  O13      1.0000 0.57450  0.91640  0.02620  Biso   1.000  O
  O14      1.0000 0.80000  0.99200  0.10560  Biso   1.000  O
  O15      1.0000 0.81800  0.00930  0.92690  Biso   1.000  O
  O16      1.0000 0.01710  0.58360  0.47380  Biso   1.000  O
  O17      1.0000 0.39760  0.50800  0.39440  Biso   1.000  O
  O18      1.0000 0.25420  0.49070  0.57310  Biso   1.000  O
  O19      1.0000 0.60070  0.97380  0.41640  Biso   1.000  O
  O20      1.0000 0.90560  0.89440  0.49200  Biso   1.000  O
  O21      1.0000 0.74490  0.07310  0.50930  Biso   1.000  O
  O22      1.0000 0.49090  0.52620  0.08360  Biso   1.000  O
  O23      1.0000 0.79200  0.60560  0.00800  Biso   1.000  O
  O24      1.0000 0.82730  0.42690  0.99070  Biso   1.000  O
