data_image0
_cell_length_a       8.4495
_cell_length_b       15.2609
_cell_length_c       15.2609
_cell_angle_alpha    85.6047
_cell_angle_beta     73.9286
_cell_angle_gamma    73.9285

_symmetry_space_group_name_H-M    P 1
_symmetry_int_tables_number       1

loop_
  _symmetry_equiv_pos_as_xyz
  'x, y, z'

loop_
  _atom_site_label
  _atom_site_occupancy
  _atom_site_fract_x
  _atom_site_fract_y
  _atom_site_fract_z
  _atom_site_thermal_displace_type
  _atom_site_B_iso_or_equiv
  _atom_site_type_symbol
  Co1      1.0000 0.90404  0.94983  0.96034  Biso   1.000  Co
  Co2      1.0000 0.31422  0.55017  0.53966  Biso   1.000  Co
  Co3      1.0000 0.86439  0.03966  0.44982  Biso   1.000  Co
  Co4      1.0000 0.85387  0.46034  0.05018  Biso   1.000  Co
  Co5      1.0000 0.09596  0.05017  0.03966  Biso   1.000  Co
  Co6      1.0000 0.68578  0.44983  0.46034  Biso   1.000  Co
  Co7      1.0000 0.13561  0.96034  0.55018  Biso   1.000  Co
  Co8      1.0000 0.14613  0.53966  0.94982  Biso   1.000  Co
  Co9      1.0000 0.50000  0.00000  0.00000  Biso   1.000  Co
  Co10     1.0000 0.00000  0.50000  0.50000  Biso   1.000  Co
  Co11     1.0000 0.50000  0.00000  0.50000  Biso   1.000  Co
  Co12     1.0000 0.50000  0.50000  0.00000  Biso   1.000  Co
  H1       1.0000 0.56720  0.80780  0.02500  Biso   1.000  H
  H2       1.0000 0.95730  0.74730  0.92250  Biso   1.000  H
  H3       1.0000 0.63590  0.65810  0.02350  Biso   1.000  H
  H4       1.0000 0.90000  0.69220  0.47500  Biso   1.000  H
  H5       1.0000 0.12710  0.75270  0.57750  Biso   1.000  H
  H6       1.0000 0.81750  0.84190  0.47650  Biso   1.000  H
  H7       1.0000 0.59220  0.97500  0.30780  Biso   1.000  H
  H8       1.0000 0.87980  0.07750  0.24730  Biso   1.000  H
  H9       1.0000 0.65940  0.97650  0.15810  Biso   1.000  H
  H10      1.0000 0.37500  0.52500  0.19220  Biso   1.000  H
  H11      1.0000 0.70460  0.42250  0.25270  Biso   1.000  H
  H12      1.0000 0.29400  0.52350  0.34190  Biso   1.000  H
  H13      1.0000 0.43280  0.19220  0.97500  Biso   1.000  H
  H14      1.0000 0.04270  0.25270  0.07750  Biso   1.000  H
  H15      1.0000 0.36410  0.34190  0.97650  Biso   1.000  H
  H16      1.0000 0.10000  0.30780  0.52500  Biso   1.000  H
  H17      1.0000 0.87290  0.24730  0.42250  Biso   1.000  H
  H18      1.0000 0.18250  0.15810  0.52350  Biso   1.000  H
  H19      1.0000 0.40780  0.02500  0.69220  Biso   1.000  H
  H20      1.0000 0.12020  0.92250  0.75270  Biso   1.000  H
  H21      1.0000 0.34060  0.02350  0.84190  Biso   1.000  H
  H22      1.0000 0.62500  0.47500  0.80780  Biso   1.000  H
  H23      1.0000 0.29540  0.57750  0.74730  Biso   1.000  H
  H24      1.0000 0.70600  0.47650  0.65810  Biso   1.000  H
  C1       1.0000 0.34359  0.84243  0.00059  Biso   1.000  C
  C2       1.0000 0.24026  0.79532  0.97676  Biso   1.000  C
  C3       1.0000 0.05482  0.74767  0.93929  Biso   1.000  C
  C4       1.0000 0.29105  0.69928  0.97322  Biso   1.000  C
  C5       1.0000 0.53446  0.69099  0.01069  Biso   1.000  C
  C6       1.0000 0.68661  0.65757  0.49941  Biso   1.000  C
  C7       1.0000 0.51234  0.70468  0.52324  Biso   1.000  C
  C8       1.0000 0.24178  0.75233  0.56071  Biso   1.000  C
  C9       1.0000 0.46355  0.80072  0.52678  Biso   1.000  C
  C10      1.0000 0.73614  0.80901  0.48931  Biso   1.000  C
  C11      1.0000 0.34418  0.99941  0.34243  Biso   1.000  C
  C12      1.0000 0.21702  0.02324  0.29532  Biso   1.000  C
  C13      1.0000 0.99411  0.06071  0.24767  Biso   1.000  C
  C14      1.0000 0.26427  0.02678  0.19928  Biso   1.000  C
  C15      1.0000 0.54515  0.98931  0.19099  Biso   1.000  C
  C16      1.0000 0.18602  0.50059  0.15757  Biso   1.000  C
  C17      1.0000 0.03558  0.47676  0.20468  Biso   1.000  C
  C18      1.0000 0.80249  0.43929  0.25233  Biso   1.000  C
  C19      1.0000 0.99033  0.47322  0.30072  Biso   1.000  C
  C20      1.0000 0.22545  0.51069  0.30901  Biso   1.000  C
  C21      1.0000 0.65641  0.15757  0.99941  Biso   1.000  C
  C22      1.0000 0.75974  0.20468  0.02324  Biso   1.000  C
  C23      1.0000 0.94518  0.25233  0.06071  Biso   1.000  C
  C24      1.0000 0.70895  0.30072  0.02678  Biso   1.000  C
  C25      1.0000 0.46554  0.30901  0.98931  Biso   1.000  C
  C26      1.0000 0.31339  0.34243  0.50059  Biso   1.000  C
  C27      1.0000 0.48766  0.29532  0.47676  Biso   1.000  C
  C28      1.0000 0.75822  0.24767  0.43929  Biso   1.000  C
  C29      1.0000 0.53645  0.19928  0.47322  Biso   1.000  C
  C30      1.0000 0.26386  0.19099  0.51069  Biso   1.000  C
  C31      1.0000 0.65582  0.00059  0.65757  Biso   1.000  C
  C32      1.0000 0.78298  0.97676  0.70468  Biso   1.000  C
  C33      1.0000 0.00589  0.93929  0.75233  Biso   1.000  C
  C34      1.0000 0.73573  0.97322  0.80072  Biso   1.000  C
  C35      1.0000 0.45485  0.01069  0.80901  Biso   1.000  C
  C36      1.0000 0.81398  0.49941  0.84243  Biso   1.000  C
  C37      1.0000 0.96442  0.52324  0.79532  Biso   1.000  C
  C38      1.0000 0.19751  0.56071  0.74767  Biso   1.000  C
  C39      1.0000 0.00967  0.52678  0.69928  Biso   1.000  C
  C40      1.0000 0.77455  0.48931  0.69099  Biso   1.000  C
  N1       1.0000 0.08805  0.82464  0.95446  Biso   1.000  N
  N2       1.0000 0.17264  0.66980  0.94992  Biso   1.000  N
  N3       1.0000 0.43888  0.64567  0.99077  Biso   1.000  N
  N4       1.0000 0.49411  0.78367  0.01391  Biso   1.000  N
  N5       1.0000 0.36715  0.67536  0.54554  Biso   1.000  N
  N6       1.0000 0.29236  0.83020  0.55008  Biso   1.000  N
  N7       1.0000 0.57532  0.85433  0.50923  Biso   1.000  N
  N8       1.0000 0.79169  0.71633  0.48609  Biso   1.000  N
  N9       1.0000 0.04251  0.04554  0.32464  Biso   1.000  N
  N10      1.0000 0.12256  0.05008  0.16980  Biso   1.000  N
  N11      1.0000 0.42965  0.00923  0.14567  Biso   1.000  N
  N12      1.0000 0.50802  0.98609  0.28367  Biso   1.000  N
  N13      1.0000 0.91269  0.45446  0.17536  Biso   1.000  N
  N14      1.0000 0.84244  0.44992  0.33020  Biso   1.000  N
  N15      1.0000 0.08455  0.49077  0.35433  Biso   1.000  N
  N16      1.0000 0.27778  0.51391  0.21633  Biso   1.000  N
  N17      1.0000 0.91195  0.17536  0.04554  Biso   1.000  N
  N18      1.0000 0.82736  0.33020  0.05008  Biso   1.000  N
  N19      1.0000 0.56112  0.35433  0.00923  Biso   1.000  N
  N20      1.0000 0.50589  0.21633  0.98609  Biso   1.000  N
  N21      1.0000 0.63285  0.32464  0.45446  Biso   1.000  N
  N22      1.0000 0.70764  0.16980  0.44992  Biso   1.000  N
  N23      1.0000 0.42468  0.14567  0.49077  Biso   1.000  N
  N24      1.0000 0.20831  0.28367  0.51391  Biso   1.000  N
  N25      1.0000 0.95749  0.95446  0.67536  Biso   1.000  N
  N26      1.0000 0.87744  0.94992  0.83020  Biso   1.000  N
  N27      1.0000 0.57035  0.99077  0.85433  Biso   1.000  N
  N28      1.0000 0.49198  0.01391  0.71633  Biso   1.000  N
  N29      1.0000 0.08731  0.54554  0.82464  Biso   1.000  N
  N30      1.0000 0.15756  0.55008  0.66980  Biso   1.000  N
  N31      1.0000 0.91545  0.50923  0.64567  Biso   1.000  N
  N32      1.0000 0.72222  0.48609  0.78367  Biso   1.000  N
  O1       1.0000 0.69928  0.89428  0.00736  Biso   1.000  O
  O2       1.0000 0.31934  0.92647  0.00945  Biso   1.000  O
  O3       1.0000 0.92528  0.97341  0.08423  Biso   1.000  O
  O4       1.0000 0.10092  0.60572  0.49264  Biso   1.000  O
  O5       1.0000 0.75526  0.57353  0.49055  Biso   1.000  O
  O6       1.0000 0.48292  0.52659  0.41577  Biso   1.000  O
  O7       1.0000 0.70664  0.99264  0.39428  Biso   1.000  O
  O8       1.0000 0.32879  0.99055  0.42647  Biso   1.000  O
  O9       1.0000 0.00951  0.91577  0.47341  Biso   1.000  O
  O10      1.0000 0.59356  0.50736  0.10572  Biso   1.000  O
  O11      1.0000 0.24581  0.50945  0.07353  Biso   1.000  O
  O12      1.0000 0.89869  0.58423  0.02659  Biso   1.000  O
  O13      1.0000 0.30072  0.10572  0.99264  Biso   1.000  O
  O14      1.0000 0.68066  0.07353  0.99055  Biso   1.000  O
  O15      1.0000 0.07472  0.02659  0.91577  Biso   1.000  O
  O16      1.0000 0.89908  0.39428  0.50736  Biso   1.000  O
  O17      1.0000 0.24474  0.42647  0.50945  Biso   1.000  O
  O18      1.0000 0.51708  0.47341  0.58423  Biso   1.000  O
  O19      1.0000 0.29336  0.00736  0.60572  Biso   1.000  O
  O20      1.0000 0.67121  0.00945  0.57353  Biso   1.000  O
  O21      1.0000 0.99049  0.08423  0.52659  Biso   1.000  O
  O22      1.0000 0.40644  0.49264  0.89428  Biso   1.000  O
  O23      1.0000 0.75419  0.49055  0.92647  Biso   1.000  O
  O24      1.0000 0.10131  0.41577  0.97341  Biso   1.000  O
