data_image0
_cell_length_a       14.444
_cell_length_b       12.5254
_cell_length_c       13.3074
_cell_angle_alpha    90
_cell_angle_beta     90
_cell_angle_gamma    90

_symmetry_space_group_name_H-M    "P 1"
_symmetry_int_tables_number       1

loop_
  _symmetry_equiv_pos_as_xyz
  'x, y, z'

loop_
  _atom_site_label
  _atom_site_occupancy
  _atom_site_fract_x
  _atom_site_fract_y
  _atom_site_fract_z
  _atom_site_thermal_displace_type
  _atom_site_B_iso_or_equiv
  _atom_site_type_symbol
  Cu1      1.0000 0.44843  0.53144  0.06814  Biso   1.000  Cu
  Cu2      1.0000 0.38202  0.14404  0.02119  Biso   1.000  Cu
  N1       1.0000 0.42930  0.28810  0.01940  Biso   1.000  N
  N2       1.0000 0.32230  0.58740  0.05000  Biso   1.000  N
  C1       1.0000 0.45740  0.37350  0.01350  Biso   1.000  C
  C2       1.0000 0.24600  0.61210  0.04040  Biso   1.000  C
  C3       1.0000 0.47340  0.03440  0.00300  Biso   1.000  C
  N3       1.0000 0.02660  0.53440  0.00300  Biso   1.000  N
  C4       1.0000 0.48810  0.53490  0.20970  Biso   1.000  C
  Cu3      1.0000 0.05157  0.96856  0.56814  Biso   1.000  Cu
  Cu4      1.0000 0.11798  0.35596  0.52119  Biso   1.000  Cu
  N4       1.0000 0.07070  0.21190  0.51940  Biso   1.000  N
  N5       1.0000 0.17770  0.91260  0.55000  Biso   1.000  N
  C5       1.0000 0.04260  0.12650  0.51350  Biso   1.000  C
  C6       1.0000 0.25400  0.88790  0.54040  Biso   1.000  C
  C7       1.0000 0.02660  0.46560  0.50300  Biso   1.000  C
  N6       1.0000 0.47340  0.96560  0.50300  Biso   1.000  N
  C8       1.0000 0.01190  0.96510  0.70970  Biso   1.000  C
  Cu5      1.0000 0.55157  0.53144  0.43186  Biso   1.000  Cu
  Cu6      1.0000 0.61798  0.14404  0.47881  Biso   1.000  Cu
  N7       1.0000 0.57070  0.28810  0.48060  Biso   1.000  N
  N8       1.0000 0.67770  0.58740  0.45000  Biso   1.000  N
  C9       1.0000 0.54260  0.37350  0.48650  Biso   1.000  C
  C10      1.0000 0.75400  0.61210  0.45960  Biso   1.000  C
  C11      1.0000 0.52660  0.03440  0.49700  Biso   1.000  C
  N9       1.0000 0.97340  0.53440  0.49700  Biso   1.000  N
  C12      1.0000 0.51190  0.53490  0.29030  Biso   1.000  C
  Cu7      1.0000 0.94843  0.96856  0.93186  Biso   1.000  Cu
  Cu8      1.0000 0.88202  0.35596  0.97881  Biso   1.000  Cu
  N10      1.0000 0.92930  0.21190  0.98060  Biso   1.000  N
  N11      1.0000 0.82230  0.91260  0.95000  Biso   1.000  N
  C13      1.0000 0.95740  0.12650  0.98650  Biso   1.000  C
  C14      1.0000 0.74600  0.88790  0.95960  Biso   1.000  C
  C15      1.0000 0.97340  0.46560  0.99700  Biso   1.000  C
  N12      1.0000 0.52660  0.96560  0.99700  Biso   1.000  N
  C16      1.0000 0.98810  0.96510  0.79030  Biso   1.000  C
  Cu9      1.0000 0.55157  0.46856  0.93186  Biso   1.000  Cu
  Cu10     1.0000 0.61798  0.85596  0.97881  Biso   1.000  Cu
  N13      1.0000 0.57070  0.71190  0.98060  Biso   1.000  N
  N14      1.0000 0.67770  0.41260  0.95000  Biso   1.000  N
  C17      1.0000 0.54260  0.62650  0.98650  Biso   1.000  C
  C18      1.0000 0.75400  0.38790  0.95960  Biso   1.000  C
  C19      1.0000 0.51190  0.46510  0.79030  Biso   1.000  C
  Cu11     1.0000 0.94843  0.03144  0.43186  Biso   1.000  Cu
  Cu12     1.0000 0.88202  0.64404  0.47881  Biso   1.000  Cu
  N15      1.0000 0.92930  0.78810  0.48060  Biso   1.000  N
  N16      1.0000 0.82230  0.08740  0.45000  Biso   1.000  N
  C20      1.0000 0.95740  0.87350  0.48650  Biso   1.000  C
  C21      1.0000 0.74600  0.11210  0.45960  Biso   1.000  C
  C22      1.0000 0.98810  0.03490  0.29030  Biso   1.000  C
  Cu13     1.0000 0.44843  0.46856  0.56814  Biso   1.000  Cu
  Cu14     1.0000 0.38202  0.85596  0.52119  Biso   1.000  Cu
  N17      1.0000 0.42930  0.71190  0.51940  Biso   1.000  N
  N18      1.0000 0.32230  0.41260  0.55000  Biso   1.000  N
  C23      1.0000 0.45740  0.62650  0.51350  Biso   1.000  C
  C24      1.0000 0.24600  0.38790  0.54040  Biso   1.000  C
  C25      1.0000 0.48810  0.46510  0.70970  Biso   1.000  C
  Cu15     1.0000 0.05157  0.03144  0.06814  Biso   1.000  Cu
  Cu16     1.0000 0.11798  0.64404  0.02119  Biso   1.000  Cu
  N19      1.0000 0.07070  0.78810  0.01940  Biso   1.000  N
  N20      1.0000 0.17770  0.08740  0.05000  Biso   1.000  N
  C26      1.0000 0.04260  0.87350  0.01350  Biso   1.000  C
  C27      1.0000 0.25400  0.11210  0.04040  Biso   1.000  C
  C28      1.0000 0.01190  0.03490  0.20970  Biso   1.000  C
