data_image0
_cell_length_a       9.9481
_cell_length_b       9.9421
_cell_length_c       12.5953
_cell_angle_alpha    90
_cell_angle_beta     81.61
_cell_angle_gamma    90

_symmetry_space_group_name_H-M    "P 1"
_symmetry_int_tables_number       1

loop_
  _symmetry_equiv_pos_as_xyz
  'x, y, z'

loop_
  _atom_site_label
  _atom_site_occupancy
  _atom_site_fract_x
  _atom_site_fract_y
  _atom_site_fract_z
  _atom_site_thermal_displace_type
  _atom_site_B_iso_or_equiv
  _atom_site_type_symbol
  C1       1.0000 0.33819  0.25004  0.57163  Biso   1.000  C
  C2       1.0000 0.24332  0.34724  0.57506  Biso   1.000  C
  N1       1.0000 0.34599  0.15166  0.49652  Biso   1.000  N
  H1       1.0000 0.39711  0.25007  0.61948  Biso   1.000  H
  H2       1.0000 0.23885  0.41221  0.62521  Biso   1.000  H
  C3       1.0000 0.71363  0.19978  0.40901  Biso   1.000  C
  C4       1.0000 0.81032  0.29537  0.40397  Biso   1.000  C
  N2       1.0000 0.65217  0.15329  0.50510  Biso   1.000  N
  H3       1.0000 0.68933  0.16622  0.34822  Biso   1.000  H
  H4       1.0000 0.85062  0.32568  0.33981  Biso   1.000  H
  F1       1.0000 0.46994  0.00686  0.66261  Biso   1.000  F
  C5       1.0000 0.83819  0.75004  0.57163  Biso   1.000  C
  C6       1.0000 0.74332  0.84724  0.57506  Biso   1.000  C
  N3       1.0000 0.84599  0.65166  0.49652  Biso   1.000  N
  H5       1.0000 0.89711  0.75007  0.61948  Biso   1.000  H
  H6       1.0000 0.73885  0.91221  0.62521  Biso   1.000  H
  C7       1.0000 0.21363  0.69978  0.40901  Biso   1.000  C
  C8       1.0000 0.31032  0.79537  0.40397  Biso   1.000  C
  N4       1.0000 0.15217  0.65329  0.50510  Biso   1.000  N
  H7       1.0000 0.18933  0.66622  0.34822  Biso   1.000  H
  H8       1.0000 0.35062  0.82568  0.33981  Biso   1.000  H
  F2       1.0000 0.96994  0.50686  0.66261  Biso   1.000  F
  C9       1.0000 0.66181  0.25004  0.92837  Biso   1.000  C
  C10      1.0000 0.75668  0.34724  0.92494  Biso   1.000  C
  N5       1.0000 0.65401  0.15166  0.00348  Biso   1.000  N
  H9       1.0000 0.60289  0.25007  0.88052  Biso   1.000  H
  H10      1.0000 0.76115  0.41221  0.87479  Biso   1.000  H
  C11      1.0000 0.28637  0.19978  0.09099  Biso   1.000  C
  C12      1.0000 0.18968  0.29537  0.09603  Biso   1.000  C
  N6       1.0000 0.34783  0.15329  0.99490  Biso   1.000  N
  H11      1.0000 0.31067  0.16622  0.15178  Biso   1.000  H
  H12      1.0000 0.14938  0.32568  0.16019  Biso   1.000  H
  F3       1.0000 0.53006  0.00686  0.83739  Biso   1.000  F
  C13      1.0000 0.16181  0.75004  0.92837  Biso   1.000  C
  C14      1.0000 0.25668  0.84724  0.92494  Biso   1.000  C
  N7       1.0000 0.15401  0.65166  0.00348  Biso   1.000  N
  H13      1.0000 0.10289  0.75007  0.88052  Biso   1.000  H
  H14      1.0000 0.26115  0.91221  0.87479  Biso   1.000  H
  C15      1.0000 0.78637  0.69978  0.09099  Biso   1.000  C
  C16      1.0000 0.68968  0.79537  0.09603  Biso   1.000  C
  N8       1.0000 0.84783  0.65329  0.99490  Biso   1.000  N
  H15      1.0000 0.81067  0.66622  0.15178  Biso   1.000  H
  H16      1.0000 0.64938  0.82568  0.16019  Biso   1.000  H
  F4       1.0000 0.03006  0.50686  0.83739  Biso   1.000  F
  C17      1.0000 0.66181  0.74996  0.42837  Biso   1.000  C
  C18      1.0000 0.75668  0.65276  0.42494  Biso   1.000  C
  N9       1.0000 0.65401  0.84834  0.50348  Biso   1.000  N
  H17      1.0000 0.60289  0.74993  0.38052  Biso   1.000  H
  H18      1.0000 0.76115  0.58779  0.37479  Biso   1.000  H
  C19      1.0000 0.28637  0.80022  0.59099  Biso   1.000  C
  C20      1.0000 0.18968  0.70463  0.59603  Biso   1.000  C
  N10      1.0000 0.34783  0.84671  0.49490  Biso   1.000  N
  H19      1.0000 0.31067  0.83378  0.65178  Biso   1.000  H
  H20      1.0000 0.14938  0.67432  0.66019  Biso   1.000  H
  F5       1.0000 0.53006  0.99314  0.33739  Biso   1.000  F
  C21      1.0000 0.16181  0.24996  0.42837  Biso   1.000  C
  C22      1.0000 0.25668  0.15276  0.42494  Biso   1.000  C
  N11      1.0000 0.15401  0.34834  0.50348  Biso   1.000  N
  H21      1.0000 0.10289  0.24993  0.38052  Biso   1.000  H
  H22      1.0000 0.26115  0.08779  0.37479  Biso   1.000  H
  C23      1.0000 0.78637  0.30022  0.59099  Biso   1.000  C
  C24      1.0000 0.68968  0.20463  0.59603  Biso   1.000  C
  N12      1.0000 0.84783  0.34671  0.49490  Biso   1.000  N
  H23      1.0000 0.81067  0.33378  0.65178  Biso   1.000  H
  H24      1.0000 0.64938  0.17432  0.66019  Biso   1.000  H
  F6       1.0000 0.03006  0.49314  0.33739  Biso   1.000  F
  C25      1.0000 0.33819  0.74996  0.07163  Biso   1.000  C
  C26      1.0000 0.24332  0.65276  0.07506  Biso   1.000  C
  N13      1.0000 0.34599  0.84834  0.99652  Biso   1.000  N
  H25      1.0000 0.39711  0.74993  0.11948  Biso   1.000  H
  H26      1.0000 0.23885  0.58779  0.12521  Biso   1.000  H
  C27      1.0000 0.71363  0.80022  0.90901  Biso   1.000  C
  C28      1.0000 0.81032  0.70463  0.90397  Biso   1.000  C
  N14      1.0000 0.65217  0.84671  0.00510  Biso   1.000  N
  H27      1.0000 0.68933  0.83378  0.84822  Biso   1.000  H
  H28      1.0000 0.85062  0.67432  0.83981  Biso   1.000  H
  F7       1.0000 0.46994  0.99314  0.16261  Biso   1.000  F
  C29      1.0000 0.83819  0.24996  0.07163  Biso   1.000  C
  C30      1.0000 0.74332  0.15276  0.07506  Biso   1.000  C
  N15      1.0000 0.84599  0.34834  0.99652  Biso   1.000  N
  H29      1.0000 0.89711  0.24993  0.11948  Biso   1.000  H
  H30      1.0000 0.73885  0.08779  0.12521  Biso   1.000  H
  C31      1.0000 0.21363  0.30022  0.90901  Biso   1.000  C
  C32      1.0000 0.31032  0.20463  0.90397  Biso   1.000  C
  N16      1.0000 0.15217  0.34671  0.00510  Biso   1.000  N
  H31      1.0000 0.18933  0.33378  0.84822  Biso   1.000  H
  H32      1.0000 0.35062  0.17432  0.83981  Biso   1.000  H
  F8       1.0000 0.96994  0.49314  0.16261  Biso   1.000  F
  Ni1      1.0000 0.50000  0.00000  0.50000  Biso   1.000  Ni
  Ni2      1.0000 0.00000  0.50000  0.50000  Biso   1.000  Ni
  Ni3      1.0000 0.50000  0.00000  0.00000  Biso   1.000  Ni
  Ni4      1.0000 0.00000  0.50000  0.00000  Biso   1.000  Ni
  H33      1.0000 0.50000  0.00775  0.75000  Biso   1.000  H
  H34      1.0000 0.00000  0.50775  0.75000  Biso   1.000  H
  H35      1.0000 0.50000  0.99225  0.25000  Biso   1.000  H
  H36      1.0000 0.00000  0.49225  0.25000  Biso   1.000  H
