data_image0
_cell_length_a       14.207
_cell_length_b       14.564
_cell_length_c       26.22
_cell_angle_alpha    90
_cell_angle_beta     90
_cell_angle_gamma    107.08

_symmetry_space_group_name_H-M    P 1
_symmetry_int_tables_number       1

loop_
  _symmetry_equiv_pos_as_xyz
  'x, y, z'

loop_
  _atom_site_label
  _atom_site_occupancy
  _atom_site_fract_x
  _atom_site_fract_y
  _atom_site_fract_z
  _atom_site_thermal_displace_type
  _atom_site_B_iso_or_equiv
  _atom_site_type_symbol
  Cu1      1.0000 0.56376  0.43549  0.79726  Biso   1.000  Cu
  Cu2      1.0000 0.41098  0.97273  0.47975  Biso   1.000  Cu
  Cu3      1.0000 0.93624  0.56451  0.29726  Biso   1.000  Cu
  Cu4      1.0000 0.08902  0.02727  0.97975  Biso   1.000  Cu
  Cu5      1.0000 0.43624  0.56451  0.20274  Biso   1.000  Cu
  Cu6      1.0000 0.58902  0.02727  0.52025  Biso   1.000  Cu
  Cu7      1.0000 0.06376  0.43549  0.70274  Biso   1.000  Cu
  Cu8      1.0000 0.91098  0.97273  0.02025  Biso   1.000  Cu
  H1       1.0000 0.74060  0.53520  0.73860  Biso   1.000  H
  H2       1.0000 0.78550  0.64170  0.66720  Biso   1.000  H
  H3       1.0000 0.66120  0.68280  0.62330  Biso   1.000  H
  H4       1.0000 0.46870  0.55290  0.73100  Biso   1.000  H
  H5       1.0000 0.56680  0.77940  0.61420  Biso   1.000  H
  H6       1.0000 0.28090  0.74230  0.58240  Biso   1.000  H
  H7       1.0000 0.35540  0.55120  0.67420  Biso   1.000  H
  H8       1.0000 0.42470  0.26090  0.85250  Biso   1.000  H
  H9       1.0000 0.43870  0.11840  0.88710  Biso   1.000  H
  H10      1.0000 0.59090  0.09550  0.89610  Biso   1.000  H
  H11      1.0000 0.71060  0.35660  0.83140  Biso   1.000  H
  H12      1.0000 0.76540  0.12610  0.92430  Biso   1.000  H
  H13      1.0000 0.03650  0.20190  0.85860  Biso   1.000  H
  H14      1.0000 0.81670  0.29140  0.79760  Biso   1.000  H
  H15      1.0000 0.75940  0.46480  0.23860  Biso   1.000  H
  H16      1.0000 0.71450  0.35830  0.16720  Biso   1.000  H
  H17      1.0000 0.83880  0.31720  0.12330  Biso   1.000  H
  H18      1.0000 0.03130  0.44710  0.23100  Biso   1.000  H
  H19      1.0000 0.93320  0.22060  0.11420  Biso   1.000  H
  H20      1.0000 0.21910  0.25770  0.08240  Biso   1.000  H
  H21      1.0000 0.14460  0.44880  0.17420  Biso   1.000  H
  H22      1.0000 0.07530  0.73910  0.35250  Biso   1.000  H
  H23      1.0000 0.06130  0.88160  0.38710  Biso   1.000  H
  H24      1.0000 0.90910  0.90450  0.39610  Biso   1.000  H
  H25      1.0000 0.78940  0.64340  0.33140  Biso   1.000  H
  H26      1.0000 0.73460  0.87390  0.42430  Biso   1.000  H
  H27      1.0000 0.46350  0.79810  0.35860  Biso   1.000  H
  H28      1.0000 0.68330  0.70860  0.29760  Biso   1.000  H
  H29      1.0000 0.25940  0.46480  0.26140  Biso   1.000  H
  H30      1.0000 0.21450  0.35830  0.33280  Biso   1.000  H
  H31      1.0000 0.33880  0.31720  0.37670  Biso   1.000  H
  H32      1.0000 0.53130  0.44710  0.26900  Biso   1.000  H
  H33      1.0000 0.43320  0.22060  0.38580  Biso   1.000  H
  H34      1.0000 0.71910  0.25770  0.41760  Biso   1.000  H
  H35      1.0000 0.64460  0.44880  0.32580  Biso   1.000  H
  H36      1.0000 0.57530  0.73910  0.14750  Biso   1.000  H
  H37      1.0000 0.56130  0.88160  0.11290  Biso   1.000  H
  H38      1.0000 0.40910  0.90450  0.10390  Biso   1.000  H
  H39      1.0000 0.28940  0.64340  0.16860  Biso   1.000  H
  H40      1.0000 0.23460  0.87390  0.07570  Biso   1.000  H
  H41      1.0000 0.96350  0.79810  0.14140  Biso   1.000  H
  H42      1.0000 0.18330  0.70860  0.20240  Biso   1.000  H
  H43      1.0000 0.24060  0.53520  0.76140  Biso   1.000  H
  H44      1.0000 0.28550  0.64170  0.83280  Biso   1.000  H
  H45      1.0000 0.16120  0.68280  0.87670  Biso   1.000  H
  H46      1.0000 0.96870  0.55290  0.76900  Biso   1.000  H
  H47      1.0000 0.06680  0.77940  0.88580  Biso   1.000  H
  H48      1.0000 0.78090  0.74230  0.91760  Biso   1.000  H
  H49      1.0000 0.85540  0.55120  0.82580  Biso   1.000  H
  H50      1.0000 0.92470  0.26090  0.64750  Biso   1.000  H
  H51      1.0000 0.93870  0.11840  0.61290  Biso   1.000  H
  H52      1.0000 0.09090  0.09550  0.60390  Biso   1.000  H
  H53      1.0000 0.21060  0.35660  0.66860  Biso   1.000  H
  H54      1.0000 0.26540  0.12610  0.57570  Biso   1.000  H
  H55      1.0000 0.53650  0.20190  0.64140  Biso   1.000  H
  H56      1.0000 0.31670  0.29140  0.70240  Biso   1.000  H
  C1       1.0000 0.69290  0.55880  0.72210  Biso   1.000  C
  C2       1.0000 0.71930  0.62030  0.67880  Biso   1.000  C
  C3       1.0000 0.64650  0.64770  0.65430  Biso   1.000  C
  C4       1.0000 0.55190  0.62500  0.67390  Biso   1.000  C
  C5       1.0000 0.53290  0.56870  0.71660  Biso   1.000  C
  C6       1.0000 0.47160  0.65460  0.64900  Biso   1.000  C
  C7       1.0000 0.49980  0.74240  0.61740  Biso   1.000  C
  C8       1.0000 0.42620  0.76930  0.59250  Biso   1.000  C
  C9       1.0000 0.33020  0.72070  0.59870  Biso   1.000  C
  C10      1.0000 0.30250  0.63470  0.63050  Biso   1.000  C
  C11      1.0000 0.37390  0.60720  0.65350  Biso   1.000  C
  C12      1.0000 0.19480  0.58320  0.63800  Biso   1.000  C
  C13      1.0000 0.45190  0.85630  0.55790  Biso   1.000  C
  C14      1.0000 0.48720  0.25020  0.85550  Biso   1.000  C
  C15      1.0000 0.49580  0.16660  0.87590  Biso   1.000  C
  C16      1.0000 0.58590  0.15260  0.88030  Biso   1.000  C
  C17      1.0000 0.67380  0.22130  0.86170  Biso   1.000  C
  C18      1.0000 0.65580  0.30580  0.84260  Biso   1.000  C
  C19      1.0000 0.77120  0.21220  0.86220  Biso   1.000  C
  C20      1.0000 0.80810  0.15940  0.89800  Biso   1.000  C
  C21      1.0000 0.90070  0.15380  0.89680  Biso   1.000  C
  C22      1.0000 0.97000  0.20310  0.85910  Biso   1.000  C
  C23      1.0000 0.93110  0.25410  0.82240  Biso   1.000  C
  C24      1.0000 0.83850  0.25730  0.82370  Biso   1.000  C
  C25      1.0000 0.94250  0.09560  0.93500  Biso   1.000  C
  C26      1.0000 0.00870  0.31140  0.78190  Biso   1.000  C
  C27      1.0000 0.80710  0.44120  0.22210  Biso   1.000  C
  C28      1.0000 0.78070  0.37970  0.17880  Biso   1.000  C
  C29      1.0000 0.85350  0.35230  0.15430  Biso   1.000  C
  C30      1.0000 0.94810  0.37500  0.17390  Biso   1.000  C
  C31      1.0000 0.96710  0.43130  0.21660  Biso   1.000  C
  C32      1.0000 0.02840  0.34540  0.14900  Biso   1.000  C
  C33      1.0000 0.00020  0.25760  0.11740  Biso   1.000  C
  C34      1.0000 0.07380  0.23070  0.09250  Biso   1.000  C
  C35      1.0000 0.16980  0.27930  0.09870  Biso   1.000  C
  C36      1.0000 0.19750  0.36530  0.13050  Biso   1.000  C
  C37      1.0000 0.12610  0.39280  0.15350  Biso   1.000  C
  C38      1.0000 0.30520  0.41680  0.13800  Biso   1.000  C
  C39      1.0000 0.04810  0.14370  0.05790  Biso   1.000  C
  C40      1.0000 0.01280  0.74980  0.35550  Biso   1.000  C
  C41      1.0000 0.00420  0.83340  0.37590  Biso   1.000  C
  C42      1.0000 0.91410  0.84740  0.38030  Biso   1.000  C
  C43      1.0000 0.82620  0.77870  0.36170  Biso   1.000  C
  C44      1.0000 0.84420  0.69420  0.34260  Biso   1.000  C
  C45      1.0000 0.72880  0.78780  0.36220  Biso   1.000  C
  C46      1.0000 0.69190  0.84060  0.39800  Biso   1.000  C
  C47      1.0000 0.59930  0.84620  0.39680  Biso   1.000  C
  C48      1.0000 0.53000  0.79690  0.35910  Biso   1.000  C
  C49      1.0000 0.56890  0.74590  0.32240  Biso   1.000  C
  C50      1.0000 0.66150  0.74270  0.32370  Biso   1.000  C
  C51      1.0000 0.55750  0.90440  0.43500  Biso   1.000  C
  C52      1.0000 0.49130  0.68860  0.28190  Biso   1.000  C
  C53      1.0000 0.30710  0.44120  0.27790  Biso   1.000  C
  C54      1.0000 0.28070  0.37970  0.32120  Biso   1.000  C
  C55      1.0000 0.35350  0.35230  0.34570  Biso   1.000  C
  C56      1.0000 0.44810  0.37500  0.32610  Biso   1.000  C
  C57      1.0000 0.46710  0.43130  0.28340  Biso   1.000  C
  C58      1.0000 0.52840  0.34540  0.35100  Biso   1.000  C
  C59      1.0000 0.50020  0.25760  0.38260  Biso   1.000  C
  C60      1.0000 0.57380  0.23070  0.40750  Biso   1.000  C
  C61      1.0000 0.66980  0.27930  0.40130  Biso   1.000  C
  C62      1.0000 0.69750  0.36530  0.36950  Biso   1.000  C
  C63      1.0000 0.62610  0.39280  0.34650  Biso   1.000  C
  C64      1.0000 0.80520  0.41680  0.36200  Biso   1.000  C
  C65      1.0000 0.54810  0.14370  0.44210  Biso   1.000  C
  C66      1.0000 0.51280  0.74980  0.14450  Biso   1.000  C
  C67      1.0000 0.50420  0.83340  0.12410  Biso   1.000  C
  C68      1.0000 0.41410  0.84740  0.11970  Biso   1.000  C
  C69      1.0000 0.32620  0.77870  0.13830  Biso   1.000  C
  C70      1.0000 0.34420  0.69420  0.15740  Biso   1.000  C
  C71      1.0000 0.22880  0.78780  0.13780  Biso   1.000  C
  C72      1.0000 0.19190  0.84060  0.10200  Biso   1.000  C
  C73      1.0000 0.09930  0.84620  0.10320  Biso   1.000  C
  C74      1.0000 0.03000  0.79690  0.14090  Biso   1.000  C
  C75      1.0000 0.06890  0.74590  0.17760  Biso   1.000  C
  C76      1.0000 0.16150  0.74270  0.17630  Biso   1.000  C
  C77      1.0000 0.05750  0.90440  0.06500  Biso   1.000  C
  C78      1.0000 0.99130  0.68860  0.21810  Biso   1.000  C
  C79      1.0000 0.19290  0.55880  0.77790  Biso   1.000  C
  C80      1.0000 0.21930  0.62030  0.82120  Biso   1.000  C
  C81      1.0000 0.14650  0.64770  0.84570  Biso   1.000  C
  C82      1.0000 0.05190  0.62500  0.82610  Biso   1.000  C
  C83      1.0000 0.03290  0.56870  0.78340  Biso   1.000  C
  C84      1.0000 0.97160  0.65460  0.85100  Biso   1.000  C
  C85      1.0000 0.99980  0.74240  0.88260  Biso   1.000  C
  C86      1.0000 0.92620  0.76930  0.90750  Biso   1.000  C
  C87      1.0000 0.83020  0.72070  0.90130  Biso   1.000  C
  C88      1.0000 0.80250  0.63470  0.86950  Biso   1.000  C
  C89      1.0000 0.87390  0.60720  0.84650  Biso   1.000  C
  C90      1.0000 0.69480  0.58320  0.86200  Biso   1.000  C
  C91      1.0000 0.95190  0.85630  0.94210  Biso   1.000  C
  C92      1.0000 0.98720  0.25020  0.64450  Biso   1.000  C
  C93      1.0000 0.99580  0.16660  0.62410  Biso   1.000  C
  C94      1.0000 0.08590  0.15260  0.61970  Biso   1.000  C
  C95      1.0000 0.17380  0.22130  0.63830  Biso   1.000  C
  C96      1.0000 0.15580  0.30580  0.65740  Biso   1.000  C
  C97      1.0000 0.27120  0.21220  0.63780  Biso   1.000  C
  C98      1.0000 0.30810  0.15940  0.60200  Biso   1.000  C
  C99      1.0000 0.40070  0.15380  0.60320  Biso   1.000  C
  C100     1.0000 0.47000  0.20310  0.64090  Biso   1.000  C
  C101     1.0000 0.43110  0.25410  0.67760  Biso   1.000  C
  C102     1.0000 0.33850  0.25730  0.67630  Biso   1.000  C
  C103     1.0000 0.44250  0.09560  0.56500  Biso   1.000  C
  C104     1.0000 0.50870  0.31140  0.71810  Biso   1.000  C
  N1       1.0000 0.60060  0.53500  0.73900  Biso   1.000  N
  N2       1.0000 0.56970  0.31740  0.83960  Biso   1.000  N
  N3       1.0000 0.89940  0.46500  0.23900  Biso   1.000  N
  N4       1.0000 0.93030  0.68260  0.33960  Biso   1.000  N
  N5       1.0000 0.39940  0.46500  0.26100  Biso   1.000  N
  N6       1.0000 0.43030  0.68260  0.16040  Biso   1.000  N
  N7       1.0000 0.10060  0.53500  0.76100  Biso   1.000  N
  N8       1.0000 0.06970  0.31740  0.66040  Biso   1.000  N
  O1       1.0000 0.12580  0.58680  0.60650  Biso   1.000  O
  O2       1.0000 0.17990  0.50930  0.66695  Biso   1.000  O
  O3       1.0000 0.38690  0.86630  0.52773  Biso   1.000  O
  O4       1.0000 0.53880  0.91130  0.56176  Biso   1.000  O
  O5       1.0000 0.87600  0.05070  0.96711  Biso   1.000  O
  O6       1.0000 0.02800  0.09680  0.93308  Biso   1.000  O
  O7       1.0000 0.09670  0.31540  0.78259  Biso   1.000  O
  O8       1.0000 0.96710  0.35270  0.74841  Biso   1.000  O
  O9       1.0000 0.26700  0.92970  0.44570  Biso   1.000  O
  O10      1.0000 0.44480  0.48600  0.83080  Biso   1.000  O
  O11      1.0000 0.37420  0.41320  0.10650  Biso   1.000  O
  O12      1.0000 0.32010  0.49070  0.16695  Biso   1.000  O
  O13      1.0000 0.11310  0.13370  0.02773  Biso   1.000  O
  O14      1.0000 0.96120  0.08870  0.06176  Biso   1.000  O
  O15      1.0000 0.62400  0.94930  0.46711  Biso   1.000  O
  O16      1.0000 0.47200  0.90320  0.43308  Biso   1.000  O
  O17      1.0000 0.40330  0.68460  0.28259  Biso   1.000  O
  O18      1.0000 0.53290  0.64730  0.24841  Biso   1.000  O
  O19      1.0000 0.23300  0.07030  0.94570  Biso   1.000  O
  O20      1.0000 0.05520  0.51400  0.33080  Biso   1.000  O
  O21      1.0000 0.87420  0.41320  0.39350  Biso   1.000  O
  O22      1.0000 0.82010  0.49070  0.33305  Biso   1.000  O
  O23      1.0000 0.61310  0.13370  0.47227  Biso   1.000  O
  O24      1.0000 0.46120  0.08870  0.43824  Biso   1.000  O
  O25      1.0000 0.12400  0.94930  0.03289  Biso   1.000  O
  O26      1.0000 0.97200  0.90320  0.06692  Biso   1.000  O
  O27      1.0000 0.90330  0.68460  0.21741  Biso   1.000  O
  O28      1.0000 0.03290  0.64730  0.25159  Biso   1.000  O
  O29      1.0000 0.73300  0.07030  0.55430  Biso   1.000  O
  O30      1.0000 0.55520  0.51400  0.16920  Biso   1.000  O
  O31      1.0000 0.62580  0.58680  0.89350  Biso   1.000  O
  O32      1.0000 0.67990  0.50930  0.83305  Biso   1.000  O
  O33      1.0000 0.88690  0.86630  0.97227  Biso   1.000  O
  O34      1.0000 0.03880  0.91130  0.93824  Biso   1.000  O
  O35      1.0000 0.37600  0.05070  0.53289  Biso   1.000  O
  O36      1.0000 0.52800  0.09680  0.56692  Biso   1.000  O
  O37      1.0000 0.59670  0.31540  0.71741  Biso   1.000  O
  O38      1.0000 0.46710  0.35270  0.75159  Biso   1.000  O
  O39      1.0000 0.76700  0.92970  0.05430  Biso   1.000  O
  O40      1.0000 0.94480  0.48600  0.66920  Biso   1.000  O
