data_image0
_cell_length_a       18.8168
_cell_length_b       11.3511
_cell_length_c       16.9284
_cell_angle_alpha    90
_cell_angle_beta     102.051
_cell_angle_gamma    90

_symmetry_space_group_name_H-M    "P 1"
_symmetry_int_tables_number       1

loop_
  _symmetry_equiv_pos_as_xyz
  'x, y, z'

loop_
  _atom_site_label
  _atom_site_occupancy
  _atom_site_fract_x
  _atom_site_fract_y
  _atom_site_fract_z
  _atom_site_thermal_displace_type
  _atom_site_B_iso_or_equiv
  _atom_site_type_symbol
  La1      1.0000 0.31000  0.20992  0.33598  Biso   1.000  La
  K1       1.0000 0.65439  0.09950  0.52468  Biso   1.000  K
  O1       1.0000 0.39290  0.14760  0.46860  Biso   1.000  O
  O2       1.0000 0.50440  0.13260  0.54290  Biso   1.000  O
  O3       1.0000 0.44260  0.21670  0.34280  Biso   1.000  O
  O4       1.0000 0.55550  0.19050  0.40670  Biso   1.000  O
  O5       1.0000 0.33840  0.41880  0.29750  Biso   1.000  O
  O6       1.0000 0.22780  0.13950  0.42760  Biso   1.000  O
  O7       1.0000 0.17070  0.48870  0.18040  Biso   1.000  O
  O8       1.0000 0.21010  0.14720  0.55360  Biso   1.000  O
  O9       1.0000 0.20220  0.33430  0.25940  Biso   1.000  O
  O10      1.0000 0.29750  0.59150  0.24630  Biso   1.000  O
  O11      1.0000 0.33100  0.19630  0.18960  Biso   1.000  O
  C1       1.0000 0.46040  0.15240  0.47900  Biso   1.000  C
  C2       1.0000 0.49020  0.18880  0.40350  Biso   1.000  C
  C3       1.0000 0.29040  0.48470  0.26140  Biso   1.000  C
  C4       1.0000 0.23230  0.18750  0.49500  Biso   1.000  C
  C5       1.0000 0.21450  0.43110  0.23170  Biso   1.000  C
  O12      1.0000 0.76780  0.11260  0.44240  Biso   1.000  O
  La2      1.0000 0.81000  0.70992  0.33598  Biso   1.000  La
  K2       1.0000 0.15439  0.59950  0.52468  Biso   1.000  K
  O13      1.0000 0.89290  0.64760  0.46860  Biso   1.000  O
  O14      1.0000 0.00440  0.63260  0.54290  Biso   1.000  O
  O15      1.0000 0.94260  0.71670  0.34280  Biso   1.000  O
  O16      1.0000 0.05550  0.69050  0.40670  Biso   1.000  O
  O17      1.0000 0.83840  0.91880  0.29750  Biso   1.000  O
  O18      1.0000 0.72780  0.63950  0.42760  Biso   1.000  O
  O19      1.0000 0.67070  0.98870  0.18040  Biso   1.000  O
  O20      1.0000 0.71010  0.64720  0.55360  Biso   1.000  O
  O21      1.0000 0.70220  0.83430  0.25940  Biso   1.000  O
  O22      1.0000 0.79750  0.09150  0.24630  Biso   1.000  O
  O23      1.0000 0.83100  0.69630  0.18960  Biso   1.000  O
  C6       1.0000 0.96040  0.65240  0.47900  Biso   1.000  C
  C7       1.0000 0.99020  0.68880  0.40350  Biso   1.000  C
  C8       1.0000 0.79040  0.98470  0.26140  Biso   1.000  C
  C9       1.0000 0.73230  0.68750  0.49500  Biso   1.000  C
  C10      1.0000 0.71450  0.93110  0.23170  Biso   1.000  C
  O24      1.0000 0.26780  0.61260  0.44240  Biso   1.000  O
  La3      1.0000 0.69000  0.20992  0.16402  Biso   1.000  La
  K3       1.0000 0.34561  0.09950  0.97532  Biso   1.000  K
  O25      1.0000 0.60710  0.14760  0.03140  Biso   1.000  O
  O26      1.0000 0.49560  0.13260  0.95710  Biso   1.000  O
  O27      1.0000 0.55740  0.21670  0.15720  Biso   1.000  O
  O28      1.0000 0.44450  0.19050  0.09330  Biso   1.000  O
  O29      1.0000 0.66160  0.41880  0.20250  Biso   1.000  O
  O30      1.0000 0.77220  0.13950  0.07240  Biso   1.000  O
  O31      1.0000 0.82930  0.48870  0.31960  Biso   1.000  O
  O32      1.0000 0.78990  0.14720  0.94640  Biso   1.000  O
  O33      1.0000 0.79780  0.33430  0.24060  Biso   1.000  O
  O34      1.0000 0.70250  0.59150  0.25370  Biso   1.000  O
  O35      1.0000 0.66900  0.19630  0.31040  Biso   1.000  O
  C11      1.0000 0.53960  0.15240  0.02100  Biso   1.000  C
  C12      1.0000 0.50980  0.18880  0.09650  Biso   1.000  C
  C13      1.0000 0.70960  0.48470  0.23860  Biso   1.000  C
  C14      1.0000 0.76770  0.18750  0.00500  Biso   1.000  C
  C15      1.0000 0.78550  0.43110  0.26830  Biso   1.000  C
  O36      1.0000 0.23220  0.11260  0.05760  Biso   1.000  O
  La4      1.0000 0.19000  0.70992  0.16402  Biso   1.000  La
  K4       1.0000 0.84561  0.59950  0.97532  Biso   1.000  K
  O37      1.0000 0.10710  0.64760  0.03140  Biso   1.000  O
  O38      1.0000 0.99560  0.63260  0.95710  Biso   1.000  O
  O39      1.0000 0.05740  0.71670  0.15720  Biso   1.000  O
  O40      1.0000 0.94450  0.69050  0.09330  Biso   1.000  O
  O41      1.0000 0.16160  0.91880  0.20250  Biso   1.000  O
  O42      1.0000 0.27220  0.63950  0.07240  Biso   1.000  O
  O43      1.0000 0.32930  0.98870  0.31960  Biso   1.000  O
  O44      1.0000 0.28990  0.64720  0.94640  Biso   1.000  O
  O45      1.0000 0.29780  0.83430  0.24060  Biso   1.000  O
  O46      1.0000 0.20250  0.09150  0.25370  Biso   1.000  O
  O47      1.0000 0.16900  0.69630  0.31040  Biso   1.000  O
  C16      1.0000 0.03960  0.65240  0.02100  Biso   1.000  C
  C17      1.0000 0.00980  0.68880  0.09650  Biso   1.000  C
  C18      1.0000 0.20960  0.98470  0.23860  Biso   1.000  C
  C19      1.0000 0.26770  0.68750  0.00500  Biso   1.000  C
  C20      1.0000 0.28550  0.93110  0.26830  Biso   1.000  C
  O48      1.0000 0.73220  0.61260  0.05760  Biso   1.000  O
  La5      1.0000 0.69000  0.79008  0.66402  Biso   1.000  La
  K5       1.0000 0.34561  0.90050  0.47532  Biso   1.000  K
  O49      1.0000 0.60710  0.85240  0.53140  Biso   1.000  O
  O50      1.0000 0.49560  0.86740  0.45710  Biso   1.000  O
  O51      1.0000 0.55740  0.78330  0.65720  Biso   1.000  O
  O52      1.0000 0.44450  0.80950  0.59330  Biso   1.000  O
  O53      1.0000 0.66160  0.58120  0.70250  Biso   1.000  O
  O54      1.0000 0.77220  0.86050  0.57240  Biso   1.000  O
  O55      1.0000 0.82930  0.51130  0.81960  Biso   1.000  O
  O56      1.0000 0.78990  0.85280  0.44640  Biso   1.000  O
  O57      1.0000 0.79780  0.66570  0.74060  Biso   1.000  O
  O58      1.0000 0.70250  0.40850  0.75370  Biso   1.000  O
  O59      1.0000 0.66900  0.80370  0.81040  Biso   1.000  O
  C21      1.0000 0.53960  0.84760  0.52100  Biso   1.000  C
  C22      1.0000 0.50980  0.81120  0.59650  Biso   1.000  C
  C23      1.0000 0.70960  0.51530  0.73860  Biso   1.000  C
  C24      1.0000 0.76770  0.81250  0.50500  Biso   1.000  C
  C25      1.0000 0.78550  0.56890  0.76830  Biso   1.000  C
  O60      1.0000 0.23220  0.88740  0.55760  Biso   1.000  O
  La6      1.0000 0.19000  0.29008  0.66402  Biso   1.000  La
  K6       1.0000 0.84561  0.40050  0.47532  Biso   1.000  K
  O61      1.0000 0.10710  0.35240  0.53140  Biso   1.000  O
  O62      1.0000 0.99560  0.36740  0.45710  Biso   1.000  O
  O63      1.0000 0.05740  0.28330  0.65720  Biso   1.000  O
  O64      1.0000 0.94450  0.30950  0.59330  Biso   1.000  O
  O65      1.0000 0.16160  0.08120  0.70250  Biso   1.000  O
  O66      1.0000 0.27220  0.36050  0.57240  Biso   1.000  O
  O67      1.0000 0.32930  0.01130  0.81960  Biso   1.000  O
  O68      1.0000 0.28990  0.35280  0.44640  Biso   1.000  O
  O69      1.0000 0.29780  0.16570  0.74060  Biso   1.000  O
  O70      1.0000 0.20250  0.90850  0.75370  Biso   1.000  O
  O71      1.0000 0.16900  0.30370  0.81040  Biso   1.000  O
  C26      1.0000 0.03960  0.34760  0.52100  Biso   1.000  C
  C27      1.0000 0.00980  0.31120  0.59650  Biso   1.000  C
  C28      1.0000 0.20960  0.01530  0.73860  Biso   1.000  C
  C29      1.0000 0.26770  0.31250  0.50500  Biso   1.000  C
  C30      1.0000 0.28550  0.06890  0.76830  Biso   1.000  C
  O72      1.0000 0.73220  0.38740  0.55760  Biso   1.000  O
  La7      1.0000 0.31000  0.79008  0.83598  Biso   1.000  La
  K7       1.0000 0.65439  0.90050  0.02468  Biso   1.000  K
  O73      1.0000 0.39290  0.85240  0.96860  Biso   1.000  O
  O74      1.0000 0.50440  0.86740  0.04290  Biso   1.000  O
  O75      1.0000 0.44260  0.78330  0.84280  Biso   1.000  O
  O76      1.0000 0.55550  0.80950  0.90670  Biso   1.000  O
  O77      1.0000 0.33840  0.58120  0.79750  Biso   1.000  O
  O78      1.0000 0.22780  0.86050  0.92760  Biso   1.000  O
  O79      1.0000 0.17070  0.51130  0.68040  Biso   1.000  O
  O80      1.0000 0.21010  0.85280  0.05360  Biso   1.000  O
  O81      1.0000 0.20220  0.66570  0.75940  Biso   1.000  O
  O82      1.0000 0.29750  0.40850  0.74630  Biso   1.000  O
  O83      1.0000 0.33100  0.80370  0.68960  Biso   1.000  O
  C31      1.0000 0.46040  0.84760  0.97900  Biso   1.000  C
  C32      1.0000 0.49020  0.81120  0.90350  Biso   1.000  C
  C33      1.0000 0.29040  0.51530  0.76140  Biso   1.000  C
  C34      1.0000 0.23230  0.81250  0.99500  Biso   1.000  C
  C35      1.0000 0.21450  0.56890  0.73170  Biso   1.000  C
  O84      1.0000 0.76780  0.88740  0.94240  Biso   1.000  O
  La8      1.0000 0.81000  0.29008  0.83598  Biso   1.000  La
  K8       1.0000 0.15439  0.40050  0.02468  Biso   1.000  K
  O85      1.0000 0.89290  0.35240  0.96860  Biso   1.000  O
  O86      1.0000 0.00440  0.36740  0.04290  Biso   1.000  O
  O87      1.0000 0.94260  0.28330  0.84280  Biso   1.000  O
  O88      1.0000 0.05550  0.30950  0.90670  Biso   1.000  O
  O89      1.0000 0.83840  0.08120  0.79750  Biso   1.000  O
  O90      1.0000 0.72780  0.36050  0.92760  Biso   1.000  O
  O91      1.0000 0.67070  0.01130  0.68040  Biso   1.000  O
  O92      1.0000 0.71010  0.35280  0.05360  Biso   1.000  O
  O93      1.0000 0.70220  0.16570  0.75940  Biso   1.000  O
  O94      1.0000 0.79750  0.90850  0.74630  Biso   1.000  O
  O95      1.0000 0.83100  0.30370  0.68960  Biso   1.000  O
  C36      1.0000 0.96040  0.34760  0.97900  Biso   1.000  C
  C37      1.0000 0.99020  0.31120  0.90350  Biso   1.000  C
  C38      1.0000 0.79040  0.01530  0.76140  Biso   1.000  C
  C39      1.0000 0.73230  0.31250  0.99500  Biso   1.000  C
  C40      1.0000 0.71450  0.06890  0.73170  Biso   1.000  C
  O96      1.0000 0.26780  0.38740  0.94240  Biso   1.000  O
