data_IXEDOE_charged
_audit_creation_date              2014-07-02
_audit_creation_method            'Materials Studio'
_symmetry_space_group_name_H-M    'P1'
_symmetry_Int_Tables_number       1
_symmetry_cell_setting            triclinic
loop_
_symmetry_equiv_pos_as_xyz
  x,y,z
_cell_length_a                    13.1569
_cell_length_b                    13.1569
_cell_length_c                    23.6880
_cell_angle_alpha                 97.1021
_cell_angle_beta                  97.1021
_cell_angle_gamma                 118.1660
loop_
_atom_site_label
_atom_site_type_symbol
_atom_site_fract_x
_atom_site_fract_y
_atom_site_fract_z
_atom_site_U_iso_or_equiv
_atom_site_adp_type
_atom_site_occupancy
La1    La    0.86885   0.56309   0.75447   0.01267  Uiso   1.00
La2    La    0.56309   0.86885   0.25447   0.01267  Uiso   1.00
H1     H     0.55880   0.44400   0.71940   0.01267  Uiso   1.00
H2     H     0.36100   0.38960   0.70510   0.01267  Uiso   1.00
H3     H     0.45450   0.73110   0.71420   0.01267  Uiso   1.00
H4     H     0.65060   0.77980   0.73200   0.01267  Uiso   1.00
H5     H     0.87360   0.84780   0.68480   0.01267  Uiso   1.00
H6     H     0.81070   0.90670   0.60600   0.01267  Uiso   1.00
H7     H     0.83590   0.66130   0.49840   0.01267  Uiso   1.00
H8     H     0.89370   0.60290   0.57830   0.01267  Uiso   1.00
H9     H     0.64250   0.18170   0.66720   0.01267  Uiso   1.00
H10    H     0.57370   0.06510   0.57430   0.01267  Uiso   1.00
H11    H     0.62310   0.34930   0.51020   0.01267  Uiso   1.00
H12    H     0.67490   0.45750   0.60320   0.01267  Uiso   1.00
H13    H     0.07450   0.85710   0.75940   0.01267  Uiso   1.00
H14    H     0.22780   0.04560   0.76930   0.01267  Uiso   1.00
H15    H     0.45920   0.93080   0.80300   0.01267  Uiso   1.00
H16    H     0.30220   0.74260   0.79060   0.01267  Uiso   1.00
H17    H     0.59780   0.15020   0.34140   0.01267  Uiso   1.00
H18    H     0.65950   0.25950   0.43560   0.01267  Uiso   1.00
H19    H     0.43550   0.96870   0.48830   0.01267  Uiso   1.00
H20    H     0.37800   0.86300   0.39370   0.01267  Uiso   1.00
H21    H     0.72310   0.03030   0.45450   0.01267  Uiso   1.00
H22    H     0.78020   0.97500   0.53600   0.01267  Uiso   1.00
H23    H     0.76420   0.70060   0.43120   0.01267  Uiso   1.00
H24    H     0.71230   0.76430   0.35140   0.01267  Uiso   1.00
H25    H     0.52260   0.40740   0.83200   0.01267  Uiso   1.00
H26    H     0.36830   0.21710   0.81950   0.01267  Uiso   1.00
H27    H     0.58550   0.09510   0.77790   0.01267  Uiso   1.00
H28    H     0.73520   0.28620   0.79040   0.01267  Uiso   1.00
H29    H     0.00500   0.33480   0.72440   0.01267  Uiso   1.00
H30    H     0.20110   0.37990   0.73600   0.01267  Uiso   1.00
H31    H     0.27090   0.65370   0.65710   0.01267  Uiso   1.00
H32    H     0.07520   0.60320   0.64530   0.01267  Uiso   1.00
H33    H     0.44400   0.55880   0.21940   0.01267  Uiso   1.00
H34    H     0.38960   0.36100   0.20510   0.01267  Uiso   1.00
H35    H     0.73110   0.45450   0.21420   0.01267  Uiso   1.00
H36    H     0.77980   0.65060   0.23200   0.01267  Uiso   1.00
H37    H     0.84780   0.87360   0.18480   0.01267  Uiso   1.00
H38    H     0.90670   0.81070   0.10600   0.01267  Uiso   1.00
H39    H     0.66130   0.83590   0.99840   0.01267  Uiso   1.00
H40    H     0.60290   0.89370   0.07830   0.01267  Uiso   1.00
H41    H     0.18170   0.64250   0.16720   0.01267  Uiso   1.00
H42    H     0.06510   0.57370   0.07430   0.01267  Uiso   1.00
H43    H     0.34930   0.62310   0.01020   0.01267  Uiso   1.00
H44    H     0.45750   0.67490   0.10320   0.01267  Uiso   1.00
H45    H     0.85710   0.07450   0.25940   0.01267  Uiso   1.00
H46    H     0.04560   0.22780   0.26930   0.01267  Uiso   1.00
H47    H     0.93080   0.45920   0.30300   0.01267  Uiso   1.00
H48    H     0.74260   0.30220   0.29060   0.01267  Uiso   1.00
H49    H     0.15020   0.59780   0.84140   0.01267  Uiso   1.00
H50    H     0.25950   0.65950   0.93560   0.01267  Uiso   1.00
H51    H     0.96870   0.43550   0.98830   0.01267  Uiso   1.00
H52    H     0.86300   0.37800   0.89370   0.01267  Uiso   1.00
H53    H     0.03030   0.72310   0.95450   0.01267  Uiso   1.00
H54    H     0.97500   0.78020   0.03600   0.01267  Uiso   1.00
H55    H     0.70060   0.76420   0.93120   0.01267  Uiso   1.00
H56    H     0.76430   0.71230   0.85140   0.01267  Uiso   1.00
H57    H     0.40740   0.52260   0.33200   0.01267  Uiso   1.00
H58    H     0.21710   0.36830   0.31950   0.01267  Uiso   1.00
H59    H     0.09510   0.58550   0.27790   0.01267  Uiso   1.00
H60    H     0.28620   0.73520   0.29040   0.01267  Uiso   1.00
H61    H     0.33480   0.00500   0.22440   0.01267  Uiso   1.00
H62    H     0.37990   0.20110   0.23600   0.01267  Uiso   1.00
H63    H     0.65370   0.27090   0.15710   0.01267  Uiso   1.00
H64    H     0.60320   0.07520   0.14530   0.01267  Uiso   1.00
C1     C     0.53640   0.50300   0.71950   0.01267  Uiso   1.00
C2     C     0.41890   0.47030   0.71020   0.01267  Uiso   1.00
C3     C     0.38420   0.55540   0.70840   0.01267  Uiso   1.00
C4     C     0.47410   0.67050   0.71610   0.01267  Uiso   1.00
C5     C     0.59060   0.69980   0.72640   0.01267  Uiso   1.00
C6     C     0.86530   0.80950   0.64640   0.01267  Uiso   1.00
C7     C     0.82870   0.84490   0.59970   0.01267  Uiso   1.00
C8     C     0.81790   0.79210   0.54360   0.01267  Uiso   1.00
C9     C     0.84290   0.70030   0.53640   0.01267  Uiso   1.00
C10    C     0.87760   0.66620   0.58380   0.01267  Uiso   1.00
C11    C     0.63460   0.21500   0.63460   0.01267  Uiso   1.00
C12    C     0.59650   0.14630   0.57950   0.01267  Uiso   1.00
C13    C     0.59130   0.19510   0.53210   0.01267  Uiso   1.00
C14    C     0.62340   0.31260   0.54230   0.01267  Uiso   1.00
C15    C     0.65580   0.37720   0.59720   0.01267  Uiso   1.00
C16    C     0.15350   0.87290   0.76860   0.01267  Uiso   1.00
C17    C     0.24480   0.98420   0.77430   0.01267  Uiso   1.00
C18    C     0.36120   0.01100   0.78730   0.01267  Uiso   1.00
C19    C     0.38090   0.91730   0.79390   0.01267  Uiso   1.00
C20    C     0.28740   0.80600   0.78730   0.01267  Uiso   1.00
C21    C     0.56480   0.11380   0.37180   0.01267  Uiso   1.00
C22    C     0.60120   0.17840   0.42750   0.01267  Uiso   1.00
C23    C     0.55350   0.12630   0.47220   0.01267  Uiso   1.00
C24    C     0.46930   0.00690   0.45850   0.01267  Uiso   1.00
C25    C     0.43500   0.94440   0.40260   0.01267  Uiso   1.00
C26    C     0.73490   0.96410   0.45000   0.01267  Uiso   1.00
C27    C     0.76680   0.93060   0.49840   0.01267  Uiso   1.00
C28    C     0.77970   0.82950   0.49220   0.01267  Uiso   1.00
C29    C     0.75820   0.77020   0.43710   0.01267  Uiso   1.00
C30    C     0.72790   0.80810   0.38950   0.01267  Uiso   1.00
C31    C     0.53420   0.34260   0.82020   0.01267  Uiso   1.00
C32    C     0.44280   0.23000   0.81290   0.01267  Uiso   1.00
C33    C     0.45880   0.13300   0.79560   0.01267  Uiso   1.00
C34    C     0.57050   0.15810   0.78830   0.01267  Uiso   1.00
C35    C     0.65930   0.27090   0.79580   0.01267  Uiso   1.00
C36    C     0.06020   0.40040   0.71120   0.01267  Uiso   1.00
C37    C     0.17650   0.42730   0.71790   0.01267  Uiso   1.00
C38    C     0.25750   0.52210   0.69880   0.01267  Uiso   1.00
C39    C     0.21770   0.58830   0.67130   0.01267  Uiso   1.00
C40    C     0.10180   0.55860   0.66490   0.01267  Uiso   1.00
C41    C     0.50300   0.53640   0.21950   0.01267  Uiso   1.00
C42    C     0.47030   0.41890   0.21020   0.01267  Uiso   1.00
C43    C     0.55540   0.38420   0.20840   0.01267  Uiso   1.00
C44    C     0.67050   0.47410   0.21610   0.01267  Uiso   1.00
C45    C     0.69980   0.59060   0.22640   0.01267  Uiso   1.00
C46    C     0.80950   0.86530   0.14640   0.01267  Uiso   1.00
C47    C     0.84490   0.82870   0.09970   0.01267  Uiso   1.00
C48    C     0.79210   0.81790   0.04360   0.01267  Uiso   1.00
C49    C     0.70030   0.84290   0.03640   0.01267  Uiso   1.00
C50    C     0.66620   0.87760   0.08380   0.01267  Uiso   1.00
C51    C     0.21500   0.63460   0.13460   0.01267  Uiso   1.00
C52    C     0.14630   0.59650   0.07950   0.01267  Uiso   1.00
C53    C     0.19510   0.59130   0.03210   0.01267  Uiso   1.00
C54    C     0.31260   0.62340   0.04230   0.01267  Uiso   1.00
C55    C     0.37720   0.65580   0.09720   0.01267  Uiso   1.00
C56    C     0.87290   0.15350   0.26860   0.01267  Uiso   1.00
C57    C     0.98420   0.24480   0.27430   0.01267  Uiso   1.00
C58    C     0.01100   0.36120   0.28730   0.01267  Uiso   1.00
C59    C     0.91730   0.38090   0.29390   0.01267  Uiso   1.00
C60    C     0.80600   0.28740   0.28730   0.01267  Uiso   1.00
C61    C     0.11380   0.56480   0.87180   0.01267  Uiso   1.00
C62    C     0.17840   0.60120   0.92750   0.01267  Uiso   1.00
C63    C     0.12630   0.55350   0.97220   0.01267  Uiso   1.00
C64    C     0.00690   0.46930   0.95850   0.01267  Uiso   1.00
C65    C     0.94440   0.43500   0.90260   0.01267  Uiso   1.00
C66    C     0.96410   0.73490   0.95000   0.01267  Uiso   1.00
C67    C     0.93060   0.76680   0.99840   0.01267  Uiso   1.00
C68    C     0.82950   0.77970   0.99220   0.01267  Uiso   1.00
C69    C     0.77020   0.75820   0.93710   0.01267  Uiso   1.00
C70    C     0.80810   0.72790   0.88950   0.01267  Uiso   1.00
C71    C     0.34260   0.53420   0.32020   0.01267  Uiso   1.00
C72    C     0.23000   0.44280   0.31290   0.01267  Uiso   1.00
C73    C     0.13300   0.45880   0.29560   0.01267  Uiso   1.00
C74    C     0.15810   0.57050   0.28830   0.01267  Uiso   1.00
C75    C     0.27090   0.65930   0.29580   0.01267  Uiso   1.00
C76    C     0.40040   0.06020   0.21120   0.01267  Uiso   1.00
C77    C     0.42730   0.17650   0.21790   0.01267  Uiso   1.00
C78    C     0.52210   0.25750   0.19880   0.01267  Uiso   1.00
C79    C     0.58830   0.21770   0.17130   0.01267  Uiso   1.00
C80    C     0.55860   0.10180   0.16490   0.01267  Uiso   1.00
N1     N     0.61920   0.61500   0.72850   0.01267  Uiso   1.00
N2     N     0.88950   0.72090   0.63830   0.01267  Uiso   1.00
N3     N     0.66090   0.32770   0.64320   0.01267  Uiso   1.00
N4     N     0.17670   0.78430   0.77630   0.01267  Uiso   1.00
N5     N     0.48170   0.99790   0.36000   0.01267  Uiso   1.00
N6     N     0.72020   0.90660   0.39660   0.01267  Uiso   1.00
N7     N     0.63910   0.36210   0.81110   0.01267  Uiso   1.00
N8     N     0.02530   0.46950   0.68520   0.01267  Uiso   1.00
N9     N     0.61500   0.61920   0.22850   0.01267  Uiso   1.00
N10    N     0.72090   0.88950   0.13830   0.01267  Uiso   1.00
N11    N     0.32770   0.66090   0.14320   0.01267  Uiso   1.00
N12    N     0.78430   0.17670   0.27630   0.01267  Uiso   1.00
N13    N     0.99790   0.48170   0.86000   0.01267  Uiso   1.00
N14    N     0.90660   0.72020   0.89660   0.01267  Uiso   1.00
N15    N     0.36210   0.63910   0.31110   0.01267  Uiso   1.00
N16    N     0.46950   0.02530   0.18520   0.01267  Uiso   1.00
O1     O     0.73260   0.64520   0.73710   0.01267  Uiso   1.00
O2     O     0.92890   0.68910   0.68260   0.01267  Uiso   1.00
O3     O     0.69090   0.38970   0.69660   0.01267  Uiso   1.00
O4     O     0.08960   0.67660   0.77130   0.01267  Uiso   1.00
O5     O     0.44670   0.93910   0.30540   0.01267  Uiso   1.00
O6     O     0.69690   0.94670   0.35070   0.01267  Uiso   1.00
O7     O     0.72600   0.47160   0.81860   0.01267  Uiso   1.00
O8     O     0.91490   0.44610   0.68110   0.01267  Uiso   1.00
O9     O     0.64520   0.73260   0.23710   0.01267  Uiso   1.00
O10    O     0.68910   0.92890   0.18260   0.01267  Uiso   1.00
O11    O     0.38970   0.69090   0.19660   0.01267  Uiso   1.00
O12    O     0.67660   0.08960   0.27130   0.01267  Uiso   1.00
O13    O     0.93910   0.44670   0.80540   0.01267  Uiso   1.00
O14    O     0.94670   0.69690   0.85070   0.01267  Uiso   1.00
O15    O     0.47160   0.72600   0.31860   0.01267  Uiso   1.00
O16    O     0.44610   0.91490   0.18110   0.01267  Uiso   1.00
Cl1    Cl    0.74628   0.04046   0.69940   0.01267  Uiso   1.00
O17    O     0.80140   0.15060   0.73990   0.01267  Uiso   1.00
O18    O     0.78980   0.96620   0.71840   0.01267  Uiso   1.00
O19    O     0.76790   0.05650   0.64210   0.01267  Uiso   1.00
O20    O     0.62120   0.98560   0.69620   0.01267  Uiso   1.00
Cl2    Cl    0.65834   0.46110   0.36890   0.01267  Uiso   1.00
O21    O     0.60640   0.34260   0.33830   0.01267  Uiso   1.00
O22    O     0.59360   0.51500   0.34990   0.01267  Uiso   1.00
O23    O     0.77390   0.52710   0.35650   0.01267  Uiso   1.00
O24    O     0.66940   0.46560   0.42970   0.01267  Uiso   1.00
Cl3    Cl    0.18730   0.78210   0.55520   0.01267  Uiso   1.00
O25    O     0.16890   0.82610   0.61110   0.01267  Uiso   1.00
O26    O     0.23220   0.70220   0.56340   0.01267  Uiso   1.00
O27    O     0.06970   0.70970   0.51470   0.01267  Uiso   1.00
O28    O     0.25780   0.87260   0.52860   0.01267  Uiso   1.00
Cl4    Cl    0.04046   0.74628   0.19940   0.01267  Uiso   1.00
O29    O     0.15060   0.80140   0.23990   0.01267  Uiso   1.00
O30    O     0.96620   0.78980   0.21840   0.01267  Uiso   1.00
O31    O     0.05650   0.76790   0.14210   0.01267  Uiso   1.00
O32    O     0.98560   0.62120   0.19620   0.01267  Uiso   1.00
Cl5    Cl    0.46110   0.65834   0.86890   0.01267  Uiso   1.00
O33    O     0.34260   0.60640   0.83830   0.01267  Uiso   1.00
O34    O     0.51500   0.59360   0.84990   0.01267  Uiso   1.00
O35    O     0.52710   0.77390   0.85650   0.01267  Uiso   1.00
O36    O     0.46560   0.66940   0.92970   0.01267  Uiso   1.00
Cl6    Cl    0.78210   0.18730   0.05520   0.01267  Uiso   1.00
O37    O     0.82610   0.16890   0.11110   0.01267  Uiso   1.00
O38    O     0.70220   0.23220   0.06340   0.01267  Uiso   1.00
O39    O     0.70970   0.06970   0.01470   0.01267  Uiso   1.00
O40    O     0.87260   0.25780   0.02860   0.01267  Uiso   1.00
