data_image0
_cell_length_a       13.0533
_cell_length_b       13.1471
_cell_length_c       14.0537
_cell_angle_alpha    90
_cell_angle_beta     104.088
_cell_angle_gamma    90

_symmetry_space_group_name_H-M    "P 1"
_symmetry_int_tables_number       1

loop_
  _symmetry_equiv_pos_as_xyz
  'x, y, z'

loop_
  _atom_site_label
  _atom_site_occupancy
  _atom_site_fract_x
  _atom_site_fract_y
  _atom_site_fract_z
  _atom_site_thermal_displace_type
  _atom_site_B_iso_or_equiv
  _atom_site_type_symbol
  Eu1      1.0000 0.59068  0.05284  0.91193  Biso   1.000  Eu
  Cl1      1.0000 0.80191  0.13799  0.92281  Biso   1.000  Cl
  O1       1.0000 0.46320  0.93010  0.83320  Biso   1.000  O
  O2       1.0000 0.34990  0.88760  0.92450  Biso   1.000  O
  O3       1.0000 0.20330  0.59280  0.47280  Biso   1.000  O
  O4       1.0000 0.06880  0.58600  0.54180  Biso   1.000  O
  C1       1.0000 0.32140  0.82050  0.76430  Biso   1.000  C
  C2       1.0000 0.34430  0.82150  0.67280  Biso   1.000  C
  H1       1.0000 0.39470  0.86610  0.66030  Biso   1.000  H
  C3       1.0000 0.29220  0.75640  0.60080  Biso   1.000  C
  H2       1.0000 0.31020  0.75510  0.54070  Biso   1.000  H
  C4       1.0000 0.21310  0.69240  0.61620  Biso   1.000  C
  C5       1.0000 0.18770  0.69390  0.70630  Biso   1.000  C
  H3       1.0000 0.13380  0.65250  0.71710  Biso   1.000  H
  C6       1.0000 0.24250  0.75720  0.78060  Biso   1.000  C
  H4       1.0000 0.22620  0.75710  0.84140  Biso   1.000  H
  C7       1.0000 0.38430  0.88490  0.84750  Biso   1.000  C
  C8       1.0000 0.15980  0.62030  0.53940  Biso   1.000  C
  O5       1.0000 0.55730  0.24750  0.91370  Biso   1.000  O
  O6       1.0000 0.70980  0.32930  0.97560  Biso   1.000  O
  C9       1.0000 0.55220  0.41590  0.97670  Biso   1.000  C
  C10      1.0000 0.60910  0.49180  0.03790  Biso   1.000  C
  H5       1.0000 0.68160  0.48570  0.06330  Biso   1.000  H
  C11      1.0000 0.44420  0.42490  0.94070  Biso   1.000  C
  H6       1.0000 0.40720  0.37370  0.90120  Biso   1.000  H
  C12      1.0000 0.60680  0.32140  0.95180  Biso   1.000  C
  O7       1.0000 0.64150  0.98660  0.76070  Biso   1.000  O
  O8       1.0000 0.52720  0.11130  0.74440  Biso   1.000  O
  C13      1.0000 0.53510  0.02030  0.59960  Biso   1.000  C
  C14      1.0000 0.57950  0.94430  0.55830  Biso   1.000  C
  H7       1.0000 0.63340  0.90560  0.59710  Biso   1.000  H
  C15      1.0000 0.45490  0.07660  0.54210  Biso   1.000  C
  H8       1.0000 0.42350  0.12860  0.56980  Biso   1.000  H
  C16      1.0000 0.57040  0.04170  0.70810  Biso   1.000  C
  Eu2      1.0000 0.90932  0.55284  0.58807  Biso   1.000  Eu
  Cl2      1.0000 0.69809  0.63799  0.57719  Biso   1.000  Cl
  O9       1.0000 0.03680  0.43010  0.66680  Biso   1.000  O
  O10      1.0000 0.15010  0.38760  0.57550  Biso   1.000  O
  O11      1.0000 0.29670  0.09280  0.02720  Biso   1.000  O
  O12      1.0000 0.43120  0.08600  0.95820  Biso   1.000  O
  C17      1.0000 0.17860  0.32050  0.73570  Biso   1.000  C
  C18      1.0000 0.15570  0.32150  0.82720  Biso   1.000  C
  H9       1.0000 0.10530  0.36610  0.83970  Biso   1.000  H
  C19      1.0000 0.20780  0.25640  0.89920  Biso   1.000  C
  H10      1.0000 0.18980  0.25510  0.95930  Biso   1.000  H
  C20      1.0000 0.28690  0.19240  0.88380  Biso   1.000  C
  C21      1.0000 0.31230  0.19390  0.79370  Biso   1.000  C
  H11      1.0000 0.36620  0.15250  0.78290  Biso   1.000  H
  C22      1.0000 0.25750  0.25720  0.71940  Biso   1.000  C
  H12      1.0000 0.27380  0.25710  0.65860  Biso   1.000  H
  C23      1.0000 0.11570  0.38490  0.65250  Biso   1.000  C
  C24      1.0000 0.34020  0.12030  0.96060  Biso   1.000  C
  O13      1.0000 0.94270  0.74750  0.58630  Biso   1.000  O
  O14      1.0000 0.79020  0.82930  0.52440  Biso   1.000  O
  C25      1.0000 0.94780  0.91590  0.52330  Biso   1.000  C
  C26      1.0000 0.89090  0.99180  0.46210  Biso   1.000  C
  H13      1.0000 0.81840  0.98570  0.43670  Biso   1.000  H
  C27      1.0000 0.05580  0.92490  0.55930  Biso   1.000  C
  H14      1.0000 0.09280  0.87370  0.59880  Biso   1.000  H
  C28      1.0000 0.89320  0.82140  0.54820  Biso   1.000  C
  O15      1.0000 0.85850  0.48660  0.73930  Biso   1.000  O
  O16      1.0000 0.97280  0.61130  0.75560  Biso   1.000  O
  C29      1.0000 0.96490  0.52030  0.90040  Biso   1.000  C
  C30      1.0000 0.92050  0.44430  0.94170  Biso   1.000  C
  H15      1.0000 0.86660  0.40560  0.90290  Biso   1.000  H
  C31      1.0000 0.04510  0.57660  0.95790  Biso   1.000  C
  H16      1.0000 0.07650  0.62860  0.93020  Biso   1.000  H
  C32      1.0000 0.92960  0.54170  0.79190  Biso   1.000  C
  Eu3      1.0000 0.40932  0.94716  0.08807  Biso   1.000  Eu
  Cl3      1.0000 0.19809  0.86201  0.07719  Biso   1.000  Cl
  O17      1.0000 0.53680  0.06990  0.16680  Biso   1.000  O
  O18      1.0000 0.65010  0.11240  0.07550  Biso   1.000  O
  O19      1.0000 0.79670  0.40720  0.52720  Biso   1.000  O
  O20      1.0000 0.93120  0.41400  0.45820  Biso   1.000  O
  C33      1.0000 0.67860  0.17950  0.23570  Biso   1.000  C
  C34      1.0000 0.65570  0.17850  0.32720  Biso   1.000  C
  H17      1.0000 0.60530  0.13390  0.33970  Biso   1.000  H
  C35      1.0000 0.70780  0.24360  0.39920  Biso   1.000  C
  H18      1.0000 0.68980  0.24490  0.45930  Biso   1.000  H
  C36      1.0000 0.78690  0.30760  0.38380  Biso   1.000  C
  C37      1.0000 0.81230  0.30610  0.29370  Biso   1.000  C
  H19      1.0000 0.86620  0.34750  0.28290  Biso   1.000  H
  C38      1.0000 0.75750  0.24280  0.21940  Biso   1.000  C
  H20      1.0000 0.77380  0.24290  0.15860  Biso   1.000  H
  C39      1.0000 0.61570  0.11510  0.15250  Biso   1.000  C
  C40      1.0000 0.84020  0.37970  0.46060  Biso   1.000  C
  O21      1.0000 0.44270  0.75250  0.08630  Biso   1.000  O
  O22      1.0000 0.29020  0.67070  0.02440  Biso   1.000  O
  C41      1.0000 0.44780  0.58410  0.02330  Biso   1.000  C
  C42      1.0000 0.39090  0.50820  0.96210  Biso   1.000  C
  H21      1.0000 0.31840  0.51430  0.93670  Biso   1.000  H
  C43      1.0000 0.55580  0.57510  0.05930  Biso   1.000  C
  H22      1.0000 0.59280  0.62630  0.09880  Biso   1.000  H
  C44      1.0000 0.39320  0.67860  0.04820  Biso   1.000  C
  O23      1.0000 0.35850  0.01340  0.23930  Biso   1.000  O
  O24      1.0000 0.47280  0.88870  0.25560  Biso   1.000  O
  C45      1.0000 0.46490  0.97970  0.40040  Biso   1.000  C
  C46      1.0000 0.42050  0.05570  0.44170  Biso   1.000  C
  H23      1.0000 0.36660  0.09440  0.40290  Biso   1.000  H
  C47      1.0000 0.54510  0.92340  0.45790  Biso   1.000  C
  H24      1.0000 0.57650  0.87140  0.43020  Biso   1.000  H
  C48      1.0000 0.42960  0.95830  0.29190  Biso   1.000  C
  Eu4      1.0000 0.09068  0.44716  0.41193  Biso   1.000  Eu
  Cl4      1.0000 0.30191  0.36201  0.42281  Biso   1.000  Cl
  O25      1.0000 0.96320  0.56990  0.33320  Biso   1.000  O
  O26      1.0000 0.84990  0.61240  0.42450  Biso   1.000  O
  O27      1.0000 0.70330  0.90720  0.97280  Biso   1.000  O
  O28      1.0000 0.56880  0.91400  0.04180  Biso   1.000  O
  C49      1.0000 0.82140  0.67950  0.26430  Biso   1.000  C
  C50      1.0000 0.84430  0.67850  0.17280  Biso   1.000  C
  H25      1.0000 0.89470  0.63390  0.16030  Biso   1.000  H
  C51      1.0000 0.79220  0.74360  0.10080  Biso   1.000  C
  H26      1.0000 0.81020  0.74490  0.04070  Biso   1.000  H
  C52      1.0000 0.71310  0.80760  0.11620  Biso   1.000  C
  C53      1.0000 0.68770  0.80610  0.20630  Biso   1.000  C
  H27      1.0000 0.63380  0.84750  0.21710  Biso   1.000  H
  C54      1.0000 0.74250  0.74280  0.28060  Biso   1.000  C
  H28      1.0000 0.72620  0.74290  0.34140  Biso   1.000  H
  C55      1.0000 0.88430  0.61510  0.34750  Biso   1.000  C
  C56      1.0000 0.65980  0.87970  0.03940  Biso   1.000  C
  O29      1.0000 0.05730  0.25250  0.41370  Biso   1.000  O
  O30      1.0000 0.20980  0.17070  0.47560  Biso   1.000  O
  C57      1.0000 0.05220  0.08410  0.47670  Biso   1.000  C
  C58      1.0000 0.10910  0.00820  0.53790  Biso   1.000  C
  H29      1.0000 0.18160  0.01430  0.56330  Biso   1.000  H
  C59      1.0000 0.94420  0.07510  0.44070  Biso   1.000  C
  H30      1.0000 0.90720  0.12630  0.40120  Biso   1.000  H
  C60      1.0000 0.10680  0.17860  0.45180  Biso   1.000  C
  O31      1.0000 0.14150  0.51340  0.26070  Biso   1.000  O
  O32      1.0000 0.02720  0.38870  0.24440  Biso   1.000  O
  C61      1.0000 0.03510  0.47970  0.09960  Biso   1.000  C
  C62      1.0000 0.07950  0.55570  0.05830  Biso   1.000  C
  H31      1.0000 0.13340  0.59440  0.09710  Biso   1.000  H
  C63      1.0000 0.95490  0.42340  0.04210  Biso   1.000  C
  H32      1.0000 0.92350  0.37140  0.06980  Biso   1.000  H
  C64      1.0000 0.07040  0.45830  0.20810  Biso   1.000  C
