data_image0
_cell_length_a       12.6008
_cell_length_b       14.0313
_cell_length_c       14.0313
_cell_angle_alpha    78.3682
_cell_angle_beta     63.319
_cell_angle_gamma    63.3189

_symmetry_space_group_name_H-M    P 1
_symmetry_int_tables_number       1

loop_
  _symmetry_equiv_pos_as_xyz
  'x, y, z'

loop_
  _atom_site_label
  _atom_site_occupancy
  _atom_site_fract_x
  _atom_site_fract_y
  _atom_site_fract_z
  _atom_site_thermal_displace_type
  _atom_site_B_iso_or_equiv
  _atom_site_type_symbol
  Cu1      1.0000 0.17572  0.47638  0.99900  Biso   1.000  Cu
  Cu2      1.0000 0.65110  0.52362  0.00100  Biso   1.000  Cu
  Cu3      1.0000 0.42472  0.50100  0.97638  Biso   1.000  Cu
  Cu4      1.0000 0.90210  0.49900  0.02362  Biso   1.000  Cu
  Cu5      1.0000 0.65110  0.00100  0.52362  Biso   1.000  Cu
  Cu6      1.0000 0.17572  0.99900  0.47638  Biso   1.000  Cu
  Cu7      1.0000 0.90210  0.02362  0.49900  Biso   1.000  Cu
  Cu8      1.0000 0.42472  0.97638  0.50100  Biso   1.000  Cu
  H1       1.0000 0.72960  0.39200  0.23840  Biso   1.000  H
  H2       1.0000 0.79990  0.34620  0.12380  Biso   1.000  H
  H3       1.0000 0.35870  0.25090  0.07930  Biso   1.000  H
  H4       1.0000 0.29970  0.35680  0.13920  Biso   1.000  H
  H5       1.0000 0.36000  0.60800  0.76160  Biso   1.000  H
  H6       1.0000 0.26990  0.65380  0.87620  Biso   1.000  H
  H7       1.0000 0.68890  0.74910  0.92070  Biso   1.000  H
  H8       1.0000 0.79570  0.64320  0.86080  Biso   1.000  H
  H9       1.0000 0.21800  0.26160  0.89200  Biso   1.000  H
  H10      1.0000 0.17370  0.37620  0.84620  Biso   1.000  H
  H11      1.0000 0.68800  0.42070  0.75090  Biso   1.000  H
  H12      1.0000 0.68890  0.36080  0.85680  Biso   1.000  H
  H13      1.0000 0.37160  0.73840  0.10800  Biso   1.000  H
  H14      1.0000 0.39610  0.62380  0.15380  Biso   1.000  H
  H15      1.0000 0.85960  0.57930  0.24910  Biso   1.000  H
  H16      1.0000 0.90650  0.63920  0.14320  Biso   1.000  H
  H17      1.0000 0.36000  0.76160  0.60800  Biso   1.000  H
  H18      1.0000 0.26990  0.87620  0.65380  Biso   1.000  H
  H19      1.0000 0.68890  0.92070  0.74910  Biso   1.000  H
  H20      1.0000 0.79570  0.86080  0.64320  Biso   1.000  H
  H21      1.0000 0.72960  0.23840  0.39200  Biso   1.000  H
  H22      1.0000 0.79990  0.12380  0.34620  Biso   1.000  H
  H23      1.0000 0.35870  0.07930  0.25090  Biso   1.000  H
  H24      1.0000 0.29970  0.13920  0.35680  Biso   1.000  H
  H25      1.0000 0.37160  0.10800  0.73840  Biso   1.000  H
  H26      1.0000 0.39610  0.15380  0.62380  Biso   1.000  H
  H27      1.0000 0.85960  0.24910  0.57930  Biso   1.000  H
  H28      1.0000 0.90650  0.14320  0.63920  Biso   1.000  H
  H29      1.0000 0.21800  0.89200  0.26160  Biso   1.000  H
  H30      1.0000 0.17370  0.84620  0.37620  Biso   1.000  H
  H31      1.0000 0.68800  0.75090  0.42070  Biso   1.000  H
  H32      1.0000 0.68890  0.85680  0.36080  Biso   1.000  H
  H33      1.0000 0.68860  0.25010  0.25010  Biso   1.000  H
  H34      1.0000 0.83260  0.18070  0.18070  Biso   1.000  H
  H35      1.0000 0.42040  0.20610  0.20610  Biso   1.000  H
  H36      1.0000 0.29420  0.28610  0.28610  Biso   1.000  H
  H37      1.0000 0.18880  0.74990  0.74990  Biso   1.000  H
  H38      1.0000 0.19400  0.81930  0.81930  Biso   1.000  H
  H39      1.0000 0.83260  0.79390  0.79390  Biso   1.000  H
  H40      1.0000 0.86640  0.71390  0.71390  Biso   1.000  H
  H41      1.0000 0.18870  0.24990  0.75010  Biso   1.000  H
  H42      1.0000 0.26330  0.31930  0.68070  Biso   1.000  H
  H43      1.0000 0.87650  0.29390  0.70610  Biso   1.000  H
  H44      1.0000 0.83030  0.21390  0.78610  Biso   1.000  H
  H45      1.0000 0.18870  0.75010  0.24990  Biso   1.000  H
  H46      1.0000 0.26330  0.68070  0.31930  Biso   1.000  H
  H47      1.0000 0.87650  0.70610  0.29390  Biso   1.000  H
  H48      1.0000 0.83030  0.78610  0.21390  Biso   1.000  H
  C1       1.0000 0.92660  0.31990  0.18430  Biso   1.000  C
  C2       1.0000 0.15990  0.30420  0.16240  Biso   1.000  C
  C3       1.0000 0.79950  0.33240  0.19380  Biso   1.000  C
  C4       1.0000 0.29620  0.28880  0.14500  Biso   1.000  C
  C5       1.0000 0.43080  0.68010  0.81570  Biso   1.000  C
  C6       1.0000 0.62650  0.69580  0.83760  Biso   1.000  C
  C7       1.0000 0.32570  0.66760  0.80620  Biso   1.000  C
  C8       1.0000 0.73000  0.71120  0.85500  Biso   1.000  C
  C9       1.0000 0.36090  0.31570  0.81990  Biso   1.000  C
  C10      1.0000 0.57230  0.33760  0.80420  Biso   1.000  C
  C11      1.0000 0.24330  0.30620  0.83240  Biso   1.000  C
  C12      1.0000 0.69120  0.35500  0.78880  Biso   1.000  C
  C13      1.0000 0.49650  0.68430  0.18010  Biso   1.000  C
  C14      1.0000 0.71410  0.66240  0.19580  Biso   1.000  C
  C15      1.0000 0.38190  0.69380  0.16760  Biso   1.000  C
  C16      1.0000 0.83500  0.64500  0.21120  Biso   1.000  C
  C17      1.0000 0.43080  0.81570  0.68010  Biso   1.000  C
  C18      1.0000 0.62650  0.83760  0.69580  Biso   1.000  C
  C19      1.0000 0.32570  0.80620  0.66760  Biso   1.000  C
  C20      1.0000 0.73000  0.85500  0.71120  Biso   1.000  C
  C21      1.0000 0.92660  0.18430  0.31990  Biso   1.000  C
  C22      1.0000 0.15990  0.16240  0.30420  Biso   1.000  C
  C23      1.0000 0.79950  0.19380  0.33240  Biso   1.000  C
  C24      1.0000 0.29620  0.14500  0.28880  Biso   1.000  C
  C25      1.0000 0.49650  0.18010  0.68430  Biso   1.000  C
  C26      1.0000 0.71410  0.19580  0.66240  Biso   1.000  C
  C27      1.0000 0.38190  0.16760  0.69380  Biso   1.000  C
  C28      1.0000 0.83500  0.21120  0.64500  Biso   1.000  C
  C29      1.0000 0.36090  0.81990  0.31570  Biso   1.000  C
  C30      1.0000 0.57230  0.80420  0.33760  Biso   1.000  C
  C31      1.0000 0.24330  0.83240  0.30620  Biso   1.000  C
  C32      1.0000 0.69120  0.78880  0.35500  Biso   1.000  C
  C33      1.0000 0.98650  0.24520  0.24520  Biso   1.000  C
  C34      1.0000 0.10530  0.23630  0.23630  Biso   1.000  C
  C35      1.0000 0.77690  0.23490  0.23490  Biso   1.000  C
  C36      1.0000 0.32700  0.23400  0.23400  Biso   1.000  C
  C37      1.0000 0.47690  0.75480  0.75480  Biso   1.000  C
  C38      1.0000 0.57790  0.76370  0.76370  Biso   1.000  C
  C39      1.0000 0.24670  0.76510  0.76510  Biso   1.000  C
  C40      1.0000 0.79500  0.76600  0.76600  Biso   1.000  C
  C41      1.0000 0.48170  0.25480  0.74520  Biso   1.000  C
  C42      1.0000 0.59160  0.26370  0.73630  Biso   1.000  C
  C43      1.0000 0.26180  0.26510  0.73490  Biso   1.000  C
  C44      1.0000 0.81100  0.26600  0.73400  Biso   1.000  C
  C45      1.0000 0.48170  0.74520  0.25480  Biso   1.000  C
  C46      1.0000 0.59160  0.73630  0.26370  Biso   1.000  C
  C47      1.0000 0.26180  0.73490  0.26510  Biso   1.000  C
  C48      1.0000 0.81100  0.73400  0.26600  Biso   1.000  C
  Br1      1.0000 0.03014  0.60239  0.91453  Biso   1.000  Br
  Br2      1.0000 0.54706  0.39761  0.08547  Biso   1.000  Br
  Br3      1.0000 0.19467  0.58547  0.10239  Biso   1.000  Br
  Br4      1.0000 0.88253  0.41453  0.89761  Biso   1.000  Br
  Br5      1.0000 0.54706  0.08547  0.39761  Biso   1.000  Br
  Br6      1.0000 0.03014  0.91453  0.60239  Biso   1.000  Br
  Br7      1.0000 0.88253  0.89761  0.41453  Biso   1.000  Br
  Br8      1.0000 0.19467  0.10239  0.58547  Biso   1.000  Br
  N1       1.0000 0.10140  0.37320  0.10420  Biso   1.000  N
  N2       1.0000 0.98270  0.38290  0.11510  Biso   1.000  N
  N3       1.0000 0.57880  0.62680  0.89580  Biso   1.000  N
  N4       1.0000 0.48070  0.61710  0.88490  Biso   1.000  N
  N5       1.0000 0.45560  0.39580  0.87320  Biso   1.000  N
  N6       1.0000 0.34780  0.38490  0.88290  Biso   1.000  N
  N7       1.0000 0.72460  0.60420  0.12680  Biso   1.000  N
  N8       1.0000 0.61560  0.61510  0.11710  Biso   1.000  N
  N9       1.0000 0.57880  0.89580  0.62680  Biso   1.000  N
  N10      1.0000 0.48070  0.88490  0.61710  Biso   1.000  N
  N11      1.0000 0.10140  0.10420  0.37320  Biso   1.000  N
  N12      1.0000 0.98270  0.11510  0.38290  Biso   1.000  N
  N13      1.0000 0.72460  0.12680  0.60420  Biso   1.000  N
  N14      1.0000 0.61560  0.11710  0.61510  Biso   1.000  N
  N15      1.0000 0.45560  0.87320  0.39580  Biso   1.000  N
  N16      1.0000 0.34780  0.88290  0.38490  Biso   1.000  N
