data_image0
_cell_length_a       13.136
_cell_length_b       14.0807
_cell_length_c       14.0807
_cell_angle_alpha    77.433
_cell_angle_beta     62.1955
_cell_angle_gamma    62.1956

_symmetry_space_group_name_H-M    P 1
_symmetry_int_tables_number       1

loop_
  _symmetry_equiv_pos_as_xyz
  'x, y, z'

loop_
  _atom_site_label
  _atom_site_occupancy
  _atom_site_fract_x
  _atom_site_fract_y
  _atom_site_fract_z
  _atom_site_thermal_displace_type
  _atom_site_B_iso_or_equiv
  _atom_site_type_symbol
  Cu1      1.0000 0.38430  0.25000  0.73140  Biso   1.000  Cu
  Cu2      1.0000 0.86570  0.25000  0.76860  Biso   1.000  Cu
  Cu3      1.0000 0.61570  0.26860  0.75000  Biso   1.000  Cu
  Cu4      1.0000 0.13430  0.23140  0.75000  Biso   1.000  Cu
  Cu5      1.0000 0.61570  0.75000  0.26860  Biso   1.000  Cu
  Cu6      1.0000 0.13430  0.75000  0.23140  Biso   1.000  Cu
  Cu7      1.0000 0.38430  0.73140  0.25000  Biso   1.000  Cu
  Cu8      1.0000 0.86570  0.76860  0.25000  Biso   1.000  Cu
  H1       1.0000 0.35550  0.34200  0.49480  Biso   1.000  H
  H2       1.0000 0.25770  0.38280  0.61080  Biso   1.000  H
  H3       1.0000 0.69230  0.15800  0.00520  Biso   1.000  H
  H4       1.0000 0.75130  0.11720  0.88920  Biso   1.000  H
  H5       1.0000 0.35030  0.50520  0.84200  Biso   1.000  H
  H6       1.0000 0.36850  0.38920  0.88280  Biso   1.000  H
  H7       1.0000 0.19750  0.99480  0.65800  Biso   1.000  H
  H8       1.0000 0.14050  0.11080  0.61720  Biso   1.000  H
  H9       1.0000 0.30770  0.99480  0.84200  Biso   1.000  H
  H10      1.0000 0.24870  0.11080  0.88280  Biso   1.000  H
  H11      1.0000 0.64450  0.50520  0.65800  Biso   1.000  H
  H12      1.0000 0.74230  0.38920  0.61720  Biso   1.000  H
  H13      1.0000 0.80250  0.34200  0.00520  Biso   1.000  H
  H14      1.0000 0.85950  0.38280  0.88920  Biso   1.000  H
  H15      1.0000 0.64970  0.15800  0.49480  Biso   1.000  H
  H16      1.0000 0.63150  0.11720  0.61080  Biso   1.000  H
  H17      1.0000 0.64450  0.65800  0.50520  Biso   1.000  H
  H18      1.0000 0.74230  0.61720  0.38920  Biso   1.000  H
  H19      1.0000 0.30770  0.84200  0.99480  Biso   1.000  H
  H20      1.0000 0.24870  0.88280  0.11080  Biso   1.000  H
  H21      1.0000 0.64970  0.49480  0.15800  Biso   1.000  H
  H22      1.0000 0.63150  0.61080  0.11720  Biso   1.000  H
  H23      1.0000 0.80250  0.00520  0.34200  Biso   1.000  H
  H24      1.0000 0.85950  0.88920  0.38280  Biso   1.000  H
  H25      1.0000 0.69230  0.00520  0.15800  Biso   1.000  H
  H26      1.0000 0.75130  0.88920  0.11720  Biso   1.000  H
  H27      1.0000 0.35550  0.49480  0.34200  Biso   1.000  H
  H28      1.0000 0.25770  0.61080  0.38280  Biso   1.000  H
  H29      1.0000 0.19750  0.65800  0.99480  Biso   1.000  H
  H30      1.0000 0.14050  0.61720  0.11080  Biso   1.000  H
  H31      1.0000 0.35030  0.84200  0.50520  Biso   1.000  H
  H32      1.0000 0.36850  0.88280  0.38920  Biso   1.000  H
  H33      1.0000 0.18430  0.48130  0.48130  Biso   1.000  H
  H34      1.0000 0.18430  0.55180  0.55180  Biso   1.000  H
  H35      1.0000 0.64690  0.01870  0.01870  Biso   1.000  H
  H36      1.0000 0.78790  0.94820  0.94820  Biso   1.000  H
  H37      1.0000 0.16560  0.51870  0.98130  Biso   1.000  H
  H38      1.0000 0.23610  0.44820  0.05180  Biso   1.000  H
  H39      1.0000 0.16560  0.98130  0.51870  Biso   1.000  H
  H40      1.0000 0.23610  0.05180  0.44820  Biso   1.000  H
  H41      1.0000 0.35310  0.98130  0.98130  Biso   1.000  H
  H42      1.0000 0.21210  0.05180  0.05180  Biso   1.000  H
  H43      1.0000 0.81570  0.51870  0.51870  Biso   1.000  H
  H44      1.0000 0.81570  0.44820  0.44820  Biso   1.000  H
  H45      1.0000 0.83440  0.48130  0.01870  Biso   1.000  H
  H46      1.0000 0.76390  0.55180  0.94820  Biso   1.000  H
  H47      1.0000 0.83440  0.01870  0.48130  Biso   1.000  H
  H48      1.0000 0.76390  0.94820  0.55180  Biso   1.000  H
  C1       1.0000 0.41120  0.41560  0.55800  Biso   1.000  C
  C2       1.0000 0.31310  0.40080  0.54320  Biso   1.000  C
  C3       1.0000 0.88480  0.08440  0.94200  Biso   1.000  C
  C4       1.0000 0.75710  0.09920  0.95680  Biso   1.000  C
  C5       1.0000 0.46920  0.44200  0.91560  Biso   1.000  C
  C6       1.0000 0.35630  0.45680  0.90080  Biso   1.000  C
  C7       1.0000 0.32680  0.05800  0.58440  Biso   1.000  C
  C8       1.0000 0.21390  0.04320  0.59920  Biso   1.000  C
  C9       1.0000 0.11520  0.05800  0.91560  Biso   1.000  C
  C10      1.0000 0.24290  0.04320  0.90080  Biso   1.000  C
  C11      1.0000 0.58880  0.44200  0.58440  Biso   1.000  C
  C12      1.0000 0.68690  0.45680  0.59920  Biso   1.000  C
  C13      1.0000 0.67320  0.41560  0.94200  Biso   1.000  C
  C14      1.0000 0.78610  0.40080  0.95680  Biso   1.000  C
  C15      1.0000 0.53080  0.08440  0.55800  Biso   1.000  C
  C16      1.0000 0.64370  0.09920  0.54320  Biso   1.000  C
  C17      1.0000 0.58880  0.58440  0.44200  Biso   1.000  C
  C18      1.0000 0.68690  0.59920  0.45680  Biso   1.000  C
  C19      1.0000 0.11520  0.91560  0.05800  Biso   1.000  C
  C20      1.0000 0.24290  0.90080  0.04320  Biso   1.000  C
  C21      1.0000 0.53080  0.55800  0.08440  Biso   1.000  C
  C22      1.0000 0.64370  0.54320  0.09920  Biso   1.000  C
  C23      1.0000 0.67320  0.94200  0.41560  Biso   1.000  C
  C24      1.0000 0.78610  0.95680  0.40080  Biso   1.000  C
  C25      1.0000 0.88480  0.94200  0.08440  Biso   1.000  C
  C26      1.0000 0.75710  0.95680  0.09920  Biso   1.000  C
  C27      1.0000 0.41120  0.55800  0.41560  Biso   1.000  C
  C28      1.0000 0.31310  0.54320  0.40080  Biso   1.000  C
  C29      1.0000 0.32680  0.58440  0.05800  Biso   1.000  C
  C30      1.0000 0.21390  0.59920  0.04320  Biso   1.000  C
  C31      1.0000 0.46920  0.91560  0.44200  Biso   1.000  C
  C32      1.0000 0.35630  0.90080  0.45680  Biso   1.000  C
  C33      1.0000 0.45590  0.49270  0.49270  Biso   1.000  C
  C34      1.0000 0.23820  0.49730  0.49730  Biso   1.000  C
  C35      1.0000 0.94130  0.00730  0.00730  Biso   1.000  C
  C36      1.0000 0.73280  0.00270  0.00270  Biso   1.000  C
  C37      1.0000 0.44860  0.50730  0.99270  Biso   1.000  C
  C38      1.0000 0.23550  0.50270  0.99730  Biso   1.000  C
  C39      1.0000 0.44860  0.99270  0.50730  Biso   1.000  C
  C40      1.0000 0.23550  0.99730  0.50270  Biso   1.000  C
  C41      1.0000 0.05870  0.99270  0.99270  Biso   1.000  C
  C42      1.0000 0.26720  0.99730  0.99730  Biso   1.000  C
  C43      1.0000 0.54410  0.50730  0.50730  Biso   1.000  C
  C44      1.0000 0.76180  0.50270  0.50270  Biso   1.000  C
  C45      1.0000 0.55140  0.49270  0.00730  Biso   1.000  C
  C46      1.0000 0.76450  0.49730  0.00270  Biso   1.000  C
  C47      1.0000 0.55140  0.00730  0.49270  Biso   1.000  C
  C48      1.0000 0.76450  0.00270  0.49730  Biso   1.000  C
  I1       1.0000 0.50000  0.14406  0.85594  Biso   1.000  I
  I2       1.0000 0.00000  0.35594  0.64406  Biso   1.000  I
  I3       1.0000 0.85594  0.14406  0.64406  Biso   1.000  I
  I4       1.0000 0.14406  0.35594  0.85594  Biso   1.000  I
  I5       1.0000 0.50000  0.85594  0.14406  Biso   1.000  I
  I6       1.0000 0.00000  0.64406  0.35594  Biso   1.000  I
  I7       1.0000 0.14406  0.85594  0.35594  Biso   1.000  I
  I8       1.0000 0.85594  0.64406  0.14406  Biso   1.000  I
  N1       1.0000 0.45420  0.35750  0.62910  Biso   1.000  N
  N2       1.0000 0.94080  0.14250  0.87090  Biso   1.000  N
  N3       1.0000 0.58330  0.37090  0.85750  Biso   1.000  N
  N4       1.0000 0.31170  0.12910  0.64250  Biso   1.000  N
  N5       1.0000 0.05920  0.12910  0.85750  Biso   1.000  N
  N6       1.0000 0.54580  0.37090  0.64250  Biso   1.000  N
  N7       1.0000 0.68830  0.35750  0.87090  Biso   1.000  N
  N8       1.0000 0.41670  0.14250  0.62910  Biso   1.000  N
  N9       1.0000 0.54580  0.64250  0.37090  Biso   1.000  N
  N10      1.0000 0.05920  0.85750  0.12910  Biso   1.000  N
  N11      1.0000 0.41670  0.62910  0.14250  Biso   1.000  N
  N12      1.0000 0.68830  0.87090  0.35750  Biso   1.000  N
  N13      1.0000 0.94080  0.87090  0.14250  Biso   1.000  N
  N14      1.0000 0.45420  0.62910  0.35750  Biso   1.000  N
  N15      1.0000 0.31170  0.64250  0.12910  Biso   1.000  N
  N16      1.0000 0.58330  0.85750  0.37090  Biso   1.000  N
