data_image0
_cell_length_a       6.8127
_cell_length_b       13.7142
_cell_length_c       16.0701
_cell_angle_alpha    90
_cell_angle_beta     90
_cell_angle_gamma    90

_symmetry_space_group_name_H-M    P 1
_symmetry_int_tables_number       1

loop_
  _symmetry_equiv_pos_as_xyz
  'x, y, z'

loop_
  _atom_site_label
  _atom_site_occupancy
  _atom_site_fract_x
  _atom_site_fract_y
  _atom_site_fract_z
  _atom_site_thermal_displace_type
  _atom_site_B_iso_or_equiv
  _atom_site_type_symbol
  V1       1.0000 0.43417  0.76462  0.00141  Biso   1.000  V
  V2       1.0000 0.06583  0.23538  0.50141  Biso   1.000  V
  V3       1.0000 0.56583  0.26462  0.49859  Biso   1.000  V
  V4       1.0000 0.93417  0.73538  0.99859  Biso   1.000  V
  H1       1.0000 0.96700  0.45710  0.67610  Biso   1.000  H
  H2       1.0000 0.94640  0.56600  0.78570  Biso   1.000  H
  H3       1.0000 0.52790  0.60810  0.77550  Biso   1.000  H
  H4       1.0000 0.54860  0.50090  0.66480  Biso   1.000  H
  H5       1.0000 0.53300  0.54290  0.17610  Biso   1.000  H
  H6       1.0000 0.55360  0.43400  0.28570  Biso   1.000  H
  H7       1.0000 0.97210  0.39190  0.27550  Biso   1.000  H
  H8       1.0000 0.95140  0.49910  0.16480  Biso   1.000  H
  H9       1.0000 0.03300  0.95710  0.82390  Biso   1.000  H
  H10      1.0000 0.05360  0.06600  0.71430  Biso   1.000  H
  H11      1.0000 0.47210  0.10810  0.72450  Biso   1.000  H
  H12      1.0000 0.45140  0.00090  0.83520  Biso   1.000  H
  H13      1.0000 0.46700  0.04290  0.32390  Biso   1.000  H
  H14      1.0000 0.44640  0.93400  0.21430  Biso   1.000  H
  H15      1.0000 0.02790  0.89190  0.22450  Biso   1.000  H
  H16      1.0000 0.04860  0.99910  0.33520  Biso   1.000  H
  C1       1.0000 0.27580  0.38864  0.59585  Biso   1.000  C
  C2       1.0000 0.26090  0.46563  0.66145  Biso   1.000  C
  C3       1.0000 0.08000  0.48665  0.69663  Biso   1.000  C
  C4       1.0000 0.06790  0.55168  0.76233  Biso   1.000  C
  C5       1.0000 0.23580  0.59550  0.79340  Biso   1.000  C
  C6       1.0000 0.41550  0.57704  0.75607  Biso   1.000  C
  C7       1.0000 0.42800  0.51266  0.69005  Biso   1.000  C
  C8       1.0000 0.22300  0.65783  0.86938  Biso   1.000  C
  C9       1.0000 0.22420  0.61136  0.09585  Biso   1.000  C
  C10      1.0000 0.23910  0.53437  0.16145  Biso   1.000  C
  C11      1.0000 0.42000  0.51335  0.19663  Biso   1.000  C
  C12      1.0000 0.43210  0.44832  0.26233  Biso   1.000  C
  C13      1.0000 0.26420  0.40450  0.29340  Biso   1.000  C
  C14      1.0000 0.08450  0.42296  0.25607  Biso   1.000  C
  C15      1.0000 0.07200  0.48734  0.19005  Biso   1.000  C
  C16      1.0000 0.27700  0.34217  0.36938  Biso   1.000  C
  C17      1.0000 0.72420  0.88864  0.90415  Biso   1.000  C
  C18      1.0000 0.73910  0.96563  0.83855  Biso   1.000  C
  C19      1.0000 0.92000  0.98665  0.80337  Biso   1.000  C
  C20      1.0000 0.93210  0.05168  0.73767  Biso   1.000  C
  C21      1.0000 0.76420  0.09550  0.70660  Biso   1.000  C
  C22      1.0000 0.58450  0.07704  0.74393  Biso   1.000  C
  C23      1.0000 0.57200  0.01266  0.80995  Biso   1.000  C
  C24      1.0000 0.77700  0.15783  0.63062  Biso   1.000  C
  C25      1.0000 0.77580  0.11136  0.40415  Biso   1.000  C
  C26      1.0000 0.76090  0.03437  0.33855  Biso   1.000  C
  C27      1.0000 0.58000  0.01335  0.30337  Biso   1.000  C
  C28      1.0000 0.56790  0.94832  0.23767  Biso   1.000  C
  C29      1.0000 0.73580  0.90450  0.20660  Biso   1.000  C
  C30      1.0000 0.91550  0.92296  0.24393  Biso   1.000  C
  C31      1.0000 0.92800  0.98734  0.30995  Biso   1.000  C
  C32      1.0000 0.72300  0.84217  0.13062  Biso   1.000  C
  O1       1.0000 0.21608  0.80953  0.00983  Biso   1.000  O
  O2       1.0000 0.44412  0.36597  0.57080  Biso   1.000  O
  O3       1.0000 0.38318  0.68900  0.89881  Biso   1.000  O
  O4       1.0000 0.05606  0.67296  0.89933  Biso   1.000  O
  O5       1.0000 0.11665  0.35088  0.57168  Biso   1.000  O
  O6       1.0000 0.28392  0.19047  0.50983  Biso   1.000  O
  O7       1.0000 0.05588  0.63403  0.07080  Biso   1.000  O
  O8       1.0000 0.11682  0.31100  0.39881  Biso   1.000  O
  O9       1.0000 0.44394  0.32704  0.39933  Biso   1.000  O
  O10      1.0000 0.38335  0.64912  0.07168  Biso   1.000  O
  O11      1.0000 0.78392  0.30953  0.49017  Biso   1.000  O
  O12      1.0000 0.55588  0.86597  0.92920  Biso   1.000  O
  O13      1.0000 0.61682  0.18900  0.60119  Biso   1.000  O
  O14      1.0000 0.94394  0.17296  0.60067  Biso   1.000  O
  O15      1.0000 0.88335  0.85088  0.92832  Biso   1.000  O
  O16      1.0000 0.71608  0.69047  0.99017  Biso   1.000  O
  O17      1.0000 0.94412  0.13403  0.42920  Biso   1.000  O
  O18      1.0000 0.88318  0.81100  0.10119  Biso   1.000  O
  O19      1.0000 0.55606  0.82704  0.10067  Biso   1.000  O
  O20      1.0000 0.61665  0.14912  0.42832  Biso   1.000  O
