data_image0
_cell_length_a       6.7884
_cell_length_b       13.2305
_cell_length_c       16.6357
_cell_angle_alpha    90
_cell_angle_beta     90
_cell_angle_gamma    90

_symmetry_space_group_name_H-M    P 1
_symmetry_int_tables_number       1

loop_
  _symmetry_equiv_pos_as_xyz
  'x, y, z'

loop_
  _atom_site_label
  _atom_site_occupancy
  _atom_site_fract_x
  _atom_site_fract_y
  _atom_site_fract_z
  _atom_site_thermal_displace_type
  _atom_site_B_iso_or_equiv
  _atom_site_type_symbol
  V1       1.0000 0.43877  0.26461  0.49945  Biso   1.000  V
  V2       1.0000 0.06123  0.73539  0.99945  Biso   1.000  V
  V3       1.0000 0.56123  0.76461  0.00055  Biso   1.000  V
  V4       1.0000 0.93877  0.23539  0.50055  Biso   1.000  V
  H1       1.0000 0.54950  0.98330  0.81880  Biso   1.000  H
  H2       1.0000 0.53070  0.08700  0.70820  Biso   1.000  H
  H3       1.0000 0.96690  0.93560  0.80720  Biso   1.000  H
  H4       1.0000 0.94830  0.03930  0.69570  Biso   1.000  H
  H5       1.0000 0.95050  0.01670  0.31880  Biso   1.000  H
  H6       1.0000 0.96930  0.91300  0.20820  Biso   1.000  H
  H7       1.0000 0.53310  0.06440  0.30720  Biso   1.000  H
  H8       1.0000 0.55170  0.96070  0.19570  Biso   1.000  H
  H9       1.0000 0.45050  0.48330  0.68120  Biso   1.000  H
  H10      1.0000 0.46930  0.58700  0.79180  Biso   1.000  H
  H11      1.0000 0.03310  0.43560  0.69280  Biso   1.000  H
  H12      1.0000 0.05170  0.53930  0.80430  Biso   1.000  H
  H13      1.0000 0.04950  0.51670  0.18120  Biso   1.000  H
  H14      1.0000 0.03070  0.41300  0.29180  Biso   1.000  H
  H15      1.0000 0.46690  0.56440  0.19280  Biso   1.000  H
  H16      1.0000 0.44830  0.46070  0.30430  Biso   1.000  H
  C1       1.0000 0.27280  0.87800  0.89332  Biso   1.000  C
  C2       1.0000 0.26060  0.94890  0.82410  Biso   1.000  C
  C3       1.0000 0.42850  0.99450  0.79413  Biso   1.000  C
  C4       1.0000 0.41710  0.05650  0.72792  Biso   1.000  C
  C5       1.0000 0.08020  0.96600  0.78714  Biso   1.000  C
  C6       1.0000 0.06910  0.02810  0.72054  Biso   1.000  C
  C7       1.0000 0.23840  0.07400  0.69041  Biso   1.000  C
  C8       1.0000 0.22690  0.13840  0.61753  Biso   1.000  C
  C9       1.0000 0.22720  0.12200  0.39332  Biso   1.000  C
  C10      1.0000 0.23940  0.05110  0.32410  Biso   1.000  C
  C11      1.0000 0.07150  0.00550  0.29413  Biso   1.000  C
  C12      1.0000 0.08290  0.94350  0.22792  Biso   1.000  C
  C13      1.0000 0.41980  0.03400  0.28714  Biso   1.000  C
  C14      1.0000 0.43090  0.97190  0.22054  Biso   1.000  C
  C15      1.0000 0.26160  0.92600  0.19041  Biso   1.000  C
  C16      1.0000 0.27310  0.86160  0.11753  Biso   1.000  C
  C17      1.0000 0.72720  0.37800  0.60668  Biso   1.000  C
  C18      1.0000 0.73940  0.44890  0.67590  Biso   1.000  C
  C19      1.0000 0.57150  0.49450  0.70587  Biso   1.000  C
  C20      1.0000 0.58290  0.55650  0.77208  Biso   1.000  C
  C21      1.0000 0.91980  0.46600  0.71286  Biso   1.000  C
  C22      1.0000 0.93090  0.52810  0.77946  Biso   1.000  C
  C23      1.0000 0.76160  0.57400  0.80959  Biso   1.000  C
  C24      1.0000 0.77310  0.63840  0.88247  Biso   1.000  C
  C25      1.0000 0.77280  0.62200  0.10668  Biso   1.000  C
  C26      1.0000 0.76060  0.55110  0.17590  Biso   1.000  C
  C27      1.0000 0.92850  0.50550  0.20587  Biso   1.000  C
  C28      1.0000 0.91710  0.44350  0.27208  Biso   1.000  C
  C29      1.0000 0.58020  0.53400  0.21286  Biso   1.000  C
  C30      1.0000 0.56910  0.47190  0.27946  Biso   1.000  C
  C31      1.0000 0.73840  0.42600  0.30959  Biso   1.000  C
  C32      1.0000 0.72690  0.36160  0.38247  Biso   1.000  C
  O1       1.0000 0.21969  0.31192  0.49691  Biso   1.000  O
  O2       1.0000 0.38770  0.17118  0.58981  Biso   1.000  O
  O3       1.0000 0.44210  0.85785  0.92067  Biso   1.000  O
  O4       1.0000 0.05970  0.15637  0.58916  Biso   1.000  O
  O5       1.0000 0.11220  0.84273  0.91962  Biso   1.000  O
  O6       1.0000 0.28031  0.68808  0.99691  Biso   1.000  O
  O7       1.0000 0.11230  0.82882  0.08981  Biso   1.000  O
  O8       1.0000 0.05790  0.14215  0.42067  Biso   1.000  O
  O9       1.0000 0.44030  0.84363  0.08916  Biso   1.000  O
  O10      1.0000 0.38780  0.15727  0.41962  Biso   1.000  O
  O11      1.0000 0.78031  0.81192  0.00309  Biso   1.000  O
  O12      1.0000 0.61230  0.67118  0.91019  Biso   1.000  O
  O13      1.0000 0.55790  0.35785  0.57933  Biso   1.000  O
  O14      1.0000 0.94030  0.65637  0.91084  Biso   1.000  O
  O15      1.0000 0.88780  0.34273  0.58038  Biso   1.000  O
  O16      1.0000 0.71969  0.18808  0.50309  Biso   1.000  O
  O17      1.0000 0.88770  0.32882  0.41019  Biso   1.000  O
  O18      1.0000 0.94210  0.64215  0.07933  Biso   1.000  O
  O19      1.0000 0.55970  0.34363  0.41084  Biso   1.000  O
  O20      1.0000 0.61220  0.65727  0.08038  Biso   1.000  O
