data_image0
_cell_length_a       6.827
_cell_length_b       13.965
_cell_length_c       16.074
_cell_angle_alpha    90
_cell_angle_beta     90
_cell_angle_gamma    90

_symmetry_space_group_name_H-M    P 1
_symmetry_int_tables_number       1

loop_
  _symmetry_equiv_pos_as_xyz
  'x, y, z'

loop_
  _atom_site_label
  _atom_site_occupancy
  _atom_site_fract_x
  _atom_site_fract_y
  _atom_site_fract_z
  _atom_site_thermal_displace_type
  _atom_site_B_iso_or_equiv
  _atom_site_type_symbol
  V1       1.0000 0.93487  0.23597  0.49865  Biso   1.000  V
  V2       1.0000 0.56513  0.76403  0.99865  Biso   1.000  V
  V3       1.0000 0.06513  0.73597  0.00135  Biso   1.000  V
  V4       1.0000 0.43487  0.26403  0.50135  Biso   1.000  V
  H1       1.0000 0.55120  0.98950  0.17270  Biso   1.000  H
  H2       1.0000 0.53260  0.09550  0.28230  Biso   1.000  H
  H3       1.0000 0.94450  0.06580  0.28470  Biso   1.000  H
  H4       1.0000 0.96620  0.95780  0.17760  Biso   1.000  H
  H5       1.0000 0.94880  0.01050  0.67270  Biso   1.000  H
  H6       1.0000 0.96740  0.90450  0.78230  Biso   1.000  H
  H7       1.0000 0.55550  0.93420  0.78470  Biso   1.000  H
  H8       1.0000 0.53380  0.04220  0.67760  Biso   1.000  H
  H9       1.0000 0.44880  0.48950  0.32730  Biso   1.000  H
  H10      1.0000 0.46740  0.59550  0.21770  Biso   1.000  H
  H11      1.0000 0.05550  0.56580  0.21530  Biso   1.000  H
  H12      1.0000 0.03380  0.45780  0.32240  Biso   1.000  H
  H13      1.0000 0.05120  0.51050  0.82730  Biso   1.000  H
  H14      1.0000 0.03260  0.40450  0.71770  Biso   1.000  H
  H15      1.0000 0.44450  0.43420  0.71530  Biso   1.000  H
  H16      1.0000 0.46620  0.54220  0.82240  Biso   1.000  H
  C1       1.0000 0.27560  0.88380  0.10150  Biso   1.000  C
  C2       1.0000 0.26280  0.95950  0.16610  Biso   1.000  C
  C3       1.0000 0.43030  0.00320  0.19660  Biso   1.000  C
  C4       1.0000 0.41910  0.06700  0.26200  Biso   1.000  C
  C5       1.0000 0.22490  0.15180  0.37180  Biso   1.000  C
  C6       1.0000 0.23640  0.08920  0.29840  Biso   1.000  C
  C7       1.0000 0.06670  0.04890  0.26380  Biso   1.000  C
  C8       1.0000 0.07970  0.98480  0.19940  Biso   1.000  C
  C9       1.0000 0.22440  0.11620  0.60150  Biso   1.000  C
  C10      1.0000 0.23720  0.04050  0.66610  Biso   1.000  C
  C11      1.0000 0.06970  0.99680  0.69660  Biso   1.000  C
  C12      1.0000 0.08090  0.93300  0.76200  Biso   1.000  C
  C13      1.0000 0.27510  0.84820  0.87180  Biso   1.000  C
  C14      1.0000 0.26360  0.91080  0.79840  Biso   1.000  C
  C15      1.0000 0.43330  0.95110  0.76380  Biso   1.000  C
  C16      1.0000 0.42030  0.01520  0.69940  Biso   1.000  C
  C17      1.0000 0.72440  0.38380  0.39850  Biso   1.000  C
  C18      1.0000 0.73720  0.45950  0.33390  Biso   1.000  C
  C19      1.0000 0.56970  0.50320  0.30340  Biso   1.000  C
  C20      1.0000 0.58090  0.56700  0.23800  Biso   1.000  C
  C21      1.0000 0.77510  0.65180  0.12820  Biso   1.000  C
  C22      1.0000 0.76360  0.58920  0.20160  Biso   1.000  C
  C23      1.0000 0.93330  0.54890  0.23620  Biso   1.000  C
  C24      1.0000 0.92030  0.48480  0.30060  Biso   1.000  C
  C25      1.0000 0.77560  0.61620  0.89850  Biso   1.000  C
  C26      1.0000 0.76280  0.54050  0.83390  Biso   1.000  C
  C27      1.0000 0.93030  0.49680  0.80340  Biso   1.000  C
  C28      1.0000 0.91910  0.43300  0.73800  Biso   1.000  C
  C29      1.0000 0.72490  0.34820  0.62820  Biso   1.000  C
  C30      1.0000 0.73640  0.41080  0.70160  Biso   1.000  C
  C31      1.0000 0.56670  0.45110  0.73620  Biso   1.000  C
  C32      1.0000 0.57970  0.51520  0.80060  Biso   1.000  C
  O1       1.0000 0.71770  0.19270  0.49100  Biso   1.000  O
  O2       1.0000 0.44640  0.86090  0.07400  Biso   1.000  O
  O3       1.0000 0.05540  0.16920  0.40090  Biso   1.000  O
  O4       1.0000 0.11310  0.84630  0.07490  Biso   1.000  O
  O5       1.0000 0.38340  0.18420  0.40180  Biso   1.000  O
  O6       1.0000 0.78230  0.80730  0.99100  Biso   1.000  O
  O7       1.0000 0.05360  0.13910  0.57400  Biso   1.000  O
  O8       1.0000 0.44460  0.83080  0.90090  Biso   1.000  O
  O9       1.0000 0.38690  0.15370  0.57490  Biso   1.000  O
  O10      1.0000 0.11660  0.81580  0.90180  Biso   1.000  O
  O11      1.0000 0.28230  0.69270  0.00900  Biso   1.000  O
  O12      1.0000 0.55360  0.36090  0.42600  Biso   1.000  O
  O13      1.0000 0.94460  0.66920  0.09910  Biso   1.000  O
  O14      1.0000 0.88690  0.34630  0.42510  Biso   1.000  O
  O15      1.0000 0.61660  0.68420  0.09820  Biso   1.000  O
  O16      1.0000 0.21770  0.30730  0.50900  Biso   1.000  O
  O17      1.0000 0.94640  0.63910  0.92600  Biso   1.000  O
  O18      1.0000 0.55540  0.33080  0.59910  Biso   1.000  O
  O19      1.0000 0.61310  0.65370  0.92510  Biso   1.000  O
  O20      1.0000 0.88340  0.31580  0.59820  Biso   1.000  O
