data_image0
_cell_length_a       10.9028
_cell_length_b       10.9453
_cell_length_c       15.8533
_cell_angle_alpha    88.159
_cell_angle_beta     80.542
_cell_angle_gamma    85.314

_symmetry_space_group_name_H-M    P 1
_symmetry_int_tables_number       1

loop_
  _symmetry_equiv_pos_as_xyz
  'x, y, z'

loop_
  _atom_site_label
  _atom_site_occupancy
  _atom_site_fract_x
  _atom_site_fract_y
  _atom_site_fract_z
  _atom_site_thermal_displace_type
  _atom_site_B_iso_or_equiv
  _atom_site_type_symbol
  Zn1      1.0000 0.71758  0.84228  0.59370  Biso   1.000  Zn
  Zn2      1.0000 0.67030  0.83713  0.78476  Biso   1.000  Zn
  H1       1.0000 0.73000  0.44820  0.56790  Biso   1.000  H
  H2       1.0000 0.72610  0.23880  0.56700  Biso   1.000  H
  H3       1.0000 0.65260  0.23110  0.82010  Biso   1.000  H
  H4       1.0000 0.66040  0.43920  0.82080  Biso   1.000  H
  H5       1.0000 0.26730  0.81890  0.81540  Biso   1.000  H
  H6       1.0000 0.05780  0.81040  0.81130  Biso   1.000  H
  H7       1.0000 0.12290  0.85930  0.55670  Biso   1.000  H
  H8       1.0000 0.33020  0.86830  0.56070  Biso   1.000  H
  H9       1.0000 0.58030  0.83030  0.31100  Biso   1.000  H
  H10      1.0000 0.56400  0.84050  0.45570  Biso   1.000  H
  H11      1.0000 0.92180  0.83900  0.44350  Biso   1.000  H
  H12      1.0000 0.95160  0.83070  0.29690  Biso   1.000  H
  H13      1.0000 0.80550  0.73110  0.91940  Biso   1.000  H
  H14      1.0000 0.82040  0.75640  0.06130  Biso   1.000  H
  H15      1.0000 0.51620  0.96060  0.93490  Biso   1.000  H
  H16      1.0000 0.86690  0.80540  0.16860  Biso   1.000  H
  H17      1.0000 0.61180  0.94970  0.19570  Biso   1.000  H
  C1       1.0000 0.69690  0.60460  0.69360  Biso   1.000  C
  C2       1.0000 0.69470  0.46670  0.69450  Biso   1.000  C
  C3       1.0000 0.71460  0.40480  0.61940  Biso   1.000  C
  C4       1.0000 0.71230  0.27890  0.61900  Biso   1.000  C
  C5       1.0000 0.69020  0.21250  0.69290  Biso   1.000  C
  C6       1.0000 0.66930  0.27440  0.76860  Biso   1.000  C
  C7       1.0000 0.67300  0.39930  0.76880  Biso   1.000  C
  C8       1.0000 0.68800  0.07540  0.69210  Biso   1.000  C
  C9       1.0000 0.45810  0.84710  0.69060  Biso   1.000  C
  C10      1.0000 0.32070  0.84360  0.68840  Biso   1.000  C
  C11      1.0000 0.23820  0.82710  0.76340  Biso   1.000  C
  C12      1.0000 0.11260  0.82280  0.76090  Biso   1.000  C
  C13      1.0000 0.06710  0.83680  0.68390  Biso   1.000  C
  C14      1.0000 0.15140  0.85210  0.60890  Biso   1.000  C
  C15      1.0000 0.27530  0.85650  0.61120  Biso   1.000  C
  C16      1.0000 0.93080  0.83390  0.68250  Biso   1.000  C
  C17      1.0000 0.76700  0.83360  0.28880  Biso   1.000  C
  C18      1.0000 0.65100  0.83320  0.33640  Biso   1.000  C
  C19      1.0000 0.64320  0.83750  0.42300  Biso   1.000  C
  C20      1.0000 0.85260  0.83690  0.41650  Biso   1.000  C
  C21      1.0000 0.87170  0.83330  0.32860  Biso   1.000  C
  C22      1.0000 0.74440  0.78260  0.95140  Biso   1.000  C
  C23      1.0000 0.75590  0.79800  0.03750  Biso   1.000  C
  C24      1.0000 0.66750  0.87620  0.08530  Biso   1.000  C
  C25      1.0000 0.58650  0.94150  0.04230  Biso   1.000  C
  C26      1.0000 0.57820  0.91780  0.96030  Biso   1.000  C
  N1       1.0000 0.65930  0.83190  0.91282  Biso   1.000  N
  N2       1.0000 0.74050  0.83760  0.46485  Biso   1.000  N
  N3       1.0000 0.77660  0.86810  0.19990  Biso   1.000  N
  N4       1.0000 0.67250  0.90690  0.16620  Biso   1.000  N
  O1       1.0000 0.85980  0.82600  0.75222  Biso   1.000  O
  O2       1.0000 0.89740  0.83950  0.61031  Biso   1.000  O
  O3       1.0000 0.49120  0.85180  0.76264  Biso   1.000  O
  O4       1.0000 0.53040  0.84460  0.62053  Biso   1.000  O
  O5       1.0000 0.67300  0.65510  0.76494  Biso   1.000  O
  O6       1.0000 0.72190  0.65800  0.62375  Biso   1.000  O
  O7       1.0000 0.67410  0.02070  0.76345  Biso   1.000  O
  O8       1.0000 0.70050  0.02620  0.62128  Biso   1.000  O
  Zn3      1.0000 0.28242  0.15772  0.40630  Biso   1.000  Zn
  Zn4      1.0000 0.32970  0.16287  0.21524  Biso   1.000  Zn
  H18      1.0000 0.27000  0.55180  0.43210  Biso   1.000  H
  H19      1.0000 0.27390  0.76120  0.43300  Biso   1.000  H
  H20      1.0000 0.34740  0.76890  0.17990  Biso   1.000  H
  H21      1.0000 0.33960  0.56080  0.17920  Biso   1.000  H
  H22      1.0000 0.73270  0.18110  0.18460  Biso   1.000  H
  H23      1.0000 0.94220  0.18960  0.18870  Biso   1.000  H
  H24      1.0000 0.87710  0.14070  0.44330  Biso   1.000  H
  H25      1.0000 0.66980  0.13170  0.43930  Biso   1.000  H
  H26      1.0000 0.41970  0.16970  0.68900  Biso   1.000  H
  H27      1.0000 0.43600  0.15950  0.54430  Biso   1.000  H
  H28      1.0000 0.07820  0.16100  0.55650  Biso   1.000  H
  H29      1.0000 0.04840  0.16930  0.70310  Biso   1.000  H
  H30      1.0000 0.19450  0.26890  0.08060  Biso   1.000  H
  H31      1.0000 0.17960  0.24360  0.93870  Biso   1.000  H
  H32      1.0000 0.48380  0.03940  0.06510  Biso   1.000  H
  H33      1.0000 0.13310  0.19460  0.83140  Biso   1.000  H
  H34      1.0000 0.38820  0.05030  0.80430  Biso   1.000  H
  C27      1.0000 0.30310  0.39540  0.30640  Biso   1.000  C
  C28      1.0000 0.30530  0.53330  0.30550  Biso   1.000  C
  C29      1.0000 0.28540  0.59520  0.38060  Biso   1.000  C
  C30      1.0000 0.28770  0.72110  0.38100  Biso   1.000  C
  C31      1.0000 0.30980  0.78750  0.30710  Biso   1.000  C
  C32      1.0000 0.33070  0.72560  0.23140  Biso   1.000  C
  C33      1.0000 0.32700  0.60070  0.23120  Biso   1.000  C
  C34      1.0000 0.31200  0.92460  0.30790  Biso   1.000  C
  C35      1.0000 0.54190  0.15290  0.30940  Biso   1.000  C
  C36      1.0000 0.67930  0.15640  0.31160  Biso   1.000  C
  C37      1.0000 0.76180  0.17290  0.23660  Biso   1.000  C
  C38      1.0000 0.88740  0.17720  0.23910  Biso   1.000  C
  C39      1.0000 0.93290  0.16320  0.31610  Biso   1.000  C
  C40      1.0000 0.84860  0.14790  0.39110  Biso   1.000  C
  C41      1.0000 0.72470  0.14350  0.38880  Biso   1.000  C
  C42      1.0000 0.06920  0.16610  0.31750  Biso   1.000  C
  C43      1.0000 0.23300  0.16640  0.71120  Biso   1.000  C
  C44      1.0000 0.34900  0.16680  0.66360  Biso   1.000  C
  C45      1.0000 0.35680  0.16250  0.57700  Biso   1.000  C
  C46      1.0000 0.14740  0.16310  0.58350  Biso   1.000  C
  C47      1.0000 0.12830  0.16670  0.67140  Biso   1.000  C
  C48      1.0000 0.25560  0.21740  0.04860  Biso   1.000  C
  C49      1.0000 0.24410  0.20200  0.96250  Biso   1.000  C
  C50      1.0000 0.33250  0.12380  0.91470  Biso   1.000  C
  C51      1.0000 0.41350  0.05850  0.95770  Biso   1.000  C
  C52      1.0000 0.42180  0.08220  0.03970  Biso   1.000  C
  N5       1.0000 0.34070  0.16810  0.08718  Biso   1.000  N
  N6       1.0000 0.25950  0.16240  0.53515  Biso   1.000  N
  N7       1.0000 0.22340  0.13190  0.80010  Biso   1.000  N
  N8       1.0000 0.32750  0.09310  0.83380  Biso   1.000  N
  O9       1.0000 0.14020  0.17400  0.24778  Biso   1.000  O
  O10      1.0000 0.10260  0.16050  0.38969  Biso   1.000  O
  O11      1.0000 0.50880  0.14820  0.23736  Biso   1.000  O
  O12      1.0000 0.46960  0.15540  0.37947  Biso   1.000  O
  O13      1.0000 0.32700  0.34490  0.23506  Biso   1.000  O
  O14      1.0000 0.27810  0.34200  0.37625  Biso   1.000  O
  O15      1.0000 0.32590  0.97930  0.23655  Biso   1.000  O
  O16      1.0000 0.29950  0.97380  0.37872  Biso   1.000  O
