data_image0
_cell_length_a       16.13
_cell_length_b       16.8787
_cell_length_c       16.8787
_cell_angle_alpha    92.3765
_cell_angle_beta     100.838
_cell_angle_gamma    79.162

_symmetry_space_group_name_H-M    P 1
_symmetry_int_tables_number       1

loop_
  _symmetry_equiv_pos_as_xyz
  'x, y, z'

loop_
  _atom_site_label
  _atom_site_occupancy
  _atom_site_fract_x
  _atom_site_fract_y
  _atom_site_fract_z
  _atom_site_thermal_displace_type
  _atom_site_B_iso_or_equiv
  _atom_site_type_symbol
  Co1      1.0000 0.23666  0.23746  0.78214  Biso   1.000  Co
  Co2      1.0000 0.26334  0.78214  0.23746  Biso   1.000  Co
  Co3      1.0000 0.76334  0.76254  0.21786  Biso   1.000  Co
  Co4      1.0000 0.73666  0.21786  0.76254  Biso   1.000  Co
  H1       1.0000 0.41460  0.48550  0.05490  Biso   1.000  H
  H2       1.0000 0.48810  0.15110  0.67950  Biso   1.000  H
  H3       1.0000 0.52810  0.39660  0.41700  Biso   1.000  H
  H4       1.0000 0.57020  0.07090  0.59730  Biso   1.000  H
  H5       1.0000 0.35980  0.99530  0.47690  Biso   1.000  H
  H6       1.0000 0.27790  0.07000  0.56220  Biso   1.000  H
  H7       1.0000 0.99280  0.16490  0.84390  Biso   1.000  H
  H8       1.0000 0.92080  0.09960  0.91880  Biso   1.000  H
  H9       1.0000 0.34940  0.36090  0.82090  Biso   1.000  H
  H10      1.0000 0.23650  0.26340  0.96480  Biso   1.000  H
  H11      1.0000 0.29110  0.33810  0.07270  Biso   1.000  H
  H12      1.0000 0.41620  0.42960  0.92320  Biso   1.000  H
  H13      1.0000 0.41970  0.58980  0.13300  Biso   1.000  H
  H14      1.0000 0.49210  0.67040  0.22020  Biso   1.000  H
  H15      1.0000 0.57210  0.62340  0.34500  Biso   1.000  H
  H16      1.0000 0.48710  0.41040  0.29680  Biso   1.000  H
  H17      1.0000 0.58980  0.23050  0.62470  Biso   1.000  H
  H18      1.0000 0.52380  0.30270  0.51150  Biso   1.000  H
  H19      1.0000 0.70410  0.43960  0.55780  Biso   1.000  H
  H20      1.0000 0.76190  0.36610  0.67150  Biso   1.000  H
  H21      1.0000 0.13540  0.94520  0.00380  Biso   1.000  H
  H22      1.0000 0.20810  0.01520  0.93240  Biso   1.000  H
  H23      1.0000 0.08540  0.05490  0.48550  Biso   1.000  H
  H24      1.0000 0.01190  0.67950  0.15110  Biso   1.000  H
  H25      1.0000 0.97190  0.41700  0.39660  Biso   1.000  H
  H26      1.0000 0.92980  0.59730  0.07090  Biso   1.000  H
  H27      1.0000 0.14020  0.47690  0.99530  Biso   1.000  H
  H28      1.0000 0.22210  0.56220  0.07000  Biso   1.000  H
  H29      1.0000 0.50720  0.84390  0.16490  Biso   1.000  H
  H30      1.0000 0.57920  0.91880  0.09960  Biso   1.000  H
  H31      1.0000 0.15060  0.82090  0.36090  Biso   1.000  H
  H32      1.0000 0.26350  0.96480  0.26340  Biso   1.000  H
  H33      1.0000 0.20890  0.07270  0.33810  Biso   1.000  H
  H34      1.0000 0.08380  0.92320  0.42960  Biso   1.000  H
  H35      1.0000 0.08030  0.13300  0.58980  Biso   1.000  H
  H36      1.0000 0.00790  0.22020  0.67040  Biso   1.000  H
  H37      1.0000 0.92790  0.34500  0.62340  Biso   1.000  H
  H38      1.0000 0.01290  0.29680  0.41040  Biso   1.000  H
  H39      1.0000 0.91020  0.62470  0.23050  Biso   1.000  H
  H40      1.0000 0.97620  0.51150  0.30270  Biso   1.000  H
  H41      1.0000 0.79590  0.55780  0.43960  Biso   1.000  H
  H42      1.0000 0.73810  0.67150  0.36610  Biso   1.000  H
  H43      1.0000 0.36460  0.00380  0.94520  Biso   1.000  H
  H44      1.0000 0.29190  0.93240  0.01520  Biso   1.000  H
  H45      1.0000 0.58540  0.51450  0.94510  Biso   1.000  H
  H46      1.0000 0.51190  0.84890  0.32050  Biso   1.000  H
  H47      1.0000 0.47190  0.60340  0.58300  Biso   1.000  H
  H48      1.0000 0.42980  0.92910  0.40270  Biso   1.000  H
  H49      1.0000 0.64020  0.00470  0.52310  Biso   1.000  H
  H50      1.0000 0.72210  0.93000  0.43780  Biso   1.000  H
  H51      1.0000 0.00720  0.83510  0.15610  Biso   1.000  H
  H52      1.0000 0.07920  0.90040  0.08120  Biso   1.000  H
  H53      1.0000 0.65060  0.63910  0.17910  Biso   1.000  H
  H54      1.0000 0.76350  0.73660  0.03520  Biso   1.000  H
  H55      1.0000 0.70890  0.66190  0.92730  Biso   1.000  H
  H56      1.0000 0.58380  0.57040  0.07680  Biso   1.000  H
  H57      1.0000 0.58030  0.41020  0.86700  Biso   1.000  H
  H58      1.0000 0.50790  0.32960  0.77980  Biso   1.000  H
  H59      1.0000 0.42790  0.37660  0.65500  Biso   1.000  H
  H60      1.0000 0.51290  0.58960  0.70320  Biso   1.000  H
  H61      1.0000 0.41020  0.76950  0.37530  Biso   1.000  H
  H62      1.0000 0.47620  0.69730  0.48850  Biso   1.000  H
  H63      1.0000 0.29590  0.56040  0.44220  Biso   1.000  H
  H64      1.0000 0.23810  0.63390  0.32850  Biso   1.000  H
  H65      1.0000 0.86460  0.05480  0.99620  Biso   1.000  H
  H66      1.0000 0.79190  0.98480  0.06760  Biso   1.000  H
  H67      1.0000 0.91460  0.94510  0.51450  Biso   1.000  H
  H68      1.0000 0.98810  0.32050  0.84890  Biso   1.000  H
  H69      1.0000 0.02810  0.58300  0.60340  Biso   1.000  H
  H70      1.0000 0.07020  0.40270  0.92910  Biso   1.000  H
  H71      1.0000 0.85980  0.52310  0.00470  Biso   1.000  H
  H72      1.0000 0.77790  0.43780  0.93000  Biso   1.000  H
  H73      1.0000 0.49280  0.15610  0.83510  Biso   1.000  H
  H74      1.0000 0.42080  0.08120  0.90040  Biso   1.000  H
  H75      1.0000 0.84940  0.17910  0.63910  Biso   1.000  H
  H76      1.0000 0.73650  0.03520  0.73660  Biso   1.000  H
  H77      1.0000 0.79110  0.92730  0.66190  Biso   1.000  H
  H78      1.0000 0.91620  0.07680  0.57040  Biso   1.000  H
  H79      1.0000 0.91970  0.86700  0.41020  Biso   1.000  H
  H80      1.0000 0.99210  0.77980  0.32960  Biso   1.000  H
  H81      1.0000 0.07210  0.65500  0.37660  Biso   1.000  H
  H82      1.0000 0.98710  0.70320  0.58960  Biso   1.000  H
  H83      1.0000 0.08980  0.37530  0.76950  Biso   1.000  H
  H84      1.0000 0.02380  0.48850  0.69730  Biso   1.000  H
  H85      1.0000 0.20410  0.44220  0.56040  Biso   1.000  H
  H86      1.0000 0.26190  0.32850  0.63390  Biso   1.000  H
  H87      1.0000 0.63540  0.99620  0.05480  Biso   1.000  H
  H88      1.0000 0.70810  0.06760  0.98480  Biso   1.000  H
  C1       1.0000 0.32144  0.16395  0.68565  Biso   1.000  C
  C2       1.0000 0.37500  0.11704  0.63040  Biso   1.000  C
  C3       1.0000 0.46180  0.11819  0.63909  Biso   1.000  C
  C4       1.0000 0.51013  0.07156  0.58904  Biso   1.000  C
  C5       1.0000 0.47343  0.02547  0.52691  Biso   1.000  C
  C6       1.0000 0.38670  0.02642  0.51882  Biso   1.000  C
  C7       1.0000 0.33760  0.07100  0.56940  Biso   1.000  C
  C8       1.0000 0.16130  0.15822  0.85522  Biso   1.000  C
  C9       1.0000 0.02380  0.12294  0.87956  Biso   1.000  C
  C10      1.0000 0.97990  0.07874  0.91958  Biso   1.000  C
  C11      1.0000 0.33890  0.35440  0.87360  Biso   1.000  C
  C12      1.0000 0.27260  0.29933  0.95603  Biso   1.000  C
  C13      1.0000 0.30510  0.34366  0.02134  Biso   1.000  C
  C14      1.0000 0.35810  0.39589  0.01075  Biso   1.000  C
  C15      1.0000 0.37670  0.39770  0.93350  Biso   1.000  C
  C16      1.0000 0.40570  0.43324  0.15172  Biso   1.000  C
  C17      1.0000 0.45010  0.49088  0.20514  Biso   1.000  C
  C18      1.0000 0.45020  0.56942  0.18398  Biso   1.000  C
  C19      1.0000 0.49320  0.61661  0.23547  Biso   1.000  C
  C20      1.0000 0.53970  0.58963  0.31071  Biso   1.000  C
  C21      1.0000 0.53750  0.51173  0.33477  Biso   1.000  C
  C22      1.0000 0.49070  0.46288  0.28088  Biso   1.000  C
  C23      1.0000 0.61370  0.27443  0.61137  Biso   1.000  C
  C24      1.0000 0.57450  0.31662  0.54298  Biso   1.000  C
  C25      1.0000 0.60800  0.37918  0.51926  Biso   1.000  C
  C26      1.0000 0.67850  0.39633  0.56979  Biso   1.000  C
  C27      1.0000 0.71270  0.35177  0.63787  Biso   1.000  C
  C28      1.0000 0.58730  0.48535  0.41653  Biso   1.000  C
  C29      1.0000 0.10780  0.10660  0.89100  Biso   1.000  C
  C30      1.0000 0.01340  0.00920  0.95920  Biso   1.000  C
  C31      1.0000 0.10500  0.98890  0.97030  Biso   1.000  C
  C32      1.0000 0.14860  0.03370  0.93170  Biso   1.000  C
  C33      1.0000 0.17856  0.68565  0.16395  Biso   1.000  C
  C34      1.0000 0.12500  0.63040  0.11704  Biso   1.000  C
  C35      1.0000 0.03820  0.63909  0.11819  Biso   1.000  C
  C36      1.0000 0.98987  0.58904  0.07156  Biso   1.000  C
  C37      1.0000 0.02657  0.52691  0.02547  Biso   1.000  C
  C38      1.0000 0.11330  0.51882  0.02642  Biso   1.000  C
  C39      1.0000 0.16240  0.56940  0.07100  Biso   1.000  C
  C40      1.0000 0.33870  0.85522  0.15822  Biso   1.000  C
  C41      1.0000 0.47620  0.87956  0.12294  Biso   1.000  C
  C42      1.0000 0.52010  0.91958  0.07874  Biso   1.000  C
  C43      1.0000 0.16110  0.87360  0.35440  Biso   1.000  C
  C44      1.0000 0.22740  0.95603  0.29933  Biso   1.000  C
  C45      1.0000 0.19490  0.02134  0.34366  Biso   1.000  C
  C46      1.0000 0.14190  0.01075  0.39589  Biso   1.000  C
  C47      1.0000 0.12330  0.93350  0.39770  Biso   1.000  C
  C48      1.0000 0.09430  0.15172  0.43324  Biso   1.000  C
  C49      1.0000 0.04990  0.20514  0.49088  Biso   1.000  C
  C50      1.0000 0.04980  0.18398  0.56942  Biso   1.000  C
  C51      1.0000 0.00680  0.23547  0.61661  Biso   1.000  C
  C52      1.0000 0.96030  0.31071  0.58963  Biso   1.000  C
  C53      1.0000 0.96250  0.33477  0.51173  Biso   1.000  C
  C54      1.0000 0.00930  0.28088  0.46288  Biso   1.000  C
  C55      1.0000 0.88630  0.61137  0.27443  Biso   1.000  C
  C56      1.0000 0.92550  0.54298  0.31662  Biso   1.000  C
  C57      1.0000 0.89200  0.51926  0.37918  Biso   1.000  C
  C58      1.0000 0.82150  0.56979  0.39633  Biso   1.000  C
  C59      1.0000 0.78730  0.63787  0.35177  Biso   1.000  C
  C60      1.0000 0.91270  0.41653  0.48535  Biso   1.000  C
  C61      1.0000 0.39220  0.89100  0.10660  Biso   1.000  C
  C62      1.0000 0.48660  0.95920  0.00920  Biso   1.000  C
  C63      1.0000 0.39500  0.97030  0.98890  Biso   1.000  C
  C64      1.0000 0.35140  0.93170  0.03370  Biso   1.000  C
  C65      1.0000 0.67856  0.83605  0.31435  Biso   1.000  C
  C66      1.0000 0.62500  0.88296  0.36960  Biso   1.000  C
  C67      1.0000 0.53820  0.88181  0.36091  Biso   1.000  C
  C68      1.0000 0.48987  0.92844  0.41096  Biso   1.000  C
  C69      1.0000 0.52657  0.97453  0.47309  Biso   1.000  C
  C70      1.0000 0.61330  0.97358  0.48118  Biso   1.000  C
  C71      1.0000 0.66240  0.92900  0.43060  Biso   1.000  C
  C72      1.0000 0.83870  0.84178  0.14478  Biso   1.000  C
  C73      1.0000 0.97620  0.87706  0.12044  Biso   1.000  C
  C74      1.0000 0.02010  0.92126  0.08042  Biso   1.000  C
  C75      1.0000 0.66110  0.64560  0.12640  Biso   1.000  C
  C76      1.0000 0.72740  0.70067  0.04397  Biso   1.000  C
  C77      1.0000 0.69490  0.65634  0.97866  Biso   1.000  C
  C78      1.0000 0.64190  0.60411  0.98925  Biso   1.000  C
  C79      1.0000 0.62330  0.60230  0.06650  Biso   1.000  C
  C80      1.0000 0.59430  0.56676  0.84828  Biso   1.000  C
  C81      1.0000 0.54990  0.50912  0.79486  Biso   1.000  C
  C82      1.0000 0.54980  0.43058  0.81602  Biso   1.000  C
  C83      1.0000 0.50680  0.38339  0.76453  Biso   1.000  C
  C84      1.0000 0.46030  0.41037  0.68929  Biso   1.000  C
  C85      1.0000 0.46250  0.48827  0.66523  Biso   1.000  C
  C86      1.0000 0.50930  0.53712  0.71912  Biso   1.000  C
  C87      1.0000 0.38630  0.72557  0.38863  Biso   1.000  C
  C88      1.0000 0.42550  0.68338  0.45702  Biso   1.000  C
  C89      1.0000 0.39200  0.62082  0.48074  Biso   1.000  C
  C90      1.0000 0.32150  0.60367  0.43021  Biso   1.000  C
  C91      1.0000 0.28730  0.64823  0.36213  Biso   1.000  C
  C92      1.0000 0.41270  0.51465  0.58347  Biso   1.000  C
  C93      1.0000 0.89220  0.89340  0.10900  Biso   1.000  C
  C94      1.0000 0.98660  0.99080  0.04080  Biso   1.000  C
  C95      1.0000 0.89500  0.01110  0.02970  Biso   1.000  C
  C96      1.0000 0.85140  0.96630  0.06830  Biso   1.000  C
  C97      1.0000 0.82144  0.31435  0.83605  Biso   1.000  C
  C98      1.0000 0.87500  0.36960  0.88296  Biso   1.000  C
  C99      1.0000 0.96180  0.36091  0.88181  Biso   1.000  C
  C100     1.0000 0.01013  0.41096  0.92844  Biso   1.000  C
  C101     1.0000 0.97343  0.47309  0.97453  Biso   1.000  C
  C102     1.0000 0.88670  0.48118  0.97358  Biso   1.000  C
  C103     1.0000 0.83760  0.43060  0.92900  Biso   1.000  C
  C104     1.0000 0.66130  0.14478  0.84178  Biso   1.000  C
  C105     1.0000 0.52380  0.12044  0.87706  Biso   1.000  C
  C106     1.0000 0.47990  0.08042  0.92126  Biso   1.000  C
  C107     1.0000 0.83890  0.12640  0.64560  Biso   1.000  C
  C108     1.0000 0.77260  0.04397  0.70067  Biso   1.000  C
  C109     1.0000 0.80510  0.97866  0.65634  Biso   1.000  C
  C110     1.0000 0.85810  0.98925  0.60411  Biso   1.000  C
  C111     1.0000 0.87670  0.06650  0.60230  Biso   1.000  C
  C112     1.0000 0.90570  0.84828  0.56676  Biso   1.000  C
  C113     1.0000 0.95010  0.79486  0.50912  Biso   1.000  C
  C114     1.0000 0.95020  0.81602  0.43058  Biso   1.000  C
  C115     1.0000 0.99320  0.76453  0.38339  Biso   1.000  C
  C116     1.0000 0.03970  0.68929  0.41037  Biso   1.000  C
  C117     1.0000 0.03750  0.66523  0.48827  Biso   1.000  C
  C118     1.0000 0.99070  0.71912  0.53712  Biso   1.000  C
  C119     1.0000 0.11370  0.38863  0.72557  Biso   1.000  C
  C120     1.0000 0.07450  0.45702  0.68338  Biso   1.000  C
  C121     1.0000 0.10800  0.48074  0.62082  Biso   1.000  C
  C122     1.0000 0.17850  0.43021  0.60367  Biso   1.000  C
  C123     1.0000 0.21270  0.36213  0.64823  Biso   1.000  C
  C124     1.0000 0.08730  0.58347  0.51465  Biso   1.000  C
  C125     1.0000 0.60780  0.10900  0.89340  Biso   1.000  C
  C126     1.0000 0.51340  0.04080  0.99080  Biso   1.000  C
  C127     1.0000 0.60500  0.02970  0.01110  Biso   1.000  C
  C128     1.0000 0.64860  0.06830  0.96630  Biso   1.000  C
  N1       1.0000 0.28818  0.30345  0.88187  Biso   1.000  N
  N2       1.0000 0.39570  0.44428  0.07078  Biso   1.000  N
  N3       1.0000 0.68298  0.29079  0.66045  Biso   1.000  N
  N4       1.0000 0.56930  0.41805  0.44691  Biso   1.000  N
  N5       1.0000 0.21182  0.88187  0.30345  Biso   1.000  N
  N6       1.0000 0.10430  0.07078  0.44428  Biso   1.000  N
  N7       1.0000 0.81702  0.66045  0.29079  Biso   1.000  N
  N8       1.0000 0.93070  0.44691  0.41805  Biso   1.000  N
  N9       1.0000 0.71182  0.69655  0.11813  Biso   1.000  N
  N10      1.0000 0.60430  0.55572  0.92922  Biso   1.000  N
  N11      1.0000 0.31702  0.70921  0.33955  Biso   1.000  N
  N12      1.0000 0.43070  0.58195  0.55309  Biso   1.000  N
  N13      1.0000 0.78818  0.11813  0.69655  Biso   1.000  N
  N14      1.0000 0.89570  0.92922  0.55572  Biso   1.000  N
  N15      1.0000 0.18298  0.33955  0.70921  Biso   1.000  N
  N16      1.0000 0.06930  0.55309  0.58195  Biso   1.000  N
  O1       1.0000 0.35398  0.21382  0.73504  Biso   1.000  O
  O2       1.0000 0.24707  0.15275  0.68425  Biso   1.000  O
  O3       1.0000 0.12279  0.21987  0.81583  Biso   1.000  O
  O4       1.0000 0.24113  0.13483  0.86117  Biso   1.000  O
  O5       1.0000 0.38220  0.37891  0.18007  Biso   1.000  O
  O6       1.0000 0.63980  0.52104  0.45270  Biso   1.000  O
  O7       1.0000 0.14602  0.73504  0.21382  Biso   1.000  O
  O8       1.0000 0.25293  0.68425  0.15275  Biso   1.000  O
  O9       1.0000 0.37721  0.81583  0.21987  Biso   1.000  O
  O10      1.0000 0.25887  0.86117  0.13483  Biso   1.000  O
  O11      1.0000 0.11780  0.18007  0.37891  Biso   1.000  O
  O12      1.0000 0.86020  0.45270  0.52104  Biso   1.000  O
  O13      1.0000 0.64602  0.78618  0.26496  Biso   1.000  O
  O14      1.0000 0.75293  0.84725  0.31575  Biso   1.000  O
  O15      1.0000 0.87721  0.78013  0.18417  Biso   1.000  O
  O16      1.0000 0.75887  0.86517  0.13883  Biso   1.000  O
  O17      1.0000 0.61780  0.62109  0.81993  Biso   1.000  O
  O18      1.0000 0.36020  0.47896  0.54730  Biso   1.000  O
  O19      1.0000 0.85398  0.26496  0.78618  Biso   1.000  O
  O20      1.0000 0.74707  0.31575  0.84725  Biso   1.000  O
  O21      1.0000 0.62279  0.18417  0.78013  Biso   1.000  O
  O22      1.0000 0.74113  0.13883  0.86517  Biso   1.000  O
  O23      1.0000 0.88220  0.81993  0.62109  Biso   1.000  O
  O24      1.0000 0.13980  0.54730  0.47896  Biso   1.000  O
