data_image0
_cell_length_a       15.1056
_cell_length_b       15.1056
_cell_length_c       16.1364
_cell_angle_alpha    85.6484
_cell_angle_beta     85.6484
_cell_angle_gamma    85.6272

_symmetry_space_group_name_H-M    P 1
_symmetry_int_tables_number       1

loop_
  _symmetry_equiv_pos_as_xyz
  'x, y, z'

loop_
  _atom_site_label
  _atom_site_occupancy
  _atom_site_fract_x
  _atom_site_fract_y
  _atom_site_fract_z
  _atom_site_thermal_displace_type
  _atom_site_B_iso_or_equiv
  _atom_site_type_symbol
  Co1      1.0000 0.80120  0.77234  0.75473  Biso   1.000  Co
  Co2      1.0000 0.22766  0.19880  0.74527  Biso   1.000  Co
  Co3      1.0000 0.19880  0.22766  0.24527  Biso   1.000  Co
  Co4      1.0000 0.77234  0.80120  0.25473  Biso   1.000  Co
  H1       1.0000 0.52690  0.07550  0.57550  Biso   1.000  H
  H2       1.0000 0.61460  0.41780  0.40460  Biso   1.000  H
  H3       1.0000 0.89270  0.92870  0.11780  Biso   1.000  H
  H4       1.0000 0.83460  0.85620  0.01720  Biso   1.000  H
  H5       1.0000 0.00550  0.96130  0.84140  Biso   1.000  H
  H6       1.0000 0.04290  0.40050  0.63330  Biso   1.000  H
  H7       1.0000 0.96970  0.50450  0.71240  Biso   1.000  H
  H8       1.0000 0.90220  0.65160  0.50730  Biso   1.000  H
  H9       1.0000 0.58460  0.33120  0.50510  Biso   1.000  H
  H10      1.0000 0.34180  0.37760  0.42680  Biso   1.000  H
  H11      1.0000 0.29800  0.25040  0.50670  Biso   1.000  H
  H12      1.0000 0.40230  0.15870  0.57550  Biso   1.000  H
  H13      1.0000 0.78480  0.98100  0.75540  Biso   1.000  H
  H14      1.0000 0.69860  0.09880  0.70140  Biso   1.000  H
  H15      1.0000 0.58350  0.93050  0.57600  Biso   1.000  H
  H16      1.0000 0.66970  0.81850  0.63430  Biso   1.000  H
  H17      1.0000 0.80390  0.62310  0.33910  Biso   1.000  H
  H18      1.0000 0.73810  0.49890  0.39050  Biso   1.000  H
  H19      1.0000 0.51490  0.60030  0.29550  Biso   1.000  H
  H20      1.0000 0.58870  0.72270  0.24500  Biso   1.000  H
  H21      1.0000 0.92450  0.47310  0.92450  Biso   1.000  H
  H22      1.0000 0.58220  0.38540  0.09540  Biso   1.000  H
  H23      1.0000 0.07130  0.10730  0.38220  Biso   1.000  H
  H24      1.0000 0.14380  0.16540  0.48280  Biso   1.000  H
  H25      1.0000 0.03870  0.99450  0.65860  Biso   1.000  H
  H26      1.0000 0.59950  0.95710  0.86670  Biso   1.000  H
  H27      1.0000 0.49550  0.03030  0.78760  Biso   1.000  H
  H28      1.0000 0.34840  0.09780  0.99270  Biso   1.000  H
  H29      1.0000 0.66880  0.41540  0.99490  Biso   1.000  H
  H30      1.0000 0.62240  0.65820  0.07320  Biso   1.000  H
  H31      1.0000 0.74960  0.70200  0.99330  Biso   1.000  H
  H32      1.0000 0.84130  0.59770  0.92450  Biso   1.000  H
  H33      1.0000 0.01900  0.21520  0.74460  Biso   1.000  H
  H34      1.0000 0.90120  0.30140  0.79860  Biso   1.000  H
  H35      1.0000 0.06950  0.41650  0.92400  Biso   1.000  H
  H36      1.0000 0.18150  0.33030  0.86570  Biso   1.000  H
  H37      1.0000 0.37690  0.19610  0.16090  Biso   1.000  H
  H38      1.0000 0.50110  0.26190  0.10950  Biso   1.000  H
  H39      1.0000 0.39970  0.48510  0.20450  Biso   1.000  H
  H40      1.0000 0.27730  0.41130  0.25500  Biso   1.000  H
  H41      1.0000 0.47310  0.92450  0.42450  Biso   1.000  H
  H42      1.0000 0.38540  0.58220  0.59540  Biso   1.000  H
  H43      1.0000 0.10730  0.07130  0.88220  Biso   1.000  H
  H44      1.0000 0.16540  0.14380  0.98280  Biso   1.000  H
  H45      1.0000 0.99450  0.03870  0.15860  Biso   1.000  H
  H46      1.0000 0.95710  0.59950  0.36670  Biso   1.000  H
  H47      1.0000 0.03030  0.49550  0.28760  Biso   1.000  H
  H48      1.0000 0.09780  0.34840  0.49270  Biso   1.000  H
  H49      1.0000 0.41540  0.66880  0.49490  Biso   1.000  H
  H50      1.0000 0.65820  0.62240  0.57320  Biso   1.000  H
  H51      1.0000 0.70200  0.74960  0.49330  Biso   1.000  H
  H52      1.0000 0.59770  0.84130  0.42450  Biso   1.000  H
  H53      1.0000 0.21520  0.01900  0.24460  Biso   1.000  H
  H54      1.0000 0.30140  0.90120  0.29860  Biso   1.000  H
  H55      1.0000 0.41650  0.06950  0.42400  Biso   1.000  H
  H56      1.0000 0.33030  0.18150  0.36570  Biso   1.000  H
  H57      1.0000 0.19610  0.37690  0.66090  Biso   1.000  H
  H58      1.0000 0.26190  0.50110  0.60950  Biso   1.000  H
  H59      1.0000 0.48510  0.39970  0.70450  Biso   1.000  H
  H60      1.0000 0.41130  0.27730  0.75500  Biso   1.000  H
  H61      1.0000 0.07550  0.52690  0.07550  Biso   1.000  H
  H62      1.0000 0.41780  0.61460  0.90460  Biso   1.000  H
  H63      1.0000 0.92870  0.89270  0.61780  Biso   1.000  H
  H64      1.0000 0.85620  0.83460  0.51720  Biso   1.000  H
  H65      1.0000 0.96130  0.00550  0.34140  Biso   1.000  H
  H66      1.0000 0.40050  0.04290  0.13330  Biso   1.000  H
  H67      1.0000 0.50450  0.96970  0.21240  Biso   1.000  H
  H68      1.0000 0.65160  0.90220  0.00730  Biso   1.000  H
  H69      1.0000 0.33120  0.58460  0.00510  Biso   1.000  H
  H70      1.0000 0.37760  0.34180  0.92680  Biso   1.000  H
  H71      1.0000 0.25040  0.29800  0.00670  Biso   1.000  H
  H72      1.0000 0.15870  0.40230  0.07550  Biso   1.000  H
  H73      1.0000 0.98100  0.78480  0.25540  Biso   1.000  H
  H74      1.0000 0.09880  0.69860  0.20140  Biso   1.000  H
  H75      1.0000 0.93050  0.58350  0.07600  Biso   1.000  H
  H76      1.0000 0.81850  0.66970  0.13430  Biso   1.000  H
  H77      1.0000 0.62310  0.80390  0.83910  Biso   1.000  H
  H78      1.0000 0.49890  0.73810  0.89050  Biso   1.000  H
  H79      1.0000 0.60030  0.51490  0.79550  Biso   1.000  H
  H80      1.0000 0.72270  0.58870  0.74500  Biso   1.000  H
  C1       1.0000 0.87830  0.85330  0.85380  Biso   1.000  C
  C2       1.0000 0.91460  0.93680  0.06250  Biso   1.000  C
  C3       1.0000 0.88090  0.89290  0.00290  Biso   1.000  C
  C4       1.0000 0.91640  0.90280  0.91870  Biso   1.000  C
  C5       1.0000 0.98250  0.95610  0.89650  Biso   1.000  C
  C6       1.0000 0.01830  0.00630  0.95930  Biso   1.000  C
  C7       1.0000 0.88070  0.65690  0.66940  Biso   1.000  C
  C8       1.0000 0.01570  0.45130  0.60720  Biso   1.000  C
  C9       1.0000 0.97170  0.51290  0.65460  Biso   1.000  C
  C10      1.0000 0.92900  0.58940  0.61630  Biso   1.000  C
  C11      1.0000 0.93160  0.60120  0.53220  Biso   1.000  C
  C12      1.0000 0.97830  0.53790  0.48140  Biso   1.000  C
  C13      1.0000 0.57260  0.18360  0.59660  Biso   1.000  C
  C14      1.0000 0.49130  0.44910  0.40670  Biso   1.000  C
  C15      1.0000 0.50190  0.23590  0.54790  Biso   1.000  C
  C16      1.0000 0.52710  0.31390  0.50290  Biso   1.000  C
  C17      1.0000 0.46870  0.36490  0.45620  Biso   1.000  C
  C18      1.0000 0.38280  0.34220  0.45720  Biso   1.000  C
  C19      1.0000 0.35680  0.26520  0.50440  Biso   1.000  C
  C20      1.0000 0.41850  0.21150  0.54720  Biso   1.000  C
  C21      1.0000 0.74190  0.97010  0.71980  Biso   1.000  C
  C22      1.0000 0.69060  0.04160  0.68710  Biso   1.000  C
  C23      1.0000 0.62770  0.02810  0.63340  Biso   1.000  C
  C24      1.0000 0.62320  0.94300  0.61420  Biso   1.000  C
  C25      1.0000 0.67520  0.87600  0.64930  Biso   1.000  C
  C26      1.0000 0.74440  0.61900  0.33000  Biso   1.000  C
  C27      1.0000 0.70510  0.54450  0.36220  Biso   1.000  C
  C28      1.0000 0.61660  0.53740  0.35240  Biso   1.000  C
  C29      1.0000 0.57400  0.60380  0.30630  Biso   1.000  C
  C30      1.0000 0.61940  0.67720  0.27540  Biso   1.000  C
  C31      1.0000 0.14670  0.12170  0.64620  Biso   1.000  C
  C32      1.0000 0.06320  0.08540  0.43750  Biso   1.000  C
  C33      1.0000 0.10710  0.11910  0.49710  Biso   1.000  C
  C34      1.0000 0.09720  0.08360  0.58130  Biso   1.000  C
  C35      1.0000 0.04390  0.01750  0.60350  Biso   1.000  C
  C36      1.0000 0.99370  0.98170  0.54070  Biso   1.000  C
  C37      1.0000 0.34310  0.11930  0.83060  Biso   1.000  C
  C38      1.0000 0.54870  0.98430  0.89280  Biso   1.000  C
  C39      1.0000 0.48710  0.02830  0.84540  Biso   1.000  C
  C40      1.0000 0.41060  0.07100  0.88370  Biso   1.000  C
  C41      1.0000 0.39880  0.06840  0.96780  Biso   1.000  C
  C42      1.0000 0.46210  0.02170  0.01860  Biso   1.000  C
  C43      1.0000 0.81640  0.42740  0.90340  Biso   1.000  C
  C44      1.0000 0.55090  0.50870  0.09330  Biso   1.000  C
  C45      1.0000 0.76410  0.49810  0.95210  Biso   1.000  C
  C46      1.0000 0.68610  0.47290  0.99710  Biso   1.000  C
  C47      1.0000 0.63510  0.53130  0.04380  Biso   1.000  C
  C48      1.0000 0.65780  0.61720  0.04280  Biso   1.000  C
  C49      1.0000 0.73480  0.64320  0.99560  Biso   1.000  C
  C50      1.0000 0.78850  0.58150  0.95280  Biso   1.000  C
  C51      1.0000 0.02990  0.25810  0.78020  Biso   1.000  C
  C52      1.0000 0.95840  0.30940  0.81290  Biso   1.000  C
  C53      1.0000 0.97190  0.37230  0.86660  Biso   1.000  C
  C54      1.0000 0.05700  0.37680  0.88580  Biso   1.000  C
  C55      1.0000 0.12400  0.32480  0.85070  Biso   1.000  C
  C56      1.0000 0.38100  0.25560  0.17000  Biso   1.000  C
  C57      1.0000 0.45550  0.29490  0.13780  Biso   1.000  C
  C58      1.0000 0.46260  0.38340  0.14760  Biso   1.000  C
  C59      1.0000 0.39620  0.42600  0.19370  Biso   1.000  C
  C60      1.0000 0.32280  0.38060  0.22460  Biso   1.000  C
  C61      1.0000 0.12170  0.14670  0.14620  Biso   1.000  C
  C62      1.0000 0.08540  0.06320  0.93750  Biso   1.000  C
  C63      1.0000 0.11910  0.10710  0.99710  Biso   1.000  C
  C64      1.0000 0.08360  0.09720  0.08130  Biso   1.000  C
  C65      1.0000 0.01750  0.04390  0.10350  Biso   1.000  C
  C66      1.0000 0.98170  0.99370  0.04070  Biso   1.000  C
  C67      1.0000 0.11930  0.34310  0.33060  Biso   1.000  C
  C68      1.0000 0.98430  0.54870  0.39280  Biso   1.000  C
  C69      1.0000 0.02830  0.48710  0.34540  Biso   1.000  C
  C70      1.0000 0.07100  0.41060  0.38370  Biso   1.000  C
  C71      1.0000 0.06840  0.39880  0.46780  Biso   1.000  C
  C72      1.0000 0.02170  0.46210  0.51860  Biso   1.000  C
  C73      1.0000 0.42740  0.81640  0.40340  Biso   1.000  C
  C74      1.0000 0.50870  0.55090  0.59330  Biso   1.000  C
  C75      1.0000 0.49810  0.76410  0.45210  Biso   1.000  C
  C76      1.0000 0.47290  0.68610  0.49710  Biso   1.000  C
  C77      1.0000 0.53130  0.63510  0.54380  Biso   1.000  C
  C78      1.0000 0.61720  0.65780  0.54280  Biso   1.000  C
  C79      1.0000 0.64320  0.73480  0.49560  Biso   1.000  C
  C80      1.0000 0.58150  0.78850  0.45280  Biso   1.000  C
  C81      1.0000 0.25810  0.02990  0.28020  Biso   1.000  C
  C82      1.0000 0.30940  0.95840  0.31290  Biso   1.000  C
  C83      1.0000 0.37230  0.97190  0.36660  Biso   1.000  C
  C84      1.0000 0.37680  0.05700  0.38580  Biso   1.000  C
  C85      1.0000 0.32480  0.12400  0.35070  Biso   1.000  C
  C86      1.0000 0.25560  0.38100  0.67000  Biso   1.000  C
  C87      1.0000 0.29490  0.45550  0.63780  Biso   1.000  C
  C88      1.0000 0.38340  0.46260  0.64760  Biso   1.000  C
  C89      1.0000 0.42600  0.39620  0.69370  Biso   1.000  C
  C90      1.0000 0.38060  0.32280  0.72460  Biso   1.000  C
  C91      1.0000 0.85330  0.87830  0.35380  Biso   1.000  C
  C92      1.0000 0.93680  0.91460  0.56250  Biso   1.000  C
  C93      1.0000 0.89290  0.88090  0.50290  Biso   1.000  C
  C94      1.0000 0.90280  0.91640  0.41870  Biso   1.000  C
  C95      1.0000 0.95610  0.98250  0.39650  Biso   1.000  C
  C96      1.0000 0.00630  0.01830  0.45930  Biso   1.000  C
  C97      1.0000 0.65690  0.88070  0.16940  Biso   1.000  C
  C98      1.0000 0.45130  0.01570  0.10720  Biso   1.000  C
  C99      1.0000 0.51290  0.97170  0.15460  Biso   1.000  C
  C100     1.0000 0.58940  0.92900  0.11630  Biso   1.000  C
  C101     1.0000 0.60120  0.93160  0.03220  Biso   1.000  C
  C102     1.0000 0.53790  0.97830  0.98140  Biso   1.000  C
  C103     1.0000 0.18360  0.57260  0.09660  Biso   1.000  C
  C104     1.0000 0.44910  0.49130  0.90670  Biso   1.000  C
  C105     1.0000 0.23590  0.50190  0.04790  Biso   1.000  C
  C106     1.0000 0.31390  0.52710  0.00290  Biso   1.000  C
  C107     1.0000 0.36490  0.46870  0.95620  Biso   1.000  C
  C108     1.0000 0.34220  0.38280  0.95720  Biso   1.000  C
  C109     1.0000 0.26520  0.35680  0.00440  Biso   1.000  C
  C110     1.0000 0.21150  0.41850  0.04720  Biso   1.000  C
  C111     1.0000 0.97010  0.74190  0.21980  Biso   1.000  C
  C112     1.0000 0.04160  0.69060  0.18710  Biso   1.000  C
  C113     1.0000 0.02810  0.62770  0.13340  Biso   1.000  C
  C114     1.0000 0.94300  0.62320  0.11420  Biso   1.000  C
  C115     1.0000 0.87600  0.67520  0.14930  Biso   1.000  C
  C116     1.0000 0.61900  0.74440  0.83000  Biso   1.000  C
  C117     1.0000 0.54450  0.70510  0.86220  Biso   1.000  C
  C118     1.0000 0.53740  0.61660  0.85240  Biso   1.000  C
  C119     1.0000 0.60380  0.57400  0.80630  Biso   1.000  C
  C120     1.0000 0.67720  0.61940  0.77540  Biso   1.000  C
  N1       1.0000 0.73390  0.88750  0.70390  Biso   1.000  N
  N2       1.0000 0.57040  0.09420  0.59900  Biso   1.000  N
  N3       1.0000 0.70360  0.68600  0.28670  Biso   1.000  N
  N4       1.0000 0.57810  0.46190  0.39010  Biso   1.000  N
  N5       1.0000 0.11250  0.26610  0.79610  Biso   1.000  N
  N6       1.0000 0.90580  0.42960  0.90100  Biso   1.000  N
  N7       1.0000 0.31400  0.29640  0.21330  Biso   1.000  N
  N8       1.0000 0.53810  0.42190  0.10990  Biso   1.000  N
  N9       1.0000 0.26610  0.11250  0.29610  Biso   1.000  N
  N10      1.0000 0.42960  0.90580  0.40100  Biso   1.000  N
  N11      1.0000 0.29640  0.31400  0.71330  Biso   1.000  N
  N12      1.0000 0.42190  0.53810  0.60990  Biso   1.000  N
  N13      1.0000 0.88750  0.73390  0.20390  Biso   1.000  N
  N14      1.0000 0.09420  0.57040  0.09900  Biso   1.000  N
  N15      1.0000 0.68600  0.70360  0.78670  Biso   1.000  N
  N16      1.0000 0.46190  0.57810  0.89010  Biso   1.000  N
  O1       1.0000 0.91350  0.84930  0.78200  Biso   1.000  O
  O2       1.0000 0.80660  0.81640  0.87380  Biso   1.000  O
  O3       1.0000 0.88670  0.65050  0.74740  Biso   1.000  O
  O4       1.0000 0.83300  0.71920  0.63770  Biso   1.000  O
  O5       1.0000 0.62760  0.22080  0.63260  Biso   1.000  O
  O6       1.0000 0.43330  0.50370  0.38260  Biso   1.000  O
  O7       1.0000 0.15070  0.08650  0.71800  Biso   1.000  O
  O8       1.0000 0.18360  0.19340  0.62620  Biso   1.000  O
  O9       1.0000 0.34950  0.11330  0.75260  Biso   1.000  O
  O10      1.0000 0.28080  0.16700  0.86230  Biso   1.000  O
  O11      1.0000 0.77920  0.37240  0.86740  Biso   1.000  O
  O12      1.0000 0.49630  0.56670  0.11740  Biso   1.000  O
  O13      1.0000 0.08650  0.15070  0.21800  Biso   1.000  O
  O14      1.0000 0.19340  0.18360  0.12620  Biso   1.000  O
  O15      1.0000 0.11330  0.34950  0.25260  Biso   1.000  O
  O16      1.0000 0.16700  0.28080  0.36230  Biso   1.000  O
  O17      1.0000 0.37240  0.77920  0.36740  Biso   1.000  O
  O18      1.0000 0.56670  0.49630  0.61740  Biso   1.000  O
  O19      1.0000 0.84930  0.91350  0.28200  Biso   1.000  O
  O20      1.0000 0.81640  0.80660  0.37380  Biso   1.000  O
  O21      1.0000 0.65050  0.88670  0.24740  Biso   1.000  O
  O22      1.0000 0.71920  0.83300  0.13770  Biso   1.000  O
  O23      1.0000 0.22080  0.62760  0.13260  Biso   1.000  O
  O24      1.0000 0.50370  0.43330  0.88260  Biso   1.000  O
