data_image0
_cell_length_a       18.9895
_cell_length_b       28.481
_cell_length_c       16.9587
_cell_angle_alpha    90
_cell_angle_beta     119.896
_cell_angle_gamma    90

_symmetry_space_group_name_H-M    "P 1"
_symmetry_int_tables_number       1

loop_
  _symmetry_equiv_pos_as_xyz
  'x, y, z'

loop_
  _atom_site_label
  _atom_site_occupancy
  _atom_site_fract_x
  _atom_site_fract_y
  _atom_site_fract_z
  _atom_site_thermal_displace_type
  _atom_site_B_iso_or_equiv
  _atom_site_type_symbol
  Cd1      1.0000 0.40033  0.63052  0.37225  Biso   1.000  Cd
  Na1      1.0000 0.20235  0.60864  0.28182  Biso   1.000  Na
  O1       1.0000 0.43840  0.43126  0.97400  Biso   1.000  O
  O2       1.0000 0.40590  0.59183  0.26230  Biso   1.000  O
  O3       1.0000 0.28830  0.56260  0.23200  Biso   1.000  O
  O4       1.0000 0.28790  0.67119  0.28040  Biso   1.000  O
  O5       1.0000 0.03400  0.83807  0.92300  Biso   1.000  O
  O6       1.0000 0.96570  0.81429  0.98890  Biso   1.000  O
  O7       1.0000 0.31560  0.40475  0.92960  Biso   1.000  O
  O8       1.0000 0.36840  0.70583  0.23970  Biso   1.000  O
  O9       1.0000 0.86940  0.66346  0.17640  Biso   1.000  O
  O10      1.0000 0.94720  0.57540  0.13600  Biso   1.000  O
  O11      1.0000 0.95000  0.69570  0.13450  Biso   1.000  O
  C1       1.0000 0.34690  0.56400  0.22100  Biso   1.000  C
  C2       1.0000 0.82720  0.75750  0.01620  Biso   1.000  C
  H1       1.0000 0.88070  0.76280  0.02710  Biso   1.000  H
  C3       1.0000 0.30150  0.69970  0.23330  Biso   1.000  C
  C4       1.0000 0.35230  0.53010  0.15460  Biso   1.000  C
  C5       1.0000 0.81390  0.72240  0.06250  Biso   1.000  C
  C6       1.0000 0.23520  0.75650  0.10230  Biso   1.000  C
  H2       1.0000 0.28380  0.75660  0.09910  Biso   1.000  H
  C7       1.0000 0.37310  0.43250  0.97500  Biso   1.000  C
  C8       1.0000 0.15800  0.72810  0.16800  Biso   1.000  C
  H3       1.0000 0.15290  0.70840  0.21000  Biso   1.000  H
  C9       1.0000 0.02780  0.81350  0.98130  Biso   1.000  C
  C10      1.0000 0.09880  0.78350  0.04500  Biso   1.000  C
  O12      1.0000 0.07340  0.58980  0.17720  Biso   1.000  O
  C11      1.0000 0.16990  0.78350  0.04250  Biso   1.000  C
  H4       1.0000 0.17430  0.80240  0.99900  Biso   1.000  H
  C12      1.0000 0.29460  0.49620  0.11150  Biso   1.000  C
  H5       1.0000 0.25000  0.49400  0.12200  Biso   1.000  H
  C13      1.0000 0.73500  0.71500  0.04560  Biso   1.000  C
  H6       1.0000 0.72450  0.69090  0.07690  Biso   1.000  H
  C14      1.0000 0.42040  0.50230  0.07620  Biso   1.000  C
  H7       1.0000 0.46390  0.50500  0.06390  Biso   1.000  H
  C15      1.0000 0.41460  0.53400  0.13630  Biso   1.000  C
  H8       1.0000 0.45390  0.55810  0.16420  Biso   1.000  H
  C16      1.0000 0.23010  0.72920  0.16670  Biso   1.000  C
  C17      1.0000 0.36350  0.46750  0.03530  Biso   1.000  C
  C18      1.0000 0.88190  0.69190  0.12910  Biso   1.000  C
  C19      1.0000 0.09330  0.75560  0.10840  Biso   1.000  C
  H9       1.0000 0.04450  0.75530  0.11090  Biso   1.000  H
  C20      1.0000 0.30060  0.46510  0.05300  Biso   1.000  C
  H10      1.0000 0.26040  0.44140  0.02440  Biso   1.000  H
  C21      1.0000 0.00520  0.53280  0.06280  Biso   1.000  C
  C22      1.0000 0.93390  0.50710  0.01130  Biso   1.000  C
  H11      1.0000 0.88850  0.51200  0.01940  Biso   1.000  H
  C23      1.0000 0.07040  0.52480  0.05030  Biso   1.000  C
  H12      1.0000 0.11930  0.54200  0.08540  Biso   1.000  H
  C24      1.0000 0.00960  0.56860  0.13040  Biso   1.000  C
  Cd2      1.0000 0.90033  0.13052  0.37225  Biso   1.000  Cd
  Na2      1.0000 0.70235  0.10864  0.28182  Biso   1.000  Na
  O13      1.0000 0.93840  0.93126  0.97400  Biso   1.000  O
  O14      1.0000 0.90590  0.09183  0.26230  Biso   1.000  O
  O15      1.0000 0.78830  0.06260  0.23200  Biso   1.000  O
  O16      1.0000 0.78790  0.17119  0.28040  Biso   1.000  O
  O17      1.0000 0.53400  0.33807  0.92300  Biso   1.000  O
  O18      1.0000 0.46570  0.31429  0.98890  Biso   1.000  O
  O19      1.0000 0.81560  0.90475  0.92960  Biso   1.000  O
  O20      1.0000 0.86840  0.20583  0.23970  Biso   1.000  O
  O21      1.0000 0.36940  0.16346  0.17640  Biso   1.000  O
  O22      1.0000 0.44720  0.07540  0.13600  Biso   1.000  O
  O23      1.0000 0.45000  0.19570  0.13450  Biso   1.000  O
  C25      1.0000 0.84690  0.06400  0.22100  Biso   1.000  C
  C26      1.0000 0.32720  0.25750  0.01620  Biso   1.000  C
  H13      1.0000 0.38070  0.26280  0.02710  Biso   1.000  H
  C27      1.0000 0.80150  0.19970  0.23330  Biso   1.000  C
  C28      1.0000 0.85230  0.03010  0.15460  Biso   1.000  C
  C29      1.0000 0.31390  0.22240  0.06250  Biso   1.000  C
  C30      1.0000 0.73520  0.25650  0.10230  Biso   1.000  C
  H14      1.0000 0.78380  0.25660  0.09910  Biso   1.000  H
  C31      1.0000 0.87310  0.93250  0.97500  Biso   1.000  C
  C32      1.0000 0.65800  0.22810  0.16800  Biso   1.000  C
  H15      1.0000 0.65290  0.20840  0.21000  Biso   1.000  H
  C33      1.0000 0.52780  0.31350  0.98130  Biso   1.000  C
  C34      1.0000 0.59880  0.28350  0.04500  Biso   1.000  C
  O24      1.0000 0.57340  0.08980  0.17720  Biso   1.000  O
  C35      1.0000 0.66990  0.28350  0.04250  Biso   1.000  C
  H16      1.0000 0.67430  0.30240  0.99900  Biso   1.000  H
  C36      1.0000 0.79460  0.99620  0.11150  Biso   1.000  C
  H17      1.0000 0.75000  0.99400  0.12200  Biso   1.000  H
  C37      1.0000 0.23500  0.21500  0.04560  Biso   1.000  C
  H18      1.0000 0.22450  0.19090  0.07690  Biso   1.000  H
  C38      1.0000 0.92040  0.00230  0.07620  Biso   1.000  C
  H19      1.0000 0.96390  0.00500  0.06390  Biso   1.000  H
  C39      1.0000 0.91460  0.03400  0.13630  Biso   1.000  C
  H20      1.0000 0.95390  0.05810  0.16420  Biso   1.000  H
  C40      1.0000 0.73010  0.22920  0.16670  Biso   1.000  C
  C41      1.0000 0.86350  0.96750  0.03530  Biso   1.000  C
  C42      1.0000 0.38190  0.19190  0.12910  Biso   1.000  C
  C43      1.0000 0.59330  0.25560  0.10840  Biso   1.000  C
  H21      1.0000 0.54450  0.25530  0.11090  Biso   1.000  H
  C44      1.0000 0.80060  0.96510  0.05300  Biso   1.000  C
  H22      1.0000 0.76040  0.94140  0.02440  Biso   1.000  H
  C45      1.0000 0.50520  0.03280  0.06280  Biso   1.000  C
  C46      1.0000 0.43390  0.00710  0.01130  Biso   1.000  C
  H23      1.0000 0.38850  0.01200  0.01940  Biso   1.000  H
  C47      1.0000 0.57040  0.02480  0.05030  Biso   1.000  C
  H24      1.0000 0.61930  0.04200  0.08540  Biso   1.000  H
  C48      1.0000 0.50960  0.06860  0.13040  Biso   1.000  C
  Cd3      1.0000 0.59967  0.63052  0.12775  Biso   1.000  Cd
  Na3      1.0000 0.79765  0.60864  0.21818  Biso   1.000  Na
  O25      1.0000 0.56160  0.43126  0.52600  Biso   1.000  O
  O26      1.0000 0.59410  0.59183  0.23770  Biso   1.000  O
  O27      1.0000 0.71170  0.56260  0.26800  Biso   1.000  O
  O28      1.0000 0.71210  0.67119  0.21960  Biso   1.000  O
  O29      1.0000 0.96600  0.83807  0.57700  Biso   1.000  O
  O30      1.0000 0.03430  0.81429  0.51110  Biso   1.000  O
  O31      1.0000 0.68440  0.40475  0.57040  Biso   1.000  O
  O32      1.0000 0.63160  0.70583  0.26030  Biso   1.000  O
  O33      1.0000 0.13060  0.66346  0.32360  Biso   1.000  O
  O34      1.0000 0.05280  0.57540  0.36400  Biso   1.000  O
  O35      1.0000 0.05000  0.69570  0.36550  Biso   1.000  O
  C49      1.0000 0.65310  0.56400  0.27900  Biso   1.000  C
  C50      1.0000 0.17280  0.75750  0.48380  Biso   1.000  C
  H25      1.0000 0.11930  0.76280  0.47290  Biso   1.000  H
  C51      1.0000 0.69850  0.69970  0.26670  Biso   1.000  C
  C52      1.0000 0.64770  0.53010  0.34540  Biso   1.000  C
  C53      1.0000 0.18610  0.72240  0.43750  Biso   1.000  C
  C54      1.0000 0.76480  0.75650  0.39770  Biso   1.000  C
  H26      1.0000 0.71620  0.75660  0.40090  Biso   1.000  H
  C55      1.0000 0.62690  0.43250  0.52500  Biso   1.000  C
  C56      1.0000 0.84200  0.72810  0.33200  Biso   1.000  C
  H27      1.0000 0.84710  0.70840  0.29000  Biso   1.000  H
  C57      1.0000 0.97220  0.81350  0.51870  Biso   1.000  C
  C58      1.0000 0.90120  0.78350  0.45500  Biso   1.000  C
  O36      1.0000 0.92660  0.58980  0.32280  Biso   1.000  O
  C59      1.0000 0.83010  0.78350  0.45750  Biso   1.000  C
  H28      1.0000 0.82570  0.80240  0.50100  Biso   1.000  H
  C60      1.0000 0.70540  0.49620  0.38850  Biso   1.000  C
  H29      1.0000 0.75000  0.49400  0.37800  Biso   1.000  H
  C61      1.0000 0.26500  0.71500  0.45440  Biso   1.000  C
  H30      1.0000 0.27550  0.69090  0.42310  Biso   1.000  H
  C62      1.0000 0.57960  0.50230  0.42380  Biso   1.000  C
  H31      1.0000 0.53610  0.50500  0.43610  Biso   1.000  H
  C63      1.0000 0.58540  0.53400  0.36370  Biso   1.000  C
  H32      1.0000 0.54610  0.55810  0.33580  Biso   1.000  H
  C64      1.0000 0.76990  0.72920  0.33330  Biso   1.000  C
  C65      1.0000 0.63650  0.46750  0.46470  Biso   1.000  C
  C66      1.0000 0.11810  0.69190  0.37090  Biso   1.000  C
  C67      1.0000 0.90670  0.75560  0.39160  Biso   1.000  C
  H33      1.0000 0.95550  0.75530  0.38910  Biso   1.000  H
  C68      1.0000 0.69940  0.46510  0.44700  Biso   1.000  C
  H34      1.0000 0.73960  0.44140  0.47560  Biso   1.000  H
  C69      1.0000 0.99480  0.53280  0.43720  Biso   1.000  C
  C70      1.0000 0.06610  0.50710  0.48870  Biso   1.000  C
  H35      1.0000 0.11150  0.51200  0.48060  Biso   1.000  H
  C71      1.0000 0.92960  0.52480  0.44970  Biso   1.000  C
  H36      1.0000 0.88070  0.54200  0.41460  Biso   1.000  H
  C72      1.0000 0.99040  0.56860  0.36960  Biso   1.000  C
  Cd4      1.0000 0.09967  0.13052  0.12775  Biso   1.000  Cd
  Na4      1.0000 0.29765  0.10864  0.21818  Biso   1.000  Na
  O37      1.0000 0.06160  0.93126  0.52600  Biso   1.000  O
  O38      1.0000 0.09410  0.09183  0.23770  Biso   1.000  O
  O39      1.0000 0.21170  0.06260  0.26800  Biso   1.000  O
  O40      1.0000 0.21210  0.17119  0.21960  Biso   1.000  O
  O41      1.0000 0.46600  0.33807  0.57700  Biso   1.000  O
  O42      1.0000 0.53430  0.31429  0.51110  Biso   1.000  O
  O43      1.0000 0.18440  0.90475  0.57040  Biso   1.000  O
  O44      1.0000 0.13160  0.20583  0.26030  Biso   1.000  O
  O45      1.0000 0.63060  0.16346  0.32360  Biso   1.000  O
  O46      1.0000 0.55280  0.07540  0.36400  Biso   1.000  O
  O47      1.0000 0.55000  0.19570  0.36550  Biso   1.000  O
  C73      1.0000 0.15310  0.06400  0.27900  Biso   1.000  C
  C74      1.0000 0.67280  0.25750  0.48380  Biso   1.000  C
  H37      1.0000 0.61930  0.26280  0.47290  Biso   1.000  H
  C75      1.0000 0.19850  0.19970  0.26670  Biso   1.000  C
  C76      1.0000 0.14770  0.03010  0.34540  Biso   1.000  C
  C77      1.0000 0.68610  0.22240  0.43750  Biso   1.000  C
  C78      1.0000 0.26480  0.25650  0.39770  Biso   1.000  C
  H38      1.0000 0.21620  0.25660  0.40090  Biso   1.000  H
  C79      1.0000 0.12690  0.93250  0.52500  Biso   1.000  C
  C80      1.0000 0.34200  0.22810  0.33200  Biso   1.000  C
  H39      1.0000 0.34710  0.20840  0.29000  Biso   1.000  H
  C81      1.0000 0.47220  0.31350  0.51870  Biso   1.000  C
  C82      1.0000 0.40120  0.28350  0.45500  Biso   1.000  C
  O48      1.0000 0.42660  0.08980  0.32280  Biso   1.000  O
  C83      1.0000 0.33010  0.28350  0.45750  Biso   1.000  C
  H40      1.0000 0.32570  0.30240  0.50100  Biso   1.000  H
  C84      1.0000 0.20540  0.99620  0.38850  Biso   1.000  C
  H41      1.0000 0.25000  0.99400  0.37800  Biso   1.000  H
  C85      1.0000 0.76500  0.21500  0.45440  Biso   1.000  C
  H42      1.0000 0.77550  0.19090  0.42310  Biso   1.000  H
  C86      1.0000 0.07960  0.00230  0.42380  Biso   1.000  C
  H43      1.0000 0.03610  0.00500  0.43610  Biso   1.000  H
  C87      1.0000 0.08540  0.03400  0.36370  Biso   1.000  C
  H44      1.0000 0.04610  0.05810  0.33580  Biso   1.000  H
  C88      1.0000 0.26990  0.22920  0.33330  Biso   1.000  C
  C89      1.0000 0.13650  0.96750  0.46470  Biso   1.000  C
  C90      1.0000 0.61810  0.19190  0.37090  Biso   1.000  C
  C91      1.0000 0.40670  0.25560  0.39160  Biso   1.000  C
  H45      1.0000 0.45550  0.25530  0.38910  Biso   1.000  H
  C92      1.0000 0.19940  0.96510  0.44700  Biso   1.000  C
  H46      1.0000 0.23960  0.94140  0.47560  Biso   1.000  H
  C93      1.0000 0.49480  0.03280  0.43720  Biso   1.000  C
  C94      1.0000 0.56610  0.00710  0.48870  Biso   1.000  C
  H47      1.0000 0.61150  0.01200  0.48060  Biso   1.000  H
  C95      1.0000 0.42960  0.02480  0.44970  Biso   1.000  C
  H48      1.0000 0.38070  0.04200  0.41460  Biso   1.000  H
  C96      1.0000 0.49040  0.06860  0.36960  Biso   1.000  C
  Cd5      1.0000 0.59967  0.36948  0.62775  Biso   1.000  Cd
  Na5      1.0000 0.79765  0.39136  0.71818  Biso   1.000  Na
  O49      1.0000 0.56160  0.56874  0.02600  Biso   1.000  O
  O50      1.0000 0.59410  0.40817  0.73770  Biso   1.000  O
  O51      1.0000 0.71170  0.43740  0.76800  Biso   1.000  O
  O52      1.0000 0.71210  0.32881  0.71960  Biso   1.000  O
  O53      1.0000 0.96600  0.16193  0.07700  Biso   1.000  O
  O54      1.0000 0.03430  0.18571  0.01110  Biso   1.000  O
  O55      1.0000 0.68440  0.59525  0.07040  Biso   1.000  O
  O56      1.0000 0.63160  0.29417  0.76030  Biso   1.000  O
  O57      1.0000 0.13060  0.33654  0.82360  Biso   1.000  O
  O58      1.0000 0.05280  0.42460  0.86400  Biso   1.000  O
  O59      1.0000 0.05000  0.30430  0.86550  Biso   1.000  O
  C97      1.0000 0.65310  0.43600  0.77900  Biso   1.000  C
  C98      1.0000 0.17280  0.24250  0.98380  Biso   1.000  C
  H49      1.0000 0.11930  0.23720  0.97290  Biso   1.000  H
  C99      1.0000 0.69850  0.30030  0.76670  Biso   1.000  C
  C100     1.0000 0.64770  0.46990  0.84540  Biso   1.000  C
  C101     1.0000 0.18610  0.27760  0.93750  Biso   1.000  C
  C102     1.0000 0.76480  0.24350  0.89770  Biso   1.000  C
  H50      1.0000 0.71620  0.24340  0.90090  Biso   1.000  H
  C103     1.0000 0.62690  0.56750  0.02500  Biso   1.000  C
  C104     1.0000 0.84200  0.27190  0.83200  Biso   1.000  C
  H51      1.0000 0.84710  0.29160  0.79000  Biso   1.000  H
  C105     1.0000 0.97220  0.18650  0.01870  Biso   1.000  C
  C106     1.0000 0.90120  0.21650  0.95500  Biso   1.000  C
  O60      1.0000 0.92660  0.41020  0.82280  Biso   1.000  O
  C107     1.0000 0.83010  0.21650  0.95750  Biso   1.000  C
  H52      1.0000 0.82570  0.19760  0.00100  Biso   1.000  H
  C108     1.0000 0.70540  0.50380  0.88850  Biso   1.000  C
  H53      1.0000 0.75000  0.50600  0.87800  Biso   1.000  H
  C109     1.0000 0.26500  0.28500  0.95440  Biso   1.000  C
  H54      1.0000 0.27550  0.30910  0.92310  Biso   1.000  H
  C110     1.0000 0.57960  0.49770  0.92380  Biso   1.000  C
  H55      1.0000 0.53610  0.49500  0.93610  Biso   1.000  H
  C111     1.0000 0.58540  0.46600  0.86370  Biso   1.000  C
  H56      1.0000 0.54610  0.44190  0.83580  Biso   1.000  H
  C112     1.0000 0.76990  0.27080  0.83330  Biso   1.000  C
  C113     1.0000 0.63650  0.53250  0.96470  Biso   1.000  C
  C114     1.0000 0.11810  0.30810  0.87090  Biso   1.000  C
  C115     1.0000 0.90670  0.24440  0.89160  Biso   1.000  C
  H57      1.0000 0.95550  0.24470  0.88910  Biso   1.000  H
  C116     1.0000 0.69940  0.53490  0.94700  Biso   1.000  C
  H58      1.0000 0.73960  0.55860  0.97560  Biso   1.000  H
  C117     1.0000 0.99480  0.46720  0.93720  Biso   1.000  C
  C118     1.0000 0.06610  0.49290  0.98870  Biso   1.000  C
  H59      1.0000 0.11150  0.48800  0.98060  Biso   1.000  H
  C119     1.0000 0.92960  0.47520  0.94970  Biso   1.000  C
  H60      1.0000 0.88070  0.45800  0.91460  Biso   1.000  H
  C120     1.0000 0.99040  0.43140  0.86960  Biso   1.000  C
  Cd6      1.0000 0.09967  0.86948  0.62775  Biso   1.000  Cd
  Na6      1.0000 0.29765  0.89136  0.71818  Biso   1.000  Na
  O61      1.0000 0.06160  0.06874  0.02600  Biso   1.000  O
  O62      1.0000 0.09410  0.90817  0.73770  Biso   1.000  O
  O63      1.0000 0.21170  0.93740  0.76800  Biso   1.000  O
  O64      1.0000 0.21210  0.82881  0.71960  Biso   1.000  O
  O65      1.0000 0.46600  0.66193  0.07700  Biso   1.000  O
  O66      1.0000 0.53430  0.68571  0.01110  Biso   1.000  O
  O67      1.0000 0.18440  0.09525  0.07040  Biso   1.000  O
  O68      1.0000 0.13160  0.79417  0.76030  Biso   1.000  O
  O69      1.0000 0.63060  0.83654  0.82360  Biso   1.000  O
  O70      1.0000 0.55280  0.92460  0.86400  Biso   1.000  O
  O71      1.0000 0.55000  0.80430  0.86550  Biso   1.000  O
  C121     1.0000 0.15310  0.93600  0.77900  Biso   1.000  C
  C122     1.0000 0.67280  0.74250  0.98380  Biso   1.000  C
  H61      1.0000 0.61930  0.73720  0.97290  Biso   1.000  H
  C123     1.0000 0.19850  0.80030  0.76670  Biso   1.000  C
  C124     1.0000 0.14770  0.96990  0.84540  Biso   1.000  C
  C125     1.0000 0.68610  0.77760  0.93750  Biso   1.000  C
  C126     1.0000 0.26480  0.74350  0.89770  Biso   1.000  C
  H62      1.0000 0.21620  0.74340  0.90090  Biso   1.000  H
  C127     1.0000 0.12690  0.06750  0.02500  Biso   1.000  C
  C128     1.0000 0.34200  0.77190  0.83200  Biso   1.000  C
  H63      1.0000 0.34710  0.79160  0.79000  Biso   1.000  H
  C129     1.0000 0.47220  0.68650  0.01870  Biso   1.000  C
  C130     1.0000 0.40120  0.71650  0.95500  Biso   1.000  C
  O72      1.0000 0.42660  0.91020  0.82280  Biso   1.000  O
  C131     1.0000 0.33010  0.71650  0.95750  Biso   1.000  C
  H64      1.0000 0.32570  0.69760  0.00100  Biso   1.000  H
  C132     1.0000 0.20540  0.00380  0.88850  Biso   1.000  C
  H65      1.0000 0.25000  0.00600  0.87800  Biso   1.000  H
  C133     1.0000 0.76500  0.78500  0.95440  Biso   1.000  C
  H66      1.0000 0.77550  0.80910  0.92310  Biso   1.000  H
  C134     1.0000 0.07960  0.99770  0.92380  Biso   1.000  C
  H67      1.0000 0.03610  0.99500  0.93610  Biso   1.000  H
  C135     1.0000 0.08540  0.96600  0.86370  Biso   1.000  C
  H68      1.0000 0.04610  0.94190  0.83580  Biso   1.000  H
  C136     1.0000 0.26990  0.77080  0.83330  Biso   1.000  C
  C137     1.0000 0.13650  0.03250  0.96470  Biso   1.000  C
  C138     1.0000 0.61810  0.80810  0.87090  Biso   1.000  C
  C139     1.0000 0.40670  0.74440  0.89160  Biso   1.000  C
  H69      1.0000 0.45550  0.74470  0.88910  Biso   1.000  H
  C140     1.0000 0.19940  0.03490  0.94700  Biso   1.000  C
  H70      1.0000 0.23960  0.05860  0.97560  Biso   1.000  H
  C141     1.0000 0.49480  0.96720  0.93720  Biso   1.000  C
  C142     1.0000 0.56610  0.99290  0.98870  Biso   1.000  C
  H71      1.0000 0.61150  0.98800  0.98060  Biso   1.000  H
  C143     1.0000 0.42960  0.97520  0.94970  Biso   1.000  C
  H72      1.0000 0.38070  0.95800  0.91460  Biso   1.000  H
  C144     1.0000 0.49040  0.93140  0.86960  Biso   1.000  C
  Cd7      1.0000 0.40033  0.36948  0.87225  Biso   1.000  Cd
  Na7      1.0000 0.20235  0.39136  0.78182  Biso   1.000  Na
  O73      1.0000 0.43840  0.56874  0.47400  Biso   1.000  O
  O74      1.0000 0.40590  0.40817  0.76230  Biso   1.000  O
  O75      1.0000 0.28830  0.43740  0.73200  Biso   1.000  O
  O76      1.0000 0.28790  0.32881  0.78040  Biso   1.000  O
  O77      1.0000 0.03400  0.16193  0.42300  Biso   1.000  O
  O78      1.0000 0.96570  0.18571  0.48890  Biso   1.000  O
  O79      1.0000 0.31560  0.59525  0.42960  Biso   1.000  O
  O80      1.0000 0.36840  0.29417  0.73970  Biso   1.000  O
  O81      1.0000 0.86940  0.33654  0.67640  Biso   1.000  O
  O82      1.0000 0.94720  0.42460  0.63600  Biso   1.000  O
  O83      1.0000 0.95000  0.30430  0.63450  Biso   1.000  O
  C145     1.0000 0.34690  0.43600  0.72100  Biso   1.000  C
  C146     1.0000 0.82720  0.24250  0.51620  Biso   1.000  C
  H73      1.0000 0.88070  0.23720  0.52710  Biso   1.000  H
  C147     1.0000 0.30150  0.30030  0.73330  Biso   1.000  C
  C148     1.0000 0.35230  0.46990  0.65460  Biso   1.000  C
  C149     1.0000 0.81390  0.27760  0.56250  Biso   1.000  C
  C150     1.0000 0.23520  0.24350  0.60230  Biso   1.000  C
  H74      1.0000 0.28380  0.24340  0.59910  Biso   1.000  H
  C151     1.0000 0.37310  0.56750  0.47500  Biso   1.000  C
  C152     1.0000 0.15800  0.27190  0.66800  Biso   1.000  C
  H75      1.0000 0.15290  0.29160  0.71000  Biso   1.000  H
  C153     1.0000 0.02780  0.18650  0.48130  Biso   1.000  C
  C154     1.0000 0.09880  0.21650  0.54500  Biso   1.000  C
  O84      1.0000 0.07340  0.41020  0.67720  Biso   1.000  O
  C155     1.0000 0.16990  0.21650  0.54250  Biso   1.000  C
  H76      1.0000 0.17430  0.19760  0.49900  Biso   1.000  H
  C156     1.0000 0.29460  0.50380  0.61150  Biso   1.000  C
  H77      1.0000 0.25000  0.50600  0.62200  Biso   1.000  H
  C157     1.0000 0.73500  0.28500  0.54560  Biso   1.000  C
  H78      1.0000 0.72450  0.30910  0.57690  Biso   1.000  H
  C158     1.0000 0.42040  0.49770  0.57620  Biso   1.000  C
  H79      1.0000 0.46390  0.49500  0.56390  Biso   1.000  H
  C159     1.0000 0.41460  0.46600  0.63630  Biso   1.000  C
  H80      1.0000 0.45390  0.44190  0.66420  Biso   1.000  H
  C160     1.0000 0.23010  0.27080  0.66670  Biso   1.000  C
  C161     1.0000 0.36350  0.53250  0.53530  Biso   1.000  C
  C162     1.0000 0.88190  0.30810  0.62910  Biso   1.000  C
  C163     1.0000 0.09330  0.24440  0.60840  Biso   1.000  C
  H81      1.0000 0.04450  0.24470  0.61090  Biso   1.000  H
  C164     1.0000 0.30060  0.53490  0.55300  Biso   1.000  C
  H82      1.0000 0.26040  0.55860  0.52440  Biso   1.000  H
  C165     1.0000 0.00520  0.46720  0.56280  Biso   1.000  C
  C166     1.0000 0.93390  0.49290  0.51130  Biso   1.000  C
  H83      1.0000 0.88850  0.48800  0.51940  Biso   1.000  H
  C167     1.0000 0.07040  0.47520  0.55030  Biso   1.000  C
  H84      1.0000 0.11930  0.45800  0.58540  Biso   1.000  H
  C168     1.0000 0.00960  0.43140  0.63040  Biso   1.000  C
  Cd8      1.0000 0.90033  0.86948  0.87225  Biso   1.000  Cd
  Na8      1.0000 0.70235  0.89136  0.78182  Biso   1.000  Na
  O85      1.0000 0.93840  0.06874  0.47400  Biso   1.000  O
  O86      1.0000 0.90590  0.90817  0.76230  Biso   1.000  O
  O87      1.0000 0.78830  0.93740  0.73200  Biso   1.000  O
  O88      1.0000 0.78790  0.82881  0.78040  Biso   1.000  O
  O89      1.0000 0.53400  0.66193  0.42300  Biso   1.000  O
  O90      1.0000 0.46570  0.68571  0.48890  Biso   1.000  O
  O91      1.0000 0.81560  0.09525  0.42960  Biso   1.000  O
  O92      1.0000 0.86840  0.79417  0.73970  Biso   1.000  O
  O93      1.0000 0.36940  0.83654  0.67640  Biso   1.000  O
  O94      1.0000 0.44720  0.92460  0.63600  Biso   1.000  O
  O95      1.0000 0.45000  0.80430  0.63450  Biso   1.000  O
  C169     1.0000 0.84690  0.93600  0.72100  Biso   1.000  C
  C170     1.0000 0.32720  0.74250  0.51620  Biso   1.000  C
  H85      1.0000 0.38070  0.73720  0.52710  Biso   1.000  H
  C171     1.0000 0.80150  0.80030  0.73330  Biso   1.000  C
  C172     1.0000 0.85230  0.96990  0.65460  Biso   1.000  C
  C173     1.0000 0.31390  0.77760  0.56250  Biso   1.000  C
  C174     1.0000 0.73520  0.74350  0.60230  Biso   1.000  C
  H86      1.0000 0.78380  0.74340  0.59910  Biso   1.000  H
  C175     1.0000 0.87310  0.06750  0.47500  Biso   1.000  C
  C176     1.0000 0.65800  0.77190  0.66800  Biso   1.000  C
  H87      1.0000 0.65290  0.79160  0.71000  Biso   1.000  H
  C177     1.0000 0.52780  0.68650  0.48130  Biso   1.000  C
  C178     1.0000 0.59880  0.71650  0.54500  Biso   1.000  C
  O96      1.0000 0.57340  0.91020  0.67720  Biso   1.000  O
  C179     1.0000 0.66990  0.71650  0.54250  Biso   1.000  C
  H88      1.0000 0.67430  0.69760  0.49900  Biso   1.000  H
  C180     1.0000 0.79460  0.00380  0.61150  Biso   1.000  C
  H89      1.0000 0.75000  0.00600  0.62200  Biso   1.000  H
  C181     1.0000 0.23500  0.78500  0.54560  Biso   1.000  C
  H90      1.0000 0.22450  0.80910  0.57690  Biso   1.000  H
  C182     1.0000 0.92040  0.99770  0.57620  Biso   1.000  C
  H91      1.0000 0.96390  0.99500  0.56390  Biso   1.000  H
  C183     1.0000 0.91460  0.96600  0.63630  Biso   1.000  C
  H92      1.0000 0.95390  0.94190  0.66420  Biso   1.000  H
  C184     1.0000 0.73010  0.77080  0.66670  Biso   1.000  C
  C185     1.0000 0.86350  0.03250  0.53530  Biso   1.000  C
  C186     1.0000 0.38190  0.80810  0.62910  Biso   1.000  C
  C187     1.0000 0.59330  0.74440  0.60840  Biso   1.000  C
  H93      1.0000 0.54450  0.74470  0.61090  Biso   1.000  H
  C188     1.0000 0.80060  0.03490  0.55300  Biso   1.000  C
  H94      1.0000 0.76040  0.05860  0.52440  Biso   1.000  H
  C189     1.0000 0.50520  0.96720  0.56280  Biso   1.000  C
  C190     1.0000 0.43390  0.99290  0.51130  Biso   1.000  C
  H95      1.0000 0.38850  0.98800  0.51940  Biso   1.000  H
  C191     1.0000 0.57040  0.97520  0.55030  Biso   1.000  C
  H96      1.0000 0.61930  0.95800  0.58540  Biso   1.000  H
  C192     1.0000 0.50960  0.93140  0.63040  Biso   1.000  C
  Cd9      1.0000 0.00000  0.63247  0.25000  Biso   1.000  Cd
  Cd10     1.0000 0.50000  0.13247  0.25000  Biso   1.000  Cd
  Cd11     1.0000 0.00000  0.36753  0.75000  Biso   1.000  Cd
  Cd12     1.0000 0.50000  0.86753  0.75000  Biso   1.000  Cd
  K1       1.0000 0.50000  0.66301  0.25000  Biso   1.000  K
  K2       1.0000 0.00000  0.16301  0.25000  Biso   1.000  K
  K3       1.0000 0.50000  0.33699  0.75000  Biso   1.000  K
  K4       1.0000 0.00000  0.83699  0.75000  Biso   1.000  K
