data_image0
_cell_length_a       18.3139
_cell_length_b       18.3139
_cell_length_c       21.6853
_cell_angle_alpha    110.383
_cell_angle_beta     110.383
_cell_angle_gamma    100.09

_symmetry_space_group_name_H-M    P 1
_symmetry_int_tables_number       1

loop_
  _symmetry_equiv_pos_as_xyz
  'x, y, z'

loop_
  _atom_site_label
  _atom_site_occupancy
  _atom_site_fract_x
  _atom_site_fract_y
  _atom_site_fract_z
  _atom_site_thermal_displace_type
  _atom_site_B_iso_or_equiv
  _atom_site_type_symbol
  La1      1.0000 0.14669  0.39669  0.75000  Biso   1.000  La
  La2      1.0000 0.60331  0.85331  0.75000  Biso   1.000  La
  La3      1.0000 0.85331  0.60331  0.25000  Biso   1.000  La
  La4      1.0000 0.39669  0.14669  0.25000  Biso   1.000  La
  Co1      1.0000 0.64138  0.35862  0.75000  Biso   1.000  Co
  Co2      1.0000 0.10862  0.89138  0.75000  Biso   1.000  Co
  Co3      1.0000 0.35862  0.64138  0.25000  Biso   1.000  Co
  Co4      1.0000 0.89138  0.10862  0.25000  Biso   1.000  Co
  H1       1.0000 0.82090  0.41090  0.86260  Biso   1.000  H
  H2       1.0000 0.94450  0.41070  0.85700  Biso   1.000  H
  H3       1.0000 0.82700  0.32500  0.63800  Biso   1.000  H
  H4       1.0000 0.70730  0.30170  0.54500  Biso   1.000  H
  H5       1.0000 0.46290  0.26390  0.48480  Biso   1.000  H
  H6       1.0000 0.48870  0.30310  0.60640  Biso   1.000  H
  H7       1.0000 0.00880  0.75940  0.77320  Biso   1.000  H
  H8       1.0000 0.01820  0.63500  0.77360  Biso   1.000  H
  H9       1.0000 0.22920  0.67760  0.75040  Biso   1.000  H
  H10      1.0000 0.04170  0.95170  0.86260  Biso   1.000  H
  H11      1.0000 0.91250  0.94630  0.85700  Biso   1.000  H
  H12      1.0000 0.81100  0.81300  0.63800  Biso   1.000  H
  H13      1.0000 0.83770  0.74330  0.54500  Biso   1.000  H
  H14      1.0000 0.02190  0.72090  0.48480  Biso   1.000  H
  H15      1.0000 0.11770  0.80330  0.60640  Biso   1.000  H
  H16      1.0000 0.76440  0.51380  0.77320  Biso   1.000  H
  H17      1.0000 0.75540  0.63860  0.77360  Biso   1.000  H
  H18      1.0000 0.52120  0.57280  0.75040  Biso   1.000  H
  H19      1.0000 0.58910  0.17910  0.63740  Biso   1.000  H
  H20      1.0000 0.58930  0.05550  0.64300  Biso   1.000  H
  H21      1.0000 0.67500  0.17300  0.86200  Biso   1.000  H
  H22      1.0000 0.69830  0.29270  0.95500  Biso   1.000  H
  H23      1.0000 0.73610  0.53710  0.01520  Biso   1.000  H
  H24      1.0000 0.69690  0.51130  0.89360  Biso   1.000  H
  H25      1.0000 0.24060  0.99120  0.72680  Biso   1.000  H
  H26      1.0000 0.36500  0.98180  0.72640  Biso   1.000  H
  H27      1.0000 0.32240  0.77080  0.74960  Biso   1.000  H
  H28      1.0000 0.04830  0.95830  0.63740  Biso   1.000  H
  H29      1.0000 0.05370  0.08750  0.64300  Biso   1.000  H
  H30      1.0000 0.18700  0.18900  0.86200  Biso   1.000  H
  H31      1.0000 0.25670  0.16230  0.95500  Biso   1.000  H
  H32      1.0000 0.27910  0.97810  0.01520  Biso   1.000  H
  H33      1.0000 0.19670  0.88230  0.89360  Biso   1.000  H
  H34      1.0000 0.48620  0.23560  0.72680  Biso   1.000  H
  H35      1.0000 0.36140  0.24460  0.72640  Biso   1.000  H
  H36      1.0000 0.42720  0.47880  0.74960  Biso   1.000  H
  H37      1.0000 0.17910  0.58910  0.13740  Biso   1.000  H
  H38      1.0000 0.05550  0.58930  0.14300  Biso   1.000  H
  H39      1.0000 0.17300  0.67500  0.36200  Biso   1.000  H
  H40      1.0000 0.29270  0.69830  0.45500  Biso   1.000  H
  H41      1.0000 0.53710  0.73610  0.51520  Biso   1.000  H
  H42      1.0000 0.51130  0.69690  0.39360  Biso   1.000  H
  H43      1.0000 0.99120  0.24060  0.22680  Biso   1.000  H
  H44      1.0000 0.98180  0.36500  0.22640  Biso   1.000  H
  H45      1.0000 0.77080  0.32240  0.24960  Biso   1.000  H
  H46      1.0000 0.95830  0.04830  0.13740  Biso   1.000  H
  H47      1.0000 0.08750  0.05370  0.14300  Biso   1.000  H
  H48      1.0000 0.18900  0.18700  0.36200  Biso   1.000  H
  H49      1.0000 0.16230  0.25670  0.45500  Biso   1.000  H
  H50      1.0000 0.97810  0.27910  0.51520  Biso   1.000  H
  H51      1.0000 0.88230  0.19670  0.39360  Biso   1.000  H
  H52      1.0000 0.23560  0.48620  0.22680  Biso   1.000  H
  H53      1.0000 0.24460  0.36140  0.22640  Biso   1.000  H
  H54      1.0000 0.47880  0.42720  0.24960  Biso   1.000  H
  H55      1.0000 0.41090  0.82090  0.36260  Biso   1.000  H
  H56      1.0000 0.41070  0.94450  0.35700  Biso   1.000  H
  H57      1.0000 0.32500  0.82700  0.13800  Biso   1.000  H
  H58      1.0000 0.30170  0.70730  0.04500  Biso   1.000  H
  H59      1.0000 0.26390  0.46290  0.98480  Biso   1.000  H
  H60      1.0000 0.30310  0.48870  0.10640  Biso   1.000  H
  H61      1.0000 0.75940  0.00880  0.27320  Biso   1.000  H
  H62      1.0000 0.63500  0.01820  0.27360  Biso   1.000  H
  H63      1.0000 0.67760  0.22920  0.25040  Biso   1.000  H
  H64      1.0000 0.95170  0.04170  0.36260  Biso   1.000  H
  H65      1.0000 0.94630  0.91250  0.35700  Biso   1.000  H
  H66      1.0000 0.81300  0.81100  0.13800  Biso   1.000  H
  H67      1.0000 0.74330  0.83770  0.04500  Biso   1.000  H
  H68      1.0000 0.72090  0.02190  0.98480  Biso   1.000  H
  H69      1.0000 0.80330  0.11770  0.10640  Biso   1.000  H
  H70      1.0000 0.51380  0.76440  0.27320  Biso   1.000  H
  H71      1.0000 0.63860  0.75540  0.27360  Biso   1.000  H
  H72      1.0000 0.57280  0.52120  0.25040  Biso   1.000  H
  C1       1.0000 0.82180  0.39280  0.81620  Biso   1.000  C
  C2       1.0000 0.89570  0.39290  0.81320  Biso   1.000  C
  C3       1.0000 0.89860  0.36800  0.74880  Biso   1.000  C
  C4       1.0000 0.82620  0.34260  0.68440  Biso   1.000  C
  C5       1.0000 0.75284  0.34364  0.69028  Biso   1.000  C
  C6       1.0000 0.67320  0.32080  0.62840  Biso   1.000  C
  C7       1.0000 0.66180  0.30060  0.55660  Biso   1.000  C
  C8       1.0000 0.58192  0.27872  0.50204  Biso   1.000  C
  C9       1.0000 0.51760  0.27920  0.52120  Biso   1.000  C
  C10      1.0000 0.53320  0.30180  0.59360  Biso   1.000  C
  C11      1.0000 0.97924  0.36644  0.74368  Biso   1.000  C
  C12      1.0000 0.56890  0.26050  0.42480  Biso   1.000  C
  C13      1.0000 0.05300  0.74220  0.76720  Biso   1.000  C
  C14      1.0000 0.05880  0.66840  0.76780  Biso   1.000  C
  C15      1.0000 0.12340  0.64220  0.75960  Biso   1.000  C
  C16      1.0000 0.18320  0.69260  0.75380  Biso   1.000  C
  C17      1.0000 0.17430  0.76670  0.75320  Biso   1.000  C
  C18      1.0000 0.12920  0.55880  0.75680  Biso   1.000  C
  C19      1.0000 0.99440  0.92340  0.81620  Biso   1.000  C
  C20      1.0000 0.91750  0.92030  0.81320  Biso   1.000  C
  C21      1.0000 0.85020  0.88080  0.74880  Biso   1.000  C
  C22      1.0000 0.85820  0.84180  0.68440  Biso   1.000  C
  C23      1.0000 0.93744  0.84664  0.69028  Biso   1.000  C
  C24      1.0000 0.95520  0.80760  0.62840  Biso   1.000  C
  C25      1.0000 0.89480  0.75600  0.55660  Biso   1.000  C
  C26      1.0000 0.92012  0.72332  0.50204  Biso   1.000  C
  C27      1.0000 0.00360  0.74200  0.52120  Biso   1.000  C
  C28      1.0000 0.06040  0.79180  0.59360  Biso   1.000  C
  C29      1.0000 0.76444  0.87724  0.74368  Biso   1.000  C
  C30      1.0000 0.85590  0.66430  0.42480  Biso   1.000  C
  C31      1.0000 0.71420  0.52500  0.76720  Biso   1.000  C
  C32      1.0000 0.70900  0.59940  0.76780  Biso   1.000  C
  C33      1.0000 0.63620  0.61740  0.75960  Biso   1.000  C
  C34      1.0000 0.57060  0.56120  0.75380  Biso   1.000  C
  C35      1.0000 0.57890  0.48650  0.75320  Biso   1.000  C
  C36      1.0000 0.62760  0.69800  0.75680  Biso   1.000  C
  C37      1.0000 0.60720  0.17820  0.68380  Biso   1.000  C
  C38      1.0000 0.60710  0.10430  0.68680  Biso   1.000  C
  C39      1.0000 0.63200  0.10140  0.75120  Biso   1.000  C
  C40      1.0000 0.65740  0.17380  0.81560  Biso   1.000  C
  C41      1.0000 0.65636  0.24716  0.80972  Biso   1.000  C
  C42      1.0000 0.67920  0.32680  0.87160  Biso   1.000  C
  C43      1.0000 0.69940  0.33820  0.94340  Biso   1.000  C
  C44      1.0000 0.72128  0.41808  0.99796  Biso   1.000  C
  C45      1.0000 0.72080  0.48240  0.97880  Biso   1.000  C
  C46      1.0000 0.69820  0.46680  0.90640  Biso   1.000  C
  C47      1.0000 0.63356  0.02076  0.75632  Biso   1.000  C
  C48      1.0000 0.73950  0.43110  0.07520  Biso   1.000  C
  C49      1.0000 0.25780  0.94700  0.73280  Biso   1.000  C
  C50      1.0000 0.33160  0.94120  0.73220  Biso   1.000  C
  C51      1.0000 0.35780  0.87660  0.74040  Biso   1.000  C
  C52      1.0000 0.30740  0.81680  0.74620  Biso   1.000  C
  C53      1.0000 0.23330  0.82570  0.74680  Biso   1.000  C
  C54      1.0000 0.44120  0.87080  0.74320  Biso   1.000  C
  C55      1.0000 0.07660  0.00560  0.68380  Biso   1.000  C
  C56      1.0000 0.07970  0.08250  0.68680  Biso   1.000  C
  C57      1.0000 0.11920  0.14980  0.75120  Biso   1.000  C
  C58      1.0000 0.15820  0.14180  0.81560  Biso   1.000  C
  C59      1.0000 0.15336  0.06256  0.80972  Biso   1.000  C
  C60      1.0000 0.19240  0.04480  0.87160  Biso   1.000  C
  C61      1.0000 0.24400  0.10520  0.94340  Biso   1.000  C
  C62      1.0000 0.27668  0.07988  0.99796  Biso   1.000  C
  C63      1.0000 0.25800  0.99640  0.97880  Biso   1.000  C
  C64      1.0000 0.20820  0.93960  0.90640  Biso   1.000  C
  C65      1.0000 0.12276  0.23556  0.75632  Biso   1.000  C
  C66      1.0000 0.33570  0.14410  0.07520  Biso   1.000  C
  C67      1.0000 0.47500  0.28580  0.73280  Biso   1.000  C
  C68      1.0000 0.40060  0.29100  0.73220  Biso   1.000  C
  C69      1.0000 0.38260  0.36380  0.74040  Biso   1.000  C
  C70      1.0000 0.43880  0.42940  0.74620  Biso   1.000  C
  C71      1.0000 0.51350  0.42110  0.74680  Biso   1.000  C
  C72      1.0000 0.30200  0.37240  0.74320  Biso   1.000  C
  C73      1.0000 0.17820  0.60720  0.18380  Biso   1.000  C
  C74      1.0000 0.10430  0.60710  0.18680  Biso   1.000  C
  C75      1.0000 0.10140  0.63200  0.25120  Biso   1.000  C
  C76      1.0000 0.17380  0.65740  0.31560  Biso   1.000  C
  C77      1.0000 0.24716  0.65636  0.30972  Biso   1.000  C
  C78      1.0000 0.32680  0.67920  0.37160  Biso   1.000  C
  C79      1.0000 0.33820  0.69940  0.44340  Biso   1.000  C
  C80      1.0000 0.41808  0.72128  0.49796  Biso   1.000  C
  C81      1.0000 0.48240  0.72080  0.47880  Biso   1.000  C
  C82      1.0000 0.46680  0.69820  0.40640  Biso   1.000  C
  C83      1.0000 0.02076  0.63356  0.25632  Biso   1.000  C
  C84      1.0000 0.43110  0.73950  0.57520  Biso   1.000  C
  C85      1.0000 0.94700  0.25780  0.23280  Biso   1.000  C
  C86      1.0000 0.94120  0.33160  0.23220  Biso   1.000  C
  C87      1.0000 0.87660  0.35780  0.24040  Biso   1.000  C
  C88      1.0000 0.81680  0.30740  0.24620  Biso   1.000  C
  C89      1.0000 0.82570  0.23330  0.24680  Biso   1.000  C
  C90      1.0000 0.87080  0.44120  0.24320  Biso   1.000  C
  C91      1.0000 0.00560  0.07660  0.18380  Biso   1.000  C
  C92      1.0000 0.08250  0.07970  0.18680  Biso   1.000  C
  C93      1.0000 0.14980  0.11920  0.25120  Biso   1.000  C
  C94      1.0000 0.14180  0.15820  0.31560  Biso   1.000  C
  C95      1.0000 0.06256  0.15336  0.30972  Biso   1.000  C
  C96      1.0000 0.04480  0.19240  0.37160  Biso   1.000  C
  C97      1.0000 0.10520  0.24400  0.44340  Biso   1.000  C
  C98      1.0000 0.07988  0.27668  0.49796  Biso   1.000  C
  C99      1.0000 0.99640  0.25800  0.47880  Biso   1.000  C
  C100     1.0000 0.93960  0.20820  0.40640  Biso   1.000  C
  C101     1.0000 0.23556  0.12276  0.25632  Biso   1.000  C
  C102     1.0000 0.14410  0.33570  0.57520  Biso   1.000  C
  C103     1.0000 0.28580  0.47500  0.23280  Biso   1.000  C
  C104     1.0000 0.29100  0.40060  0.23220  Biso   1.000  C
  C105     1.0000 0.36380  0.38260  0.24040  Biso   1.000  C
  C106     1.0000 0.42940  0.43880  0.24620  Biso   1.000  C
  C107     1.0000 0.42110  0.51350  0.24680  Biso   1.000  C
  C108     1.0000 0.37240  0.30200  0.24320  Biso   1.000  C
  C109     1.0000 0.39280  0.82180  0.31620  Biso   1.000  C
  C110     1.0000 0.39290  0.89570  0.31320  Biso   1.000  C
  C111     1.0000 0.36800  0.89860  0.24880  Biso   1.000  C
  C112     1.0000 0.34260  0.82620  0.18440  Biso   1.000  C
  C113     1.0000 0.34364  0.75284  0.19028  Biso   1.000  C
  C114     1.0000 0.32080  0.67320  0.12840  Biso   1.000  C
  C115     1.0000 0.30060  0.66180  0.05660  Biso   1.000  C
  C116     1.0000 0.27872  0.58192  0.00204  Biso   1.000  C
  C117     1.0000 0.27920  0.51760  0.02120  Biso   1.000  C
  C118     1.0000 0.30180  0.53320  0.09360  Biso   1.000  C
  C119     1.0000 0.36644  0.97924  0.24368  Biso   1.000  C
  C120     1.0000 0.26050  0.56890  0.92480  Biso   1.000  C
  C121     1.0000 0.74220  0.05300  0.26720  Biso   1.000  C
  C122     1.0000 0.66840  0.05880  0.26780  Biso   1.000  C
  C123     1.0000 0.64220  0.12340  0.25960  Biso   1.000  C
  C124     1.0000 0.69260  0.18320  0.25380  Biso   1.000  C
  C125     1.0000 0.76670  0.17430  0.25320  Biso   1.000  C
  C126     1.0000 0.55880  0.12920  0.25680  Biso   1.000  C
  C127     1.0000 0.92340  0.99440  0.31620  Biso   1.000  C
  C128     1.0000 0.92030  0.91750  0.31320  Biso   1.000  C
  C129     1.0000 0.88080  0.85020  0.24880  Biso   1.000  C
  C130     1.0000 0.84180  0.85820  0.18440  Biso   1.000  C
  C131     1.0000 0.84664  0.93744  0.19028  Biso   1.000  C
  C132     1.0000 0.80760  0.95520  0.12840  Biso   1.000  C
  C133     1.0000 0.75600  0.89480  0.05660  Biso   1.000  C
  C134     1.0000 0.72332  0.92012  0.00204  Biso   1.000  C
  C135     1.0000 0.74200  0.00360  0.02120  Biso   1.000  C
  C136     1.0000 0.79180  0.06040  0.09360  Biso   1.000  C
  C137     1.0000 0.87724  0.76444  0.24368  Biso   1.000  C
  C138     1.0000 0.66430  0.85590  0.92480  Biso   1.000  C
  C139     1.0000 0.52500  0.71420  0.26720  Biso   1.000  C
  C140     1.0000 0.59940  0.70900  0.26780  Biso   1.000  C
  C141     1.0000 0.61740  0.63620  0.25960  Biso   1.000  C
  C142     1.0000 0.56120  0.57060  0.25380  Biso   1.000  C
  C143     1.0000 0.48650  0.57890  0.25320  Biso   1.000  C
  C144     1.0000 0.69800  0.62760  0.25680  Biso   1.000  C
  N1       1.0000 0.75113  0.36793  0.75546  Biso   1.000  N
  N2       1.0000 0.60900  0.32180  0.64640  Biso   1.000  N
  N3       1.0000 0.10929  0.79029  0.75858  Biso   1.000  N
  N4       1.0000 0.00433  0.88753  0.75546  Biso   1.000  N
  N5       1.0000 0.03740  0.82460  0.64640  Biso   1.000  N
  N6       1.0000 0.64929  0.46829  0.75858  Biso   1.000  N
  N7       1.0000 0.63207  0.24887  0.74454  Biso   1.000  N
  N8       1.0000 0.67820  0.39100  0.85360  Biso   1.000  N
  N9       1.0000 0.20971  0.89071  0.74142  Biso   1.000  N
  N10      1.0000 0.11247  0.99567  0.74454  Biso   1.000  N
  N11      1.0000 0.17540  0.96260  0.85360  Biso   1.000  N
  N12      1.0000 0.53171  0.35071  0.74142  Biso   1.000  N
  N13      1.0000 0.24887  0.63207  0.24454  Biso   1.000  N
  N14      1.0000 0.39100  0.67820  0.35360  Biso   1.000  N
  N15      1.0000 0.89071  0.20971  0.24142  Biso   1.000  N
  N16      1.0000 0.99567  0.11247  0.24454  Biso   1.000  N
  N17      1.0000 0.96260  0.17540  0.35360  Biso   1.000  N
  N18      1.0000 0.35071  0.53171  0.24142  Biso   1.000  N
  N19      1.0000 0.36793  0.75113  0.25546  Biso   1.000  N
  N20      1.0000 0.32180  0.60900  0.14640  Biso   1.000  N
  N21      1.0000 0.79029  0.10929  0.25858  Biso   1.000  N
  N22      1.0000 0.88753  0.00433  0.25546  Biso   1.000  N
  N23      1.0000 0.82460  0.03740  0.14640  Biso   1.000  N
  N24      1.0000 0.46829  0.64929  0.25858  Biso   1.000  N
  O1       1.0000 0.03789  0.37569  0.79878  Biso   1.000  O
  O2       1.0000 0.98383  0.35823  0.68486  Biso   1.000  O
  O3       1.0000 0.63172  0.27572  0.41304  Biso   1.000  O
  O4       1.0000 0.49519  0.23199  0.37778  Biso   1.000  O
  O5       1.0000 0.09000  0.52540  0.78400  Biso   1.000  O
  O6       1.0000 0.17251  0.53051  0.73082  Biso   1.000  O
  O7       1.0000 0.76089  0.92309  0.79878  Biso   1.000  O
  O8       1.0000 0.70103  0.82663  0.68486  Biso   1.000  O
  O9       1.0000 0.78132  0.63732  0.41304  Biso   1.000  O
  O10      1.0000 0.88259  0.64579  0.37778  Biso   1.000  O
  O11      1.0000 0.69400  0.75860  0.78400  Biso   1.000  O
  O12      1.0000 0.55831  0.70031  0.73082  Biso   1.000  O
  O13      1.0000 0.62431  0.96211  0.70122  Biso   1.000  O
  O14      1.0000 0.64177  0.01617  0.81514  Biso   1.000  O
  O15      1.0000 0.72428  0.36828  0.08696  Biso   1.000  O
  O16      1.0000 0.76801  0.50481  0.12222  Biso   1.000  O
  O17      1.0000 0.47460  0.91000  0.71600  Biso   1.000  O
  O18      1.0000 0.46949  0.82749  0.76918  Biso   1.000  O
  O19      1.0000 0.07691  0.23911  0.70122  Biso   1.000  O
  O20      1.0000 0.17337  0.29897  0.81514  Biso   1.000  O
  O21      1.0000 0.36268  0.21868  0.08696  Biso   1.000  O
  O22      1.0000 0.35421  0.11741  0.12222  Biso   1.000  O
  O23      1.0000 0.24140  0.30600  0.71600  Biso   1.000  O
  O24      1.0000 0.29969  0.44169  0.76918  Biso   1.000  O
  O25      1.0000 0.96211  0.62431  0.20122  Biso   1.000  O
  O26      1.0000 0.01617  0.64177  0.31514  Biso   1.000  O
  O27      1.0000 0.36828  0.72428  0.58696  Biso   1.000  O
  O28      1.0000 0.50481  0.76801  0.62222  Biso   1.000  O
  O29      1.0000 0.91000  0.47460  0.21600  Biso   1.000  O
  O30      1.0000 0.82749  0.46949  0.26918  Biso   1.000  O
  O31      1.0000 0.23911  0.07691  0.20122  Biso   1.000  O
  O32      1.0000 0.29897  0.17337  0.31514  Biso   1.000  O
  O33      1.0000 0.21868  0.36268  0.58696  Biso   1.000  O
  O34      1.0000 0.11741  0.35421  0.62222  Biso   1.000  O
  O35      1.0000 0.30600  0.24140  0.21600  Biso   1.000  O
  O36      1.0000 0.44169  0.29969  0.26918  Biso   1.000  O
  O37      1.0000 0.37569  0.03789  0.29878  Biso   1.000  O
  O38      1.0000 0.35823  0.98383  0.18486  Biso   1.000  O
  O39      1.0000 0.27572  0.63172  0.91304  Biso   1.000  O
  O40      1.0000 0.23199  0.49519  0.87778  Biso   1.000  O
  O41      1.0000 0.52540  0.09000  0.28400  Biso   1.000  O
  O42      1.0000 0.53051  0.17251  0.23082  Biso   1.000  O
  O43      1.0000 0.92309  0.76089  0.29878  Biso   1.000  O
  O44      1.0000 0.82663  0.70103  0.18486  Biso   1.000  O
  O45      1.0000 0.63732  0.78132  0.91304  Biso   1.000  O
  O46      1.0000 0.64579  0.88259  0.87778  Biso   1.000  O
  O47      1.0000 0.75860  0.69400  0.28400  Biso   1.000  O
  O48      1.0000 0.70031  0.55831  0.23082  Biso   1.000  O
