data_image0
_cell_length_a       6.73379
_cell_length_b       16.6903
_cell_length_c       16.6903
_cell_angle_alpha    87.6678
_cell_angle_beta     78.3622
_cell_angle_gamma    78.362

_symmetry_space_group_name_H-M    P 1
_symmetry_int_tables_number       1

loop_
  _symmetry_equiv_pos_as_xyz
  'x, y, z'

loop_
  _atom_site_label
  _atom_site_occupancy
  _atom_site_fract_x
  _atom_site_fract_y
  _atom_site_fract_z
  _atom_site_thermal_displace_type
  _atom_site_B_iso_or_equiv
  _atom_site_type_symbol
  Ag1      1.0000 0.91632  0.89096  0.38256  Biso   1.000  Ag
  Ag2      1.0000 0.18984  0.60904  0.11744  Biso   1.000  Ag
  Ag3      1.0000 0.29888  0.11744  0.89096  Biso   1.000  Ag
  Ag4      1.0000 0.30728  0.38256  0.60904  Biso   1.000  Ag
  Ag5      1.0000 0.08368  0.10904  0.61744  Biso   1.000  Ag
  Ag6      1.0000 0.81016  0.39096  0.88256  Biso   1.000  Ag
  Ag7      1.0000 0.70112  0.88256  0.10904  Biso   1.000  Ag
  Ag8      1.0000 0.69272  0.61744  0.39096  Biso   1.000  Ag
  H1       1.0000 0.86960  0.76230  0.60090  Biso   1.000  H
  H2       1.0000 0.66430  0.82490  0.62230  Biso   1.000  H
  H3       1.0000 0.80920  0.89160  0.62540  Biso   1.000  H
  H4       1.0000 0.00910  0.83270  0.58570  Biso   1.000  H
  H5       1.0000 0.65300  0.99910  0.53970  Biso   1.000  H
  H6       1.0000 0.80330  0.01640  0.59480  Biso   1.000  H
  H7       1.0000 0.15250  0.94610  0.57310  Biso   1.000  H
  H8       1.0000 0.23680  0.88070  0.50310  Biso   1.000  H
  H9       1.0000 0.23680  0.72150  0.39030  Biso   1.000  H
  H10      1.0000 0.36960  0.78910  0.38770  Biso   1.000  H
  H11      1.0000 0.04200  0.71400  0.29000  Biso   1.000  H
  H12      1.0000 0.23280  0.73770  0.89910  Biso   1.000  H
  H13      1.0000 0.11150  0.67510  0.87770  Biso   1.000  H
  H14      1.0000 0.32620  0.60840  0.87460  Biso   1.000  H
  H15      1.0000 0.42750  0.66730  0.91430  Biso   1.000  H
  H16      1.0000 0.19180  0.50090  0.96030  Biso   1.000  H
  H17      1.0000 0.41450  0.48360  0.90520  Biso   1.000  H
  H18      1.0000 0.67170  0.55390  0.92690  Biso   1.000  H
  H19      1.0000 0.62060  0.61930  0.99690  Biso   1.000  H
  H20      1.0000 0.34860  0.77850  0.10970  Biso   1.000  H
  H21      1.0000 0.54640  0.71090  0.11230  Biso   1.000  H
  H22      1.0000 0.04600  0.78600  0.21000  Biso   1.000  H
  H23      1.0000 0.47050  0.89910  0.76230  Biso   1.000  H
  H24      1.0000 0.28660  0.87770  0.82490  Biso   1.000  H
  H25      1.0000 0.43460  0.87460  0.89160  Biso   1.000  H
  H26      1.0000 0.59480  0.91430  0.83270  Biso   1.000  H
  H27      1.0000 0.19270  0.96030  0.99910  Biso   1.000  H
  H28      1.0000 0.39810  0.90520  0.01640  Biso   1.000  H
  H29      1.0000 0.72560  0.92690  0.94610  Biso   1.000  H
  H30      1.0000 0.73990  0.99690  0.88070  Biso   1.000  H
  H31      1.0000 0.62710  0.10970  0.72150  Biso   1.000  H
  H32      1.0000 0.75730  0.11230  0.78910  Biso   1.000  H
  H33      1.0000 0.33200  0.21000  0.71400  Biso   1.000  H
  H34      1.0000 0.13190  0.60090  0.73770  Biso   1.000  H
  H35      1.0000 0.98920  0.62230  0.67510  Biso   1.000  H
  H36      1.0000 0.20080  0.62540  0.60840  Biso   1.000  H
  H37      1.0000 0.34180  0.58570  0.66730  Biso   1.000  H
  H38      1.0000 0.15210  0.53970  0.50090  Biso   1.000  H
  H39      1.0000 0.31970  0.59480  0.48360  Biso   1.000  H
  H40      1.0000 0.59860  0.57310  0.55390  Biso   1.000  H
  H41      1.0000 0.61750  0.50310  0.61930  Biso   1.000  H
  H42      1.0000 0.45830  0.39030  0.77850  Biso   1.000  H
  H43      1.0000 0.65870  0.38770  0.71090  Biso   1.000  H
  H44      1.0000 0.25600  0.29000  0.78600  Biso   1.000  H
  H45      1.0000 0.13040  0.23770  0.39910  Biso   1.000  H
  H46      1.0000 0.33570  0.17510  0.37770  Biso   1.000  H
  H47      1.0000 0.19080  0.10840  0.37460  Biso   1.000  H
  H48      1.0000 0.99090  0.16730  0.41430  Biso   1.000  H
  H49      1.0000 0.34700  0.00090  0.46030  Biso   1.000  H
  H50      1.0000 0.19670  0.98360  0.40520  Biso   1.000  H
  H51      1.0000 0.84750  0.05390  0.42690  Biso   1.000  H
  H52      1.0000 0.76320  0.11930  0.49690  Biso   1.000  H
  H53      1.0000 0.76320  0.27850  0.60970  Biso   1.000  H
  H54      1.0000 0.63040  0.21090  0.61230  Biso   1.000  H
  H55      1.0000 0.95800  0.28600  0.71000  Biso   1.000  H
  H56      1.0000 0.76720  0.26230  0.10090  Biso   1.000  H
  H57      1.0000 0.88850  0.32490  0.12230  Biso   1.000  H
  H58      1.0000 0.67380  0.39160  0.12540  Biso   1.000  H
  H59      1.0000 0.57250  0.33270  0.08570  Biso   1.000  H
  H60      1.0000 0.80820  0.49910  0.03970  Biso   1.000  H
  H61      1.0000 0.58550  0.51640  0.09480  Biso   1.000  H
  H62      1.0000 0.32830  0.44610  0.07310  Biso   1.000  H
  H63      1.0000 0.37940  0.38070  0.00310  Biso   1.000  H
  H64      1.0000 0.65140  0.22150  0.89030  Biso   1.000  H
  H65      1.0000 0.45360  0.28910  0.88770  Biso   1.000  H
  H66      1.0000 0.95400  0.21400  0.79000  Biso   1.000  H
  H67      1.0000 0.52950  0.10090  0.23770  Biso   1.000  H
  H68      1.0000 0.71340  0.12230  0.17510  Biso   1.000  H
  H69      1.0000 0.56540  0.12540  0.10840  Biso   1.000  H
  H70      1.0000 0.40520  0.08570  0.16730  Biso   1.000  H
  H71      1.0000 0.80730  0.03970  0.00090  Biso   1.000  H
  H72      1.0000 0.60190  0.09480  0.98360  Biso   1.000  H
  H73      1.0000 0.27440  0.07310  0.05390  Biso   1.000  H
  H74      1.0000 0.26010  0.00310  0.11930  Biso   1.000  H
  H75      1.0000 0.37290  0.89030  0.27850  Biso   1.000  H
  H76      1.0000 0.24270  0.88770  0.21090  Biso   1.000  H
  H77      1.0000 0.66800  0.79000  0.28600  Biso   1.000  H
  H78      1.0000 0.86810  0.39910  0.26230  Biso   1.000  H
  H79      1.0000 0.01080  0.37770  0.32490  Biso   1.000  H
  H80      1.0000 0.79920  0.37460  0.39160  Biso   1.000  H
  H81      1.0000 0.65820  0.41430  0.33270  Biso   1.000  H
  H82      1.0000 0.84790  0.46030  0.49910  Biso   1.000  H
  H83      1.0000 0.68030  0.40520  0.51640  Biso   1.000  H
  H84      1.0000 0.40140  0.42690  0.44610  Biso   1.000  H
  H85      1.0000 0.38250  0.49690  0.38070  Biso   1.000  H
  H86      1.0000 0.54170  0.60970  0.22150  Biso   1.000  H
  H87      1.0000 0.34130  0.61230  0.28910  Biso   1.000  H
  H88      1.0000 0.74400  0.71000  0.21400  Biso   1.000  H
  C1       1.0000 0.78350  0.80820  0.57880  Biso   1.000  C
  C2       1.0000 0.87570  0.86080  0.57580  Biso   1.000  C
  C3       1.0000 0.79510  0.00240  0.53980  Biso   1.000  C
  C4       1.0000 0.14260  0.93250  0.51830  Biso   1.000  C
  C5       1.0000 0.32140  0.75390  0.35410  Biso   1.000  C
  C6       1.0000 0.17050  0.69180  0.92120  Biso   1.000  C
  C7       1.0000 0.31230  0.63920  0.92420  Biso   1.000  C
  C8       1.0000 0.33730  0.49760  0.96020  Biso   1.000  C
  C9       1.0000 0.59340  0.56750  0.98170  Biso   1.000  C
  C10      1.0000 0.42940  0.74610  0.14590  Biso   1.000  C
  C11      1.0000 0.36230  0.92120  0.80820  Biso   1.000  C
  C12      1.0000 0.45150  0.92420  0.86080  Biso   1.000  C
  C13      1.0000 0.33490  0.96020  0.00240  Biso   1.000  C
  C14      1.0000 0.66090  0.98170  0.93250  Biso   1.000  C
  C15      1.0000 0.67550  0.14590  0.75390  Biso   1.000  C
  C16      1.0000 0.09170  0.57880  0.69180  Biso   1.000  C
  C17      1.0000 0.23650  0.57580  0.63920  Biso   1.000  C
  C18      1.0000 0.29750  0.53980  0.49760  Biso   1.000  C
  C19      1.0000 0.57510  0.51830  0.56750  Biso   1.000  C
  C20      1.0000 0.57530  0.35410  0.74610  Biso   1.000  C
  C21      1.0000 0.21650  0.19180  0.42120  Biso   1.000  C
  C22      1.0000 0.12430  0.13920  0.42420  Biso   1.000  C
  C23      1.0000 0.20490  0.99760  0.46020  Biso   1.000  C
  C24      1.0000 0.85740  0.06750  0.48170  Biso   1.000  C
  C25      1.0000 0.67860  0.24610  0.64590  Biso   1.000  C
  C26      1.0000 0.82950  0.30820  0.07880  Biso   1.000  C
  C27      1.0000 0.68770  0.36080  0.07580  Biso   1.000  C
  C28      1.0000 0.66270  0.50240  0.03980  Biso   1.000  C
  C29      1.0000 0.40660  0.43250  0.01830  Biso   1.000  C
  C30      1.0000 0.57060  0.25390  0.85410  Biso   1.000  C
  C31      1.0000 0.63770  0.07880  0.19180  Biso   1.000  C
  C32      1.0000 0.54850  0.07580  0.13920  Biso   1.000  C
  C33      1.0000 0.66510  0.03980  0.99760  Biso   1.000  C
  C34      1.0000 0.33910  0.01830  0.06750  Biso   1.000  C
  C35      1.0000 0.32450  0.85410  0.24610  Biso   1.000  C
  C36      1.0000 0.90830  0.42120  0.30820  Biso   1.000  C
  C37      1.0000 0.76350  0.42420  0.36080  Biso   1.000  C
  C38      1.0000 0.70250  0.46020  0.50240  Biso   1.000  C
  C39      1.0000 0.42490  0.48170  0.43250  Biso   1.000  C
  C40      1.0000 0.42470  0.64590  0.25390  Biso   1.000  C
  C41      1.0000 0.12240  0.75000  0.25000  Biso   1.000  C
  C42      1.0000 0.37240  0.25000  0.75000  Biso   1.000  C
  C43      1.0000 0.87760  0.25000  0.75000  Biso   1.000  C
  C44      1.0000 0.62760  0.75000  0.25000  Biso   1.000  C
  S1       1.0000 0.68369  0.76272  0.50610  Biso   1.000  S
  S2       1.0000 0.95251  0.73728  0.99390  Biso   1.000  S
  S3       1.0000 0.18979  0.99390  0.76272  Biso   1.000  S
  S4       1.0000 0.94641  0.50610  0.73728  Biso   1.000  S
  S5       1.0000 0.31631  0.23728  0.49390  Biso   1.000  S
  S6       1.0000 0.04749  0.26272  0.00610  Biso   1.000  S
  S7       1.0000 0.81021  0.00610  0.23728  Biso   1.000  S
  S8       1.0000 0.05359  0.49390  0.26272  Biso   1.000  S
  N1       1.0000 0.92800  0.92430  0.51710  Biso   1.000  N
  N2       1.0000 0.19350  0.80540  0.30100  Biso   1.000  N
  N3       1.0000 0.36940  0.57570  0.98290  Biso   1.000  N
  N4       1.0000 0.29990  0.69460  0.19900  Biso   1.000  N
  N5       1.0000 0.44510  0.98290  0.92430  Biso   1.000  N
  N6       1.0000 0.49450  0.19900  0.80540  Biso   1.000  N
  N7       1.0000 0.35230  0.51710  0.57570  Biso   1.000  N
  N8       1.0000 0.49890  0.30100  0.69460  Biso   1.000  N
  N9       1.0000 0.07200  0.07570  0.48290  Biso   1.000  N
  N10      1.0000 0.80650  0.19460  0.69900  Biso   1.000  N
  N11      1.0000 0.63060  0.42430  0.01710  Biso   1.000  N
  N12      1.0000 0.70010  0.30540  0.80100  Biso   1.000  N
  N13      1.0000 0.55490  0.01710  0.07570  Biso   1.000  N
  N14      1.0000 0.50550  0.80100  0.19460  Biso   1.000  N
  N15      1.0000 0.64770  0.48290  0.42430  Biso   1.000  N
  N16      1.0000 0.50110  0.69900  0.30540  Biso   1.000  N
  O1       1.0000 0.64710  0.82270  0.44110  Biso   1.000  O
  O2       1.0000 0.49260  0.74200  0.54500  Biso   1.000  O
  O3       1.0000 0.84040  0.69180  0.47900  Biso   1.000  O
  O4       1.0000 0.91090  0.67730  0.05890  Biso   1.000  O
  O5       1.0000 0.77960  0.75800  0.95500  Biso   1.000  O
  O6       1.0000 0.01120  0.80820  0.02100  Biso   1.000  O
  O7       1.0000 0.08820  0.05890  0.82270  Biso   1.000  O
  O8       1.0000 0.03760  0.95500  0.74200  Biso   1.000  O
  O9       1.0000 0.31940  0.02100  0.69180  Biso   1.000  O
  O10      1.0000 0.96980  0.44110  0.67730  Biso   1.000  O
  O11      1.0000 0.73460  0.54500  0.75800  Biso   1.000  O
  O12      1.0000 0.03220  0.47900  0.80820  Biso   1.000  O
  O13      1.0000 0.35290  0.17730  0.55890  Biso   1.000  O
  O14      1.0000 0.50740  0.25800  0.45500  Biso   1.000  O
  O15      1.0000 0.15960  0.30820  0.52100  Biso   1.000  O
  O16      1.0000 0.08910  0.32270  0.94110  Biso   1.000  O
  O17      1.0000 0.22040  0.24200  0.04500  Biso   1.000  O
  O18      1.0000 0.98880  0.19180  0.97900  Biso   1.000  O
  O19      1.0000 0.91180  0.94110  0.17730  Biso   1.000  O
  O20      1.0000 0.96240  0.04500  0.25800  Biso   1.000  O
  O21      1.0000 0.68060  0.97900  0.30820  Biso   1.000  O
  O22      1.0000 0.03020  0.55890  0.32270  Biso   1.000  O
  O23      1.0000 0.26540  0.45500  0.24200  Biso   1.000  O
  O24      1.0000 0.96780  0.52100  0.19180  Biso   1.000  O
