data_image0
_cell_length_a       9.32283
_cell_length_b       19.2649
_cell_length_c       24.211
_cell_angle_alpha    87.3298
_cell_angle_beta     78.8994
_cell_angle_gamma    75.9975

_symmetry_space_group_name_H-M    P 1
_symmetry_int_tables_number       1

loop_
  _symmetry_equiv_pos_as_xyz
  'x, y, z'

loop_
  _atom_site_label
  _atom_site_occupancy
  _atom_site_fract_x
  _atom_site_fract_y
  _atom_site_fract_z
  _atom_site_thermal_displace_type
  _atom_site_B_iso_or_equiv
  _atom_site_type_symbol
  Cu1      1.0000 0.59182  0.24495  0.54129  Biso   1.000  Cu
  Cu2      1.0000 0.49675  0.09832  0.62586  Biso   1.000  Cu
  Cu3      1.0000 0.35369  0.27202  0.67684  Biso   1.000  Cu
  Cu4      1.0000 0.62194  0.74495  0.04129  Biso   1.000  Cu
  Cu5      1.0000 0.77907  0.59832  0.12586  Biso   1.000  Cu
  Cu6      1.0000 0.69745  0.77202  0.17684  Biso   1.000  Cu
  H1       1.0000 0.82050  0.03010  0.20050  Biso   1.000  H
  H2       1.0000 0.85090  0.13180  0.23900  Biso   1.000  H
  H3       1.0000 0.17540  0.01270  0.31390  Biso   1.000  H
  H4       1.0000 0.13340  0.91170  0.28010  Biso   1.000  H
  H5       1.0000 0.73880  0.91590  0.21370  Biso   1.000  H
  H6       1.0000 0.04730  0.73940  0.17580  Biso   1.000  H
  H7       1.0000 0.38270  0.14970  0.50650  Biso   1.000  H
  H8       1.0000 0.14230  0.10680  0.64900  Biso   1.000  H
  H9       1.0000 0.99040  0.11060  0.57720  Biso   1.000  H
  H10      1.0000 0.00550  0.06560  0.48160  Biso   1.000  H
  H11      1.0000 0.24990  0.21050  0.43330  Biso   1.000  H
  H12      1.0000 0.19470  0.21000  0.34360  Biso   1.000  H
  H13      1.0000 0.91370  0.08470  0.40010  Biso   1.000  H
  H14      1.0000 0.04690  0.47720  0.05980  Biso   1.000  H
  H15      1.0000 0.79260  0.46360  0.20760  Biso   1.000  H
  H16      1.0000 0.14680  0.36040  0.10080  Biso   1.000  H
  H17      1.0000 0.85130  0.37790  0.27450  Biso   1.000  H
  H18      1.0000 0.12260  0.26170  0.14650  Biso   1.000  H
  H19      1.0000 0.15180  0.16300  0.20400  Biso   1.000  H
  H20      1.0000 0.87980  0.27750  0.33350  Biso   1.000  H
  H21      1.0000 0.17240  0.82810  0.19790  Biso   1.000  H
  H22      1.0000 0.94890  0.53010  0.70050  Biso   1.000  H
  H23      1.0000 0.77830  0.63180  0.73900  Biso   1.000  H
  H24      1.0000 0.49800  0.51270  0.81390  Biso   1.000  H
  H25      1.0000 0.67480  0.41170  0.78010  Biso   1.000  H
  H26      1.0000 0.13160  0.41590  0.71370  Biso   1.000  H
  H27      1.0000 0.03750  0.23940  0.67580  Biso   1.000  H
  H28      1.0000 0.96110  0.64970  0.00650  Biso   1.000  H
  H29      1.0000 0.10190  0.60680  0.14900  Biso   1.000  H
  H30      1.0000 0.32180  0.61060  0.07720  Biso   1.000  H
  H31      1.0000 0.44730  0.56560  0.98160  Biso   1.000  H
  H32      1.0000 0.10630  0.71050  0.93330  Biso   1.000  H
  H33      1.0000 0.25170  0.71000  0.84360  Biso   1.000  H
  H34      1.0000 0.60150  0.58470  0.90010  Biso   1.000  H
  H35      1.0000 0.41610  0.97720  0.55980  Biso   1.000  H
  H36      1.0000 0.53620  0.96360  0.70760  Biso   1.000  H
  H37      1.0000 0.39200  0.86040  0.60080  Biso   1.000  H
  H38      1.0000 0.49630  0.87790  0.77450  Biso   1.000  H
  H39      1.0000 0.46920  0.76170  0.64650  Biso   1.000  H
  H40      1.0000 0.48120  0.66300  0.70400  Biso   1.000  H
  H41      1.0000 0.50920  0.77750  0.83350  Biso   1.000  H
  H42      1.0000 0.80160  0.32810  0.69790  Biso   1.000  H
  W1       1.0000 0.63553  0.20062  0.64282  Biso   1.000  W
  W2       1.0000 0.52103  0.70062  0.14282  Biso   1.000  W
  C1       1.0000 0.00720  0.08270  0.28370  Biso   1.000  C
  C2       1.0000 0.89060  0.02690  0.22370  Biso   1.000  C
  C3       1.0000 0.90740  0.08730  0.24750  Biso   1.000  C
  C4       1.0000 0.10016  0.01618  0.29290  Biso   1.000  C
  C5       1.0000 0.97980  0.96170  0.23510  Biso   1.000  C
  C6       1.0000 0.07950  0.95630  0.27090  Biso   1.000  C
  C7       1.0000 0.83190  0.88340  0.20600  Biso   1.000  C
  C8       1.0000 0.00100  0.78690  0.18490  Biso   1.000  C
  C9       1.0000 0.30430  0.13900  0.53280  Biso   1.000  C
  C10      1.0000 0.17230  0.11550  0.61090  Biso   1.000  C
  C11      1.0000 0.08740  0.11760  0.57140  Biso   1.000  C
  C12      1.0000 0.12910  0.13820  0.46700  Biso   1.000  C
  C13      1.0000 0.03680  0.09820  0.45520  Biso   1.000  C
  C14      1.0000 0.18810  0.18230  0.42550  Biso   1.000  C
  C15      1.0000 0.15190  0.18290  0.37190  Biso   1.000  C
  C16      1.0000 0.99030  0.10590  0.40490  Biso   1.000  C
  C17      1.0000 0.05390  0.14430  0.35990  Biso   1.000  C
  C18      1.0000 0.01090  0.20920  0.27300  Biso   1.000  C
  C19      1.0000 0.00840  0.46030  0.09470  Biso   1.000  C
  C20      1.0000 0.86846  0.45288  0.17600  Biso   1.000  C
  C21      1.0000 0.06380  0.39520  0.11740  Biso   1.000  C
  C22      1.0000 0.98710  0.33070  0.20530  Biso   1.000  C
  C23      1.0000 0.91240  0.33450  0.26030  Biso   1.000  C
  C24      1.0000 0.07400  0.26550  0.18390  Biso   1.000  C
  C25      1.0000 0.08850  0.20610  0.21810  Biso   1.000  C
  C26      1.0000 0.92630  0.27400  0.29580  Biso   1.000  C
  C27      1.0000 0.07000  0.83480  0.19820  Biso   1.000  C
  C28      1.0000 0.62640  0.58270  0.78370  Biso   1.000  C
  C29      1.0000 0.85880  0.52690  0.72370  Biso   1.000  C
  C30      1.0000 0.75780  0.58730  0.74750  Biso   1.000  C
  C31      1.0000 0.59076  0.51618  0.79290  Biso   1.000  C
  C32      1.0000 0.82340  0.46170  0.73510  Biso   1.000  C
  C33      1.0000 0.69330  0.45630  0.77090  Biso   1.000  C
  C34      1.0000 0.07870  0.38340  0.70600  Biso   1.000  C
  C35      1.0000 0.02720  0.28690  0.68490  Biso   1.000  C
  C36      1.0000 0.02390  0.63900  0.03280  Biso   1.000  C
  C37      1.0000 0.10130  0.61550  0.11090  Biso   1.000  C
  C38      1.0000 0.22360  0.61760  0.07140  Biso   1.000  C
  C39      1.0000 0.26570  0.63820  0.96700  Biso   1.000  C
  C40      1.0000 0.40980  0.59820  0.95520  Biso   1.000  C
  C41      1.0000 0.20410  0.68230  0.92550  Biso   1.000  C
  C42      1.0000 0.29330  0.68290  0.87190  Biso   1.000  C
  C43      1.0000 0.49890  0.60590  0.90490  Biso   1.000  C
  C44      1.0000 0.44190  0.64430  0.85990  Biso   1.000  C
  C45      1.0000 0.50690  0.70920  0.77300  Biso   1.000  C
  C46      1.0000 0.43660  0.96030  0.59470  Biso   1.000  C
  C47      1.0000 0.50266  0.95288  0.67600  Biso   1.000  C
  C48      1.0000 0.42360  0.89520  0.61740  Biso   1.000  C
  C49      1.0000 0.47690  0.83070  0.70530  Biso   1.000  C
  C50      1.0000 0.49280  0.83450  0.76030  Biso   1.000  C
  C51      1.0000 0.47660  0.76550  0.68390  Biso   1.000  C
  C52      1.0000 0.48730  0.70610  0.71810  Biso   1.000  C
  C53      1.0000 0.50390  0.77400  0.79580  Biso   1.000  C
  C54      1.0000 0.89700  0.33480  0.69820  Biso   1.000  C
  S1       1.0000 0.68960  0.13124  0.56512  Biso   1.000  S
  S2       1.0000 0.46067  0.16209  0.70661  Biso   1.000  S
  S3       1.0000 0.53595  0.31388  0.61838  Biso   1.000  S
  S4       1.0000 0.61404  0.63124  0.06512  Biso   1.000  S
  S5       1.0000 0.67063  0.66209  0.20661  Biso   1.000  S
  S6       1.0000 0.53179  0.81388  0.11838  Biso   1.000  S
  Br1      1.0000 0.55407  0.28571  0.45489  Biso   1.000  Br
  Br2      1.0000 0.70533  0.78571  0.95489  Biso   1.000  Br
  N1       1.0000 0.30910  0.12860  0.58680  Biso   1.000  N
  N2       1.0000 0.17274  0.13232  0.51960  Biso   1.000  N
  N3       1.0000 0.01785  0.14630  0.30760  Biso   1.000  N
  N4       1.0000 0.88210  0.49730  0.13370  Biso   1.000  N
  N5       1.0000 0.97432  0.39026  0.16950  Biso   1.000  N
  N6       1.0000 0.85515  0.81690  0.18660  Biso   1.000  N
  N7       1.0000 0.95963  0.89624  0.21230  Biso   1.000  N
  N8       1.0000 0.97550  0.62860  0.08680  Biso   1.000  N
  N9       1.0000 0.17534  0.63232  0.01960  Biso   1.000  N
  N10      1.0000 0.52825  0.64630  0.80760  Biso   1.000  N
  N11      1.0000 0.48690  0.99730  0.63370  Biso   1.000  N
  N12      1.0000 0.46592  0.89026  0.66950  Biso   1.000  N
  N13      1.0000 0.14135  0.31690  0.68660  Biso   1.000  N
  N14      1.0000 0.93183  0.39624  0.71230  Biso   1.000  N
  O1       1.0000 0.79305  0.19590  0.67000  Biso   1.000  O
  O2       1.0000 0.34105  0.69590  0.17000  Biso   1.000  O
  Cu7      1.0000 0.37806  0.25505  0.95871  Biso   1.000  Cu
  Cu8      1.0000 0.22093  0.40168  0.87414  Biso   1.000  Cu
  Cu9      1.0000 0.30255  0.22798  0.82316  Biso   1.000  Cu
  Cu10     1.0000 0.40818  0.75505  0.45871  Biso   1.000  Cu
  Cu11     1.0000 0.50325  0.90168  0.37414  Biso   1.000  Cu
  Cu12     1.0000 0.64631  0.72798  0.32316  Biso   1.000  Cu
  H43      1.0000 0.05110  0.46990  0.29950  Biso   1.000  H
  H44      1.0000 0.22170  0.36820  0.26100  Biso   1.000  H
  H45      1.0000 0.50200  0.48730  0.18610  Biso   1.000  H
  H46      1.0000 0.32520  0.58830  0.21990  Biso   1.000  H
  H47      1.0000 0.86840  0.58410  0.28630  Biso   1.000  H
  H48      1.0000 0.96250  0.76060  0.32420  Biso   1.000  H
  H49      1.0000 0.03890  0.35030  0.99350  Biso   1.000  H
  H50      1.0000 0.89810  0.39320  0.85100  Biso   1.000  H
  H51      1.0000 0.67820  0.38940  0.92280  Biso   1.000  H
  H52      1.0000 0.55270  0.43440  0.01840  Biso   1.000  H
  H53      1.0000 0.89370  0.28950  0.06670  Biso   1.000  H
  H54      1.0000 0.74830  0.29000  0.15640  Biso   1.000  H
  H55      1.0000 0.39850  0.41530  0.09990  Biso   1.000  H
  H56      1.0000 0.58390  0.02280  0.44020  Biso   1.000  H
  H57      1.0000 0.46380  0.03640  0.29240  Biso   1.000  H
  H58      1.0000 0.60800  0.13960  0.39920  Biso   1.000  H
  H59      1.0000 0.50370  0.12210  0.22550  Biso   1.000  H
  H60      1.0000 0.53080  0.23830  0.35350  Biso   1.000  H
  H61      1.0000 0.51880  0.33700  0.29600  Biso   1.000  H
  H62      1.0000 0.49080  0.22250  0.16650  Biso   1.000  H
  H63      1.0000 0.19840  0.67190  0.30210  Biso   1.000  H
  H64      1.0000 0.17950  0.96990  0.79950  Biso   1.000  H
  H65      1.0000 0.14910  0.86820  0.76100  Biso   1.000  H
  H66      1.0000 0.82460  0.98730  0.68610  Biso   1.000  H
  H67      1.0000 0.86660  0.08830  0.71990  Biso   1.000  H
  H68      1.0000 0.26120  0.08410  0.78630  Biso   1.000  H
  H69      1.0000 0.95270  0.26060  0.82420  Biso   1.000  H
  H70      1.0000 0.61730  0.85030  0.49350  Biso   1.000  H
  H71      1.0000 0.85770  0.89320  0.35100  Biso   1.000  H
  H72      1.0000 0.00960  0.88940  0.42280  Biso   1.000  H
  H73      1.0000 0.99450  0.93440  0.51840  Biso   1.000  H
  H74      1.0000 0.75010  0.78950  0.56670  Biso   1.000  H
  H75      1.0000 0.80530  0.79000  0.65640  Biso   1.000  H
  H76      1.0000 0.08630  0.91530  0.59990  Biso   1.000  H
  H77      1.0000 0.95310  0.52280  0.94020  Biso   1.000  H
  H78      1.0000 0.20740  0.53640  0.79240  Biso   1.000  H
  H79      1.0000 0.85320  0.63960  0.89920  Biso   1.000  H
  H80      1.0000 0.14870  0.62210  0.72550  Biso   1.000  H
  H81      1.0000 0.87740  0.73830  0.85350  Biso   1.000  H
  H82      1.0000 0.84820  0.83700  0.79600  Biso   1.000  H
  H83      1.0000 0.12020  0.72250  0.66650  Biso   1.000  H
  H84      1.0000 0.82760  0.17190  0.80210  Biso   1.000  H
  W3       1.0000 0.47897  0.29938  0.85718  Biso   1.000  W
  W4       1.0000 0.36447  0.79938  0.35718  Biso   1.000  W
  C55      1.0000 0.37360  0.41730  0.21630  Biso   1.000  C
  C56      1.0000 0.14120  0.47310  0.27630  Biso   1.000  C
  C57      1.0000 0.24220  0.41270  0.25250  Biso   1.000  C
  C58      1.0000 0.40924  0.48382  0.20710  Biso   1.000  C
  C59      1.0000 0.17660  0.53830  0.26490  Biso   1.000  C
  C60      1.0000 0.30670  0.54370  0.22910  Biso   1.000  C
  C61      1.0000 0.92130  0.61660  0.29400  Biso   1.000  C
  C62      1.0000 0.97280  0.71310  0.31510  Biso   1.000  C
  C63      1.0000 0.97610  0.36100  0.96720  Biso   1.000  C
  C64      1.0000 0.89870  0.38450  0.88910  Biso   1.000  C
  C65      1.0000 0.77640  0.38240  0.92860  Biso   1.000  C
  C66      1.0000 0.73430  0.36180  0.03300  Biso   1.000  C
  C67      1.0000 0.59020  0.40180  0.04480  Biso   1.000  C
  C68      1.0000 0.79590  0.31770  0.07450  Biso   1.000  C
  C69      1.0000 0.70670  0.31710  0.12810  Biso   1.000  C
  C70      1.0000 0.50110  0.39410  0.09510  Biso   1.000  C
  C71      1.0000 0.55810  0.35570  0.14010  Biso   1.000  C
  C72      1.0000 0.49310  0.29080  0.22700  Biso   1.000  C
  C73      1.0000 0.56340  0.03970  0.40530  Biso   1.000  C
  C74      1.0000 0.49734  0.04712  0.32400  Biso   1.000  C
  C75      1.0000 0.57640  0.10480  0.38260  Biso   1.000  C
  C76      1.0000 0.52310  0.16930  0.29470  Biso   1.000  C
  C77      1.0000 0.50720  0.16550  0.23970  Biso   1.000  C
  C78      1.0000 0.52340  0.23450  0.31610  Biso   1.000  C
  C79      1.0000 0.51270  0.29390  0.28190  Biso   1.000  C
  C80      1.0000 0.49610  0.22600  0.20420  Biso   1.000  C
  C81      1.0000 0.10300  0.66520  0.30180  Biso   1.000  C
  C82      1.0000 0.99280  0.91730  0.71630  Biso   1.000  C
  C83      1.0000 0.10940  0.97310  0.77630  Biso   1.000  C
  C84      1.0000 0.09260  0.91270  0.75250  Biso   1.000  C
  C85      1.0000 0.89984  0.98382  0.70710  Biso   1.000  C
  C86      1.0000 0.02020  0.03830  0.76490  Biso   1.000  C
  C87      1.0000 0.92050  0.04370  0.72910  Biso   1.000  C
  C88      1.0000 0.16810  0.11660  0.79400  Biso   1.000  C
  C89      1.0000 0.99900  0.21310  0.81510  Biso   1.000  C
  C90      1.0000 0.69570  0.86100  0.46720  Biso   1.000  C
  C91      1.0000 0.82770  0.88450  0.38910  Biso   1.000  C
  C92      1.0000 0.91260  0.88240  0.42860  Biso   1.000  C
  C93      1.0000 0.87090  0.86180  0.53300  Biso   1.000  C
  C94      1.0000 0.96320  0.90180  0.54480  Biso   1.000  C
  C95      1.0000 0.81190  0.81770  0.57450  Biso   1.000  C
  C96      1.0000 0.84810  0.81710  0.62810  Biso   1.000  C
  C97      1.0000 0.00970  0.89410  0.59510  Biso   1.000  C
  C98      1.0000 0.94610  0.85570  0.64010  Biso   1.000  C
  C99      1.0000 0.98910  0.79080  0.72700  Biso   1.000  C
  C100     1.0000 0.99160  0.53970  0.90530  Biso   1.000  C
  C101     1.0000 0.13154  0.54712  0.82400  Biso   1.000  C
  C102     1.0000 0.93620  0.60480  0.88260  Biso   1.000  C
  C103     1.0000 0.01290  0.66930  0.79470  Biso   1.000  C
  C104     1.0000 0.08760  0.66550  0.73970  Biso   1.000  C
  C105     1.0000 0.92600  0.73450  0.81610  Biso   1.000  C
  C106     1.0000 0.91150  0.79390  0.78190  Biso   1.000  C
  C107     1.0000 0.07370  0.72600  0.70420  Biso   1.000  C
  C108     1.0000 0.93000  0.16520  0.80180  Biso   1.000  C
  S7       1.0000 0.38596  0.36876  0.93488  Biso   1.000  S
  S8       1.0000 0.32937  0.33791  0.79339  Biso   1.000  S
  S9       1.0000 0.46821  0.18612  0.88162  Biso   1.000  S
  S10      1.0000 0.31040  0.86876  0.43488  Biso   1.000  S
  S11      1.0000 0.53933  0.83791  0.29339  Biso   1.000  S
  S12      1.0000 0.46405  0.68612  0.38162  Biso   1.000  S
  Br3      1.0000 0.29467  0.21429  0.04511  Biso   1.000  Br
  Br4      1.0000 0.44593  0.71429  0.54511  Biso   1.000  Br
  N15      1.0000 0.02450  0.37140  0.91320  Biso   1.000  N
  N16      1.0000 0.82466  0.36768  0.98040  Biso   1.000  N
  N17      1.0000 0.47175  0.35370  0.19240  Biso   1.000  N
  N18      1.0000 0.51310  0.00270  0.36630  Biso   1.000  N
  N19      1.0000 0.53408  0.10974  0.33050  Biso   1.000  N
  N20      1.0000 0.85865  0.68310  0.31340  Biso   1.000  N
  N21      1.0000 0.06817  0.60376  0.28770  Biso   1.000  N
  N22      1.0000 0.69090  0.87140  0.41320  Biso   1.000  N
  N23      1.0000 0.82726  0.86768  0.48040  Biso   1.000  N
  N24      1.0000 0.98215  0.85370  0.69240  Biso   1.000  N
  N25      1.0000 0.11790  0.50270  0.86630  Biso   1.000  N
  N26      1.0000 0.02568  0.60974  0.83050  Biso   1.000  N
  N27      1.0000 0.14485  0.18310  0.81340  Biso   1.000  N
  N28      1.0000 0.04037  0.10376  0.78770  Biso   1.000  N
  O3       1.0000 0.65895  0.30410  0.83000  Biso   1.000  O
  O4       1.0000 0.20695  0.80410  0.33000  Biso   1.000  O
