data_image0
_cell_length_a       10.1382
_cell_length_b       12.9139
_cell_length_c       11.7341
_cell_angle_alpha    90
_cell_angle_beta     110.04
_cell_angle_gamma    90

_symmetry_space_group_name_H-M    "P 1"
_symmetry_int_tables_number       1

loop_
  _symmetry_equiv_pos_as_xyz
  'x, y, z'

loop_
  _atom_site_label
  _atom_site_occupancy
  _atom_site_fract_x
  _atom_site_fract_y
  _atom_site_fract_z
  _atom_site_thermal_displace_type
  _atom_site_B_iso_or_equiv
  _atom_site_type_symbol
  Cd1      1.0000 0.78741  0.14601  0.22755  Biso   1.000  Cd
  O1       1.0000 0.51400  0.17840  0.19810  Biso   1.000  O
  O2       1.0000 0.61630  0.02870  0.19420  Biso   1.000  O
  O3       1.0000 0.03860  0.15100  0.25260  Biso   1.000  O
  O4       1.0000 0.91180  0.01180  0.18730  Biso   1.000  O
  N1       1.0000 0.23150  0.74760  0.92600  Biso   1.000  N
  N2       1.0000 0.21260  0.64410  0.91220  Biso   1.000  N
  N3       1.0000 0.18720  0.60670  0.00540  Biso   1.000  N
  N4       1.0000 0.18830  0.68400  0.08230  Biso   1.000  N
  C1       1.0000 0.14000  0.01360  0.17400  Biso   1.000  C
  C2       1.0000 0.26490  0.06800  0.19260  Biso   1.000  C
  H1       1.0000 0.27570  0.13360  0.22730  Biso   1.000  H
  C3       1.0000 0.37230  0.02640  0.16040  Biso   1.000  C
  C4       1.0000 0.35670  0.92810  0.10810  Biso   1.000  C
  H2       1.0000 0.42910  0.89900  0.08720  Biso   1.000  H
  C5       1.0000 0.23240  0.87400  0.08760  Biso   1.000  C
  C6       1.0000 0.12520  0.91660  0.12100  Biso   1.000  C
  H3       1.0000 0.04260  0.87950  0.10770  Biso   1.000  H
  C7       1.0000 0.02550  0.06110  0.20760  Biso   1.000  C
  C8       1.0000 0.50910  0.08360  0.18460  Biso   1.000  C
  C9       1.0000 0.21570  0.77020  0.03170  Biso   1.000  C
  Cd2      1.0000 0.21259  0.64601  0.27245  Biso   1.000  Cd
  O5       1.0000 0.48600  0.67840  0.30190  Biso   1.000  O
  O6       1.0000 0.38370  0.52870  0.30580  Biso   1.000  O
  O7       1.0000 0.96140  0.65100  0.24740  Biso   1.000  O
  O8       1.0000 0.08820  0.51180  0.31270  Biso   1.000  O
  N5       1.0000 0.76850  0.24760  0.57400  Biso   1.000  N
  N6       1.0000 0.78740  0.14410  0.58780  Biso   1.000  N
  N7       1.0000 0.81280  0.10670  0.49460  Biso   1.000  N
  N8       1.0000 0.81170  0.18400  0.41770  Biso   1.000  N
  C10      1.0000 0.86000  0.51360  0.32600  Biso   1.000  C
  C11      1.0000 0.73510  0.56800  0.30740  Biso   1.000  C
  H4       1.0000 0.72430  0.63360  0.27270  Biso   1.000  H
  C12      1.0000 0.62770  0.52640  0.33960  Biso   1.000  C
  C13      1.0000 0.64330  0.42810  0.39190  Biso   1.000  C
  H5       1.0000 0.57090  0.39900  0.41280  Biso   1.000  H
  C14      1.0000 0.76760  0.37400  0.41240  Biso   1.000  C
  C15      1.0000 0.87480  0.41660  0.37900  Biso   1.000  C
  H6       1.0000 0.95740  0.37950  0.39230  Biso   1.000  H
  C16      1.0000 0.97450  0.56110  0.29240  Biso   1.000  C
  C17      1.0000 0.49090  0.58360  0.31540  Biso   1.000  C
  C18      1.0000 0.78430  0.27020  0.46830  Biso   1.000  C
  Cd3      1.0000 0.21259  0.85399  0.77245  Biso   1.000  Cd
  O9       1.0000 0.48600  0.82160  0.80190  Biso   1.000  O
  O10      1.0000 0.38370  0.97130  0.80580  Biso   1.000  O
  O11      1.0000 0.96140  0.84900  0.74740  Biso   1.000  O
  O12      1.0000 0.08820  0.98820  0.81270  Biso   1.000  O
  N9       1.0000 0.76850  0.25240  0.07400  Biso   1.000  N
  N10      1.0000 0.78740  0.35590  0.08780  Biso   1.000  N
  N11      1.0000 0.81280  0.39330  0.99460  Biso   1.000  N
  N12      1.0000 0.81170  0.31600  0.91770  Biso   1.000  N
  C19      1.0000 0.86000  0.98640  0.82600  Biso   1.000  C
  C20      1.0000 0.73510  0.93200  0.80740  Biso   1.000  C
  H7       1.0000 0.72430  0.86640  0.77270  Biso   1.000  H
  C21      1.0000 0.62770  0.97360  0.83960  Biso   1.000  C
  C22      1.0000 0.64330  0.07190  0.89190  Biso   1.000  C
  H8       1.0000 0.57090  0.10100  0.91280  Biso   1.000  H
  C23      1.0000 0.76760  0.12600  0.91240  Biso   1.000  C
  C24      1.0000 0.87480  0.08340  0.87900  Biso   1.000  C
  H9       1.0000 0.95740  0.12050  0.89230  Biso   1.000  H
  C25      1.0000 0.97450  0.93890  0.79240  Biso   1.000  C
  C26      1.0000 0.49090  0.91640  0.81540  Biso   1.000  C
  C27      1.0000 0.78430  0.22980  0.96830  Biso   1.000  C
  Cd4      1.0000 0.78741  0.35399  0.72755  Biso   1.000  Cd
  O13      1.0000 0.51400  0.32160  0.69810  Biso   1.000  O
  O14      1.0000 0.61630  0.47130  0.69420  Biso   1.000  O
  O15      1.0000 0.03860  0.34900  0.75260  Biso   1.000  O
  O16      1.0000 0.91180  0.48820  0.68730  Biso   1.000  O
  N13      1.0000 0.23150  0.75240  0.42600  Biso   1.000  N
  N14      1.0000 0.21260  0.85590  0.41220  Biso   1.000  N
  N15      1.0000 0.18720  0.89330  0.50540  Biso   1.000  N
  N16      1.0000 0.18830  0.81600  0.58230  Biso   1.000  N
  C28      1.0000 0.14000  0.48640  0.67400  Biso   1.000  C
  C29      1.0000 0.26490  0.43200  0.69260  Biso   1.000  C
  H10      1.0000 0.27570  0.36640  0.72730  Biso   1.000  H
  C30      1.0000 0.37230  0.47360  0.66040  Biso   1.000  C
  C31      1.0000 0.35670  0.57190  0.60810  Biso   1.000  C
  H11      1.0000 0.42910  0.60100  0.58720  Biso   1.000  H
  C32      1.0000 0.23240  0.62600  0.58760  Biso   1.000  C
  C33      1.0000 0.12520  0.58340  0.62100  Biso   1.000  C
  H12      1.0000 0.04260  0.62050  0.60770  Biso   1.000  H
  C34      1.0000 0.02550  0.43890  0.70760  Biso   1.000  C
  C35      1.0000 0.50910  0.41640  0.68460  Biso   1.000  C
  C36      1.0000 0.21570  0.72980  0.53170  Biso   1.000  C
