data_image0
_cell_length_a       11.7636
_cell_length_b       16.3609
_cell_length_c       11.589
_cell_angle_alpha    90
_cell_angle_beta     113.314
_cell_angle_gamma    90

_symmetry_space_group_name_H-M    "P 1"
_symmetry_int_tables_number       1

loop_
  _symmetry_equiv_pos_as_xyz
  'x, y, z'

loop_
  _atom_site_label
  _atom_site_occupancy
  _atom_site_fract_x
  _atom_site_fract_y
  _atom_site_fract_z
  _atom_site_thermal_displace_type
  _atom_site_B_iso_or_equiv
  _atom_site_type_symbol
  Eu1      1.0000 0.19022  0.53446  0.57594  Biso   1.000  Eu
  S1       1.0000 0.03995  0.78435  0.69768  Biso   1.000  S
  O1       1.0000 0.04140  0.63797  0.55240  Biso   1.000  O
  C1       1.0000 0.67630  0.17260  0.79590  Biso   1.000  C
  C2       1.0000 0.94550  0.85420  0.72740  Biso   1.000  C
  C3       1.0000 0.82290  0.83150  0.67320  Biso   1.000  C
  H1       1.0000 0.75860  0.86110  0.68050  Biso   1.000  H
  C4       1.0000 0.80690  0.75790  0.60530  Biso   1.000  C
  H2       1.0000 0.73010  0.73370  0.56220  Biso   1.000  H
  C5       1.0000 0.91600  0.72560  0.60920  Biso   1.000  C
  S2       1.0000 0.52016  0.30129  0.78743  Biso   1.000  S
  O2       1.0000 0.93150  0.97599  0.82910  Biso   1.000  O
  O3       1.0000 0.11860  0.92921  0.85670  Biso   1.000  O
  O4       1.0000 0.35050  0.44720  0.73170  Biso   1.000  O
  O5       1.0000 0.84770  0.59870  0.51390  Biso   1.000  O
  O6       1.0000 0.68860  0.15920  0.90650  Biso   1.000  O
  O7       1.0000 0.71800  0.12291  0.73710  Biso   1.000  O
  O8       1.0000 0.38410  0.49080  0.56820  Biso   1.000  O
  C6       1.0000 0.00250  0.92460  0.80980  Biso   1.000  C
  C7       1.0000 0.93510  0.64820  0.55360  Biso   1.000  C
  C8       1.0000 0.61370  0.24740  0.73210  Biso   1.000  C
  C9       1.0000 0.62210  0.28490  0.63030  Biso   1.000  C
  H3       1.0000 0.66770  0.26420  0.58720  Biso   1.000  H
  C10      1.0000 0.40470  0.44140  0.65780  Biso   1.000  C
  C11      1.0000 0.49260  0.37400  0.67210  Biso   1.000  C
  C12      1.0000 0.55490  0.35800  0.59800  Biso   1.000  C
  H4       1.0000 0.55310  0.39180  0.53280  Biso   1.000  H
  Eu2      1.0000 0.80978  0.03446  0.92406  Biso   1.000  Eu
  S3       1.0000 0.96005  0.28435  0.80232  Biso   1.000  S
  O9       1.0000 0.95860  0.13797  0.94760  Biso   1.000  O
  C13      1.0000 0.32370  0.67260  0.70410  Biso   1.000  C
  C14      1.0000 0.05450  0.35420  0.77260  Biso   1.000  C
  C15      1.0000 0.17710  0.33150  0.82680  Biso   1.000  C
  H5       1.0000 0.24140  0.36110  0.81950  Biso   1.000  H
  C16      1.0000 0.19310  0.25790  0.89470  Biso   1.000  C
  H6       1.0000 0.26990  0.23370  0.93780  Biso   1.000  H
  C17      1.0000 0.08400  0.22560  0.89080  Biso   1.000  C
  S4       1.0000 0.47984  0.80129  0.71257  Biso   1.000  S
  O10      1.0000 0.06850  0.47599  0.67090  Biso   1.000  O
  O11      1.0000 0.88140  0.42921  0.64330  Biso   1.000  O
  O12      1.0000 0.64950  0.94720  0.76830  Biso   1.000  O
  O13      1.0000 0.15230  0.09870  0.98610  Biso   1.000  O
  O14      1.0000 0.31140  0.65920  0.59350  Biso   1.000  O
  O15      1.0000 0.28200  0.62291  0.76290  Biso   1.000  O
  O16      1.0000 0.61590  0.99080  0.93180  Biso   1.000  O
  C18      1.0000 0.99750  0.42460  0.69020  Biso   1.000  C
  C19      1.0000 0.06490  0.14820  0.94640  Biso   1.000  C
  C20      1.0000 0.38630  0.74740  0.76790  Biso   1.000  C
  C21      1.0000 0.37790  0.78490  0.86970  Biso   1.000  C
  H7       1.0000 0.33230  0.76420  0.91280  Biso   1.000  H
  C22      1.0000 0.59530  0.94140  0.84220  Biso   1.000  C
  C23      1.0000 0.50740  0.87400  0.82790  Biso   1.000  C
  C24      1.0000 0.44510  0.85800  0.90200  Biso   1.000  C
  H8       1.0000 0.44690  0.89180  0.96720  Biso   1.000  H
  Eu3      1.0000 0.80978  0.46554  0.42406  Biso   1.000  Eu
  S5       1.0000 0.96005  0.21565  0.30232  Biso   1.000  S
  O17      1.0000 0.95860  0.36203  0.44760  Biso   1.000  O
  C25      1.0000 0.32370  0.82740  0.20410  Biso   1.000  C
  C26      1.0000 0.05450  0.14580  0.27260  Biso   1.000  C
  C27      1.0000 0.17710  0.16850  0.32680  Biso   1.000  C
  H9       1.0000 0.24140  0.13890  0.31950  Biso   1.000  H
  C28      1.0000 0.19310  0.24210  0.39470  Biso   1.000  C
  H10      1.0000 0.26990  0.26630  0.43780  Biso   1.000  H
  C29      1.0000 0.08400  0.27440  0.39080  Biso   1.000  C
  S6       1.0000 0.47984  0.69871  0.21257  Biso   1.000  S
  O18      1.0000 0.06850  0.02401  0.17090  Biso   1.000  O
  O19      1.0000 0.88140  0.07079  0.14330  Biso   1.000  O
  O20      1.0000 0.64950  0.55280  0.26830  Biso   1.000  O
  O21      1.0000 0.15230  0.40130  0.48610  Biso   1.000  O
  O22      1.0000 0.31140  0.84080  0.09350  Biso   1.000  O
  O23      1.0000 0.28200  0.87709  0.26290  Biso   1.000  O
  O24      1.0000 0.61590  0.50920  0.43180  Biso   1.000  O
  C30      1.0000 0.99750  0.07540  0.19020  Biso   1.000  C
  C31      1.0000 0.06490  0.35180  0.44640  Biso   1.000  C
  C32      1.0000 0.38630  0.75260  0.26790  Biso   1.000  C
  C33      1.0000 0.37790  0.71510  0.36970  Biso   1.000  C
  H11      1.0000 0.33230  0.73580  0.41280  Biso   1.000  H
  C34      1.0000 0.59530  0.55860  0.34220  Biso   1.000  C
  C35      1.0000 0.50740  0.62600  0.32790  Biso   1.000  C
  C36      1.0000 0.44510  0.64200  0.40200  Biso   1.000  C
  H12      1.0000 0.44690  0.60820  0.46720  Biso   1.000  H
  Eu4      1.0000 0.19022  0.96554  0.07594  Biso   1.000  Eu
  S7       1.0000 0.03995  0.71565  0.19768  Biso   1.000  S
  O25      1.0000 0.04140  0.86203  0.05240  Biso   1.000  O
  C37      1.0000 0.67630  0.32740  0.29590  Biso   1.000  C
  C38      1.0000 0.94550  0.64580  0.22740  Biso   1.000  C
  C39      1.0000 0.82290  0.66850  0.17320  Biso   1.000  C
  H13      1.0000 0.75860  0.63890  0.18050  Biso   1.000  H
  C40      1.0000 0.80690  0.74210  0.10530  Biso   1.000  C
  H14      1.0000 0.73010  0.76630  0.06220  Biso   1.000  H
  C41      1.0000 0.91600  0.77440  0.10920  Biso   1.000  C
  S8       1.0000 0.52016  0.19871  0.28743  Biso   1.000  S
  O26      1.0000 0.93150  0.52401  0.32910  Biso   1.000  O
  O27      1.0000 0.11860  0.57079  0.35670  Biso   1.000  O
  O28      1.0000 0.35050  0.05280  0.23170  Biso   1.000  O
  O29      1.0000 0.84770  0.90130  0.01390  Biso   1.000  O
  O30      1.0000 0.68860  0.34080  0.40650  Biso   1.000  O
  O31      1.0000 0.71800  0.37709  0.23710  Biso   1.000  O
  O32      1.0000 0.38410  0.00920  0.06820  Biso   1.000  O
  C42      1.0000 0.00250  0.57540  0.30980  Biso   1.000  C
  C43      1.0000 0.93510  0.85180  0.05360  Biso   1.000  C
  C44      1.0000 0.61370  0.25260  0.23210  Biso   1.000  C
  C45      1.0000 0.62210  0.21510  0.13030  Biso   1.000  C
  H15      1.0000 0.66770  0.23580  0.08720  Biso   1.000  H
  C46      1.0000 0.40470  0.05860  0.15780  Biso   1.000  C
  C47      1.0000 0.49260  0.12600  0.17210  Biso   1.000  C
  C48      1.0000 0.55490  0.14200  0.09800  Biso   1.000  C
  H16      1.0000 0.55310  0.10820  0.03280  Biso   1.000  H
