data_image0
_cell_length_a       11.738
_cell_length_b       16.5818
_cell_length_c       11.5785
_cell_angle_alpha    90
_cell_angle_beta     113.514
_cell_angle_gamma    90

_symmetry_space_group_name_H-M    "P 1"
_symmetry_int_tables_number       1

loop_
  _symmetry_equiv_pos_as_xyz
  'x, y, z'

loop_
  _atom_site_label
  _atom_site_occupancy
  _atom_site_fract_x
  _atom_site_fract_y
  _atom_site_fract_z
  _atom_site_thermal_displace_type
  _atom_site_B_iso_or_equiv
  _atom_site_type_symbol
  Nd1      1.0000 0.30994  0.53407  0.42474  Biso   1.000  Nd
  S1       1.0000 0.98050  0.30060  0.21143  Biso   1.000  S
  O1       1.0000 0.46060  0.63790  0.44470  Biso   1.000  O
  O2       1.0000 0.14770  0.44570  0.26470  Biso   1.000  O
  O3       1.0000 0.11040  0.49160  0.42680  Biso   1.000  O
  C1       1.0000 0.67780  0.83140  0.32800  Biso   1.000  C
  H1       1.0000 0.74200  0.86100  0.32130  Biso   1.000  H
  C2       1.0000 0.87740  0.28370  0.36830  Biso   1.000  C
  H2       1.0000 0.83230  0.26220  0.41130  Biso   1.000  H
  C3       1.0000 0.94340  0.35830  0.40030  Biso   1.000  C
  H3       1.0000 0.94370  0.39240  0.46420  Biso   1.000  H
  C4       1.0000 0.00670  0.37340  0.32440  Biso   1.000  C
  C5       1.0000 0.09290  0.44200  0.33960  Biso   1.000  C
  C6       1.0000 0.88850  0.24740  0.26660  Biso   1.000  C
  C7       1.0000 0.55310  0.85350  0.27320  Biso   1.000  C
  C8       1.0000 0.69420  0.75890  0.39460  Biso   1.000  C
  H4       1.0000 0.77170  0.73550  0.43780  Biso   1.000  H
  C9       1.0000 0.58690  0.72590  0.39050  Biso   1.000  C
  O4       1.0000 0.81350  0.16020  0.09290  Biso   1.000  O
  O5       1.0000 0.37810  0.92740  0.14770  Biso   1.000  O
  O6       1.0000 0.65580  0.59970  0.48350  Biso   1.000  O
  O7       1.0000 0.78760  0.12240  0.26670  Biso   1.000  O
  C10      1.0000 0.56520  0.64900  0.44590  Biso   1.000  C
  C11      1.0000 0.82580  0.17200  0.20560  Biso   1.000  C
  C12      1.0000 0.49430  0.92290  0.19130  Biso   1.000  C
  S2       1.0000 0.46058  0.78384  0.30356  Biso   1.000  S
  O8       1.0000 0.56320  0.97410  0.16790  Biso   1.000  O
  Nd2      1.0000 0.69006  0.03407  0.07526  Biso   1.000  Nd
  S3       1.0000 0.01950  0.80060  0.28857  Biso   1.000  S
  O9       1.0000 0.53940  0.13790  0.05530  Biso   1.000  O
  O10      1.0000 0.85230  0.94570  0.23530  Biso   1.000  O
  O11      1.0000 0.88960  0.99160  0.07320  Biso   1.000  O
  C13      1.0000 0.32220  0.33140  0.17200  Biso   1.000  C
  H5       1.0000 0.25800  0.36100  0.17870  Biso   1.000  H
  C14      1.0000 0.12260  0.78370  0.13170  Biso   1.000  C
  H6       1.0000 0.16770  0.76220  0.08870  Biso   1.000  H
  C15      1.0000 0.05660  0.85830  0.09970  Biso   1.000  C
  H7       1.0000 0.05630  0.89240  0.03580  Biso   1.000  H
  C16      1.0000 0.99330  0.87340  0.17560  Biso   1.000  C
  C17      1.0000 0.90710  0.94200  0.16040  Biso   1.000  C
  C18      1.0000 0.11150  0.74740  0.23340  Biso   1.000  C
  C19      1.0000 0.44690  0.35350  0.22680  Biso   1.000  C
  C20      1.0000 0.30580  0.25890  0.10540  Biso   1.000  C
  H8       1.0000 0.22830  0.23550  0.06220  Biso   1.000  H
  C21      1.0000 0.41310  0.22590  0.10950  Biso   1.000  C
  O12      1.0000 0.18650  0.66020  0.40710  Biso   1.000  O
  O13      1.0000 0.62190  0.42740  0.35230  Biso   1.000  O
  O14      1.0000 0.34420  0.09970  0.01650  Biso   1.000  O
  O15      1.0000 0.21240  0.62240  0.23330  Biso   1.000  O
  C22      1.0000 0.43480  0.14900  0.05410  Biso   1.000  C
  C23      1.0000 0.17420  0.67200  0.29440  Biso   1.000  C
  C24      1.0000 0.50570  0.42290  0.30870  Biso   1.000  C
  S4       1.0000 0.53942  0.28384  0.19644  Biso   1.000  S
  O16      1.0000 0.43680  0.47410  0.33210  Biso   1.000  O
  Nd3      1.0000 0.69006  0.46593  0.57526  Biso   1.000  Nd
  S5       1.0000 0.01950  0.69940  0.78857  Biso   1.000  S
  O17      1.0000 0.53940  0.36210  0.55530  Biso   1.000  O
  O18      1.0000 0.85230  0.55430  0.73530  Biso   1.000  O
  O19      1.0000 0.88960  0.50840  0.57320  Biso   1.000  O
  C25      1.0000 0.32220  0.16860  0.67200  Biso   1.000  C
  H9       1.0000 0.25800  0.13900  0.67870  Biso   1.000  H
  C26      1.0000 0.12260  0.71630  0.63170  Biso   1.000  C
  H10      1.0000 0.16770  0.73780  0.58870  Biso   1.000  H
  C27      1.0000 0.05660  0.64170  0.59970  Biso   1.000  C
  H11      1.0000 0.05630  0.60760  0.53580  Biso   1.000  H
  C28      1.0000 0.99330  0.62660  0.67560  Biso   1.000  C
  C29      1.0000 0.90710  0.55800  0.66040  Biso   1.000  C
  C30      1.0000 0.11150  0.75260  0.73340  Biso   1.000  C
  C31      1.0000 0.44690  0.14650  0.72680  Biso   1.000  C
  C32      1.0000 0.30580  0.24110  0.60540  Biso   1.000  C
  H12      1.0000 0.22830  0.26450  0.56220  Biso   1.000  H
  C33      1.0000 0.41310  0.27410  0.60950  Biso   1.000  C
  O20      1.0000 0.18650  0.83980  0.90710  Biso   1.000  O
  O21      1.0000 0.62190  0.07260  0.85230  Biso   1.000  O
  O22      1.0000 0.34420  0.40030  0.51650  Biso   1.000  O
  O23      1.0000 0.21240  0.87760  0.73330  Biso   1.000  O
  C34      1.0000 0.43480  0.35100  0.55410  Biso   1.000  C
  C35      1.0000 0.17420  0.82800  0.79440  Biso   1.000  C
  C36      1.0000 0.50570  0.07710  0.80870  Biso   1.000  C
  S6       1.0000 0.53942  0.21616  0.69644  Biso   1.000  S
  O24      1.0000 0.43680  0.02590  0.83210  Biso   1.000  O
  Nd4      1.0000 0.30994  0.96593  0.92474  Biso   1.000  Nd
  S7       1.0000 0.98050  0.19940  0.71143  Biso   1.000  S
  O25      1.0000 0.46060  0.86210  0.94470  Biso   1.000  O
  O26      1.0000 0.14770  0.05430  0.76470  Biso   1.000  O
  O27      1.0000 0.11040  0.00840  0.92680  Biso   1.000  O
  C37      1.0000 0.67780  0.66860  0.82800  Biso   1.000  C
  H13      1.0000 0.74200  0.63900  0.82130  Biso   1.000  H
  C38      1.0000 0.87740  0.21630  0.86830  Biso   1.000  C
  H14      1.0000 0.83230  0.23780  0.91130  Biso   1.000  H
  C39      1.0000 0.94340  0.14170  0.90030  Biso   1.000  C
  H15      1.0000 0.94370  0.10760  0.96420  Biso   1.000  H
  C40      1.0000 0.00670  0.12660  0.82440  Biso   1.000  C
  C41      1.0000 0.09290  0.05800  0.83960  Biso   1.000  C
  C42      1.0000 0.88850  0.25260  0.76660  Biso   1.000  C
  C43      1.0000 0.55310  0.64650  0.77320  Biso   1.000  C
  C44      1.0000 0.69420  0.74110  0.89460  Biso   1.000  C
  H16      1.0000 0.77170  0.76450  0.93780  Biso   1.000  H
  C45      1.0000 0.58690  0.77410  0.89050  Biso   1.000  C
  O28      1.0000 0.81350  0.33980  0.59290  Biso   1.000  O
  O29      1.0000 0.37810  0.57260  0.64770  Biso   1.000  O
  O30      1.0000 0.65580  0.90030  0.98350  Biso   1.000  O
  O31      1.0000 0.78760  0.37760  0.76670  Biso   1.000  O
  C46      1.0000 0.56520  0.85100  0.94590  Biso   1.000  C
  C47      1.0000 0.82580  0.32800  0.70560  Biso   1.000  C
  C48      1.0000 0.49430  0.57710  0.69130  Biso   1.000  C
  S8       1.0000 0.46058  0.71616  0.80356  Biso   1.000  S
  O32      1.0000 0.56320  0.52590  0.66790  Biso   1.000  O
