data_image0
_cell_length_a       24.7273
_cell_length_b       24.7273
_cell_length_c       14.3812
_cell_angle_alpha    90
_cell_angle_beta     90
_cell_angle_gamma    120

_symmetry_space_group_name_H-M    "P 1"
_symmetry_int_tables_number       1

loop_
  _symmetry_equiv_pos_as_xyz
  'x, y, z'

loop_
  _atom_site_label
  _atom_site_occupancy
  _atom_site_fract_x
  _atom_site_fract_y
  _atom_site_fract_z
  _atom_site_thermal_displace_type
  _atom_site_B_iso_or_equiv
  _atom_site_type_symbol
  In1      1.0000 0.67022  0.56106  0.38717  Biso   1.000  In
  In2      1.0000 0.32974  0.44072  0.88541  Biso   1.000  In
  O1       1.0000 0.36990  0.45520  0.01900  Biso   1.000  O
  O2       1.0000 0.70550  0.57090  0.25150  Biso   1.000  O
  O3       1.0000 0.58930  0.55460  0.31200  Biso   1.000  O
  O4       1.0000 0.40250  0.46220  0.50660  Biso   1.000  O
  O5       1.0000 0.57990  0.54430  0.15600  Biso   1.000  O
  O6       1.0000 0.38030  0.54800  0.87110  Biso   1.000  O
  O7       1.0000 0.73830  0.50310  0.38450  Biso   1.000  O
  O8       1.0000 0.31430  0.44850  0.45120  Biso   1.000  O
  O9       1.0000 0.30050  0.33620  0.88010  Biso   1.000  O
  O10      1.0000 0.70670  0.66250  0.40750  Biso   1.000  O
  O11      1.0000 0.28000  0.49920  0.90280  Biso   1.000  O
  O12      1.0000 0.23140  0.36230  0.92160  Biso   1.000  O
  O13      1.0000 0.63630  0.46270  0.38420  Biso   1.000  O
  O14      1.0000 0.77890  0.63520  0.40380  Biso   1.000  O
  O15      1.0000 0.29380  0.45340  0.10140  Biso   1.000  O
  C1       1.0000 0.39890  0.48020  0.34370  Biso   1.000  C
  C2       1.0000 0.91530  0.82310  0.35060  Biso   1.000  C
  H1       1.0000 0.95330  0.83390  0.32230  Biso   1.000  H
  C3       1.0000 0.45180  0.50230  0.16840  Biso   1.000  C
  H2       1.0000 0.46920  0.50860  0.10930  Biso   1.000  H
  C4       1.0000 0.87020  0.76090  0.35860  Biso   1.000  C
  H3       1.0000 0.87830  0.73010  0.33710  Biso   1.000  H
  C5       1.0000 0.46370  0.50530  0.33290  Biso   1.000  C
  H4       1.0000 0.48900  0.51400  0.38510  Biso   1.000  H
  C6       1.0000 0.55950  0.54140  0.23840  Biso   1.000  C
  C7       1.0000 0.80190  0.78990  0.43290  Biso   1.000  C
  H5       1.0000 0.76360  0.77910  0.46010  Biso   1.000  H
  C8       1.0000 0.13760  0.23510  0.93490  Biso   1.000  C
  H6       1.0000 0.13090  0.26430  0.96550  Biso   1.000  H
  C9       1.0000 0.48960  0.51690  0.24610  Biso   1.000  C
  C10      1.0000 0.84700  0.85170  0.42720  Biso   1.000  C
  H7       1.0000 0.83930  0.88190  0.45200  Biso   1.000  H
  C11      1.0000 0.38750  0.47820  0.17860  Biso   1.000  C
  C12      1.0000 0.34490  0.46110  0.09260  Biso   1.000  C
  C13      1.0000 0.36200  0.46800  0.26690  Biso   1.000  C
  H8       1.0000 0.31940  0.45290  0.27400  Biso   1.000  H
  C14      1.0000 0.76270  0.67590  0.40450  Biso   1.000  C
  C15      1.0000 0.24300  0.32080  0.89860  Biso   1.000  C
  C16      1.0000 0.36960  0.46330  0.43880  Biso   1.000  C
  C17      1.0000 0.19410  0.25330  0.89700  Biso   1.000  C
  C18      1.0000 0.95330  0.93650  0.37810  Biso   1.000  C
  C19      1.0000 0.90480  0.87010  0.38440  Biso   1.000  C
  C20      1.0000 0.81210  0.74390  0.39930  Biso   1.000  C
  C21      1.0000 0.01740  0.95440  0.37640  Biso   1.000  C
  H9       1.0000 0.02880  0.92380  0.37410  Biso   1.000  H
  C22      1.0000 0.20390  0.21060  0.84660  Biso   1.000  C
  H10      1.0000 0.24190  0.22310  0.81740  Biso   1.000  H
  C23      1.0000 0.33070  0.54890  0.88660  Biso   1.000  C
  C24      1.0000 0.08920  0.17330  0.92920  Biso   1.000  C
  H11      1.0000 0.05080  0.16150  0.95690  Biso   1.000  H
  C25      1.0000 0.68480  0.45730  0.38290  Biso   1.000  C
  C26      1.0000 0.15580  0.14940  0.84120  Biso   1.000  C
  H12      1.0000 0.16250  0.12070  0.80880  Biso   1.000  H
  C27      1.0000 0.27630  0.61130  0.88300  Biso   1.000  C
  C28      1.0000 0.33230  0.61020  0.88380  Biso   1.000  C
  C29      1.0000 0.67570  0.39350  0.38210  Biso   1.000  C
  C30      1.0000 0.61610  0.34260  0.38140  Biso   1.000  C
  C31      1.0000 0.09810  0.12910  0.88210  Biso   1.000  C
  C32      1.0000 0.04820  0.06360  0.87840  Biso   1.000  C
  C33      1.0000 0.98460  0.04680  0.87680  Biso   1.000  C
  H13      1.0000 0.97440  0.07820  0.87470  Biso   1.000  H
  In3      1.0000 0.43894  0.10916  0.38717  Biso   1.000  In
  In4      1.0000 0.55928  0.88902  0.88541  Biso   1.000  In
  O16      1.0000 0.54480  0.91470  0.01900  Biso   1.000  O
  O17      1.0000 0.42910  0.13460  0.25150  Biso   1.000  O
  O18      1.0000 0.44540  0.03470  0.31200  Biso   1.000  O
  O19      1.0000 0.53780  0.94030  0.50660  Biso   1.000  O
  O20      1.0000 0.45570  0.03560  0.15600  Biso   1.000  O
  O21      1.0000 0.45200  0.83230  0.87110  Biso   1.000  O
  O22      1.0000 0.49690  0.23520  0.38450  Biso   1.000  O
  O23      1.0000 0.55150  0.86580  0.45120  Biso   1.000  O
  O24      1.0000 0.66380  0.96430  0.88010  Biso   1.000  O
  O25      1.0000 0.33750  0.04420  0.40750  Biso   1.000  O
  O26      1.0000 0.50080  0.78080  0.90280  Biso   1.000  O
  O27      1.0000 0.63770  0.86910  0.92160  Biso   1.000  O
  O28      1.0000 0.53730  0.17360  0.38420  Biso   1.000  O
  O29      1.0000 0.36480  0.14370  0.40380  Biso   1.000  O
  O30      1.0000 0.54660  0.84040  0.10140  Biso   1.000  O
  C34      1.0000 0.51980  0.91870  0.34370  Biso   1.000  C
  C35      1.0000 0.17690  0.09220  0.35060  Biso   1.000  C
  H14      1.0000 0.16610  0.11940  0.32230  Biso   1.000  H
  C36      1.0000 0.49770  0.94950  0.16840  Biso   1.000  C
  H15      1.0000 0.49140  0.96060  0.10930  Biso   1.000  H
  C37      1.0000 0.23910  0.10930  0.35860  Biso   1.000  C
  H16      1.0000 0.26990  0.14820  0.33710  Biso   1.000  H
  C38      1.0000 0.49470  0.95840  0.33290  Biso   1.000  C
  H17      1.0000 0.48600  0.97500  0.38510  Biso   1.000  H
  C39      1.0000 0.45860  0.01810  0.23840  Biso   1.000  C
  C40      1.0000 0.21010  0.01200  0.43290  Biso   1.000  C
  H18      1.0000 0.22090  0.98450  0.46010  Biso   1.000  H
  C41      1.0000 0.76490  0.90250  0.93490  Biso   1.000  C
  H19      1.0000 0.73570  0.86660  0.96550  Biso   1.000  H
  C42      1.0000 0.48310  0.97270  0.24610  Biso   1.000  C
  C43      1.0000 0.14830  0.99530  0.42720  Biso   1.000  C
  H20      1.0000 0.11810  0.95740  0.45200  Biso   1.000  H
  C44      1.0000 0.52180  0.90930  0.17860  Biso   1.000  C
  C45      1.0000 0.53890  0.88380  0.09260  Biso   1.000  C
  C46      1.0000 0.53200  0.89400  0.26690  Biso   1.000  C
  H21      1.0000 0.54710  0.86650  0.27400  Biso   1.000  H
  C47      1.0000 0.32410  0.08680  0.40450  Biso   1.000  C
  C48      1.0000 0.67920  0.92220  0.89860  Biso   1.000  C
  C49      1.0000 0.53670  0.90630  0.43880  Biso   1.000  C
  C50      1.0000 0.74670  0.94080  0.89700  Biso   1.000  C
  C51      1.0000 0.06350  0.01680  0.37810  Biso   1.000  C
  C52      1.0000 0.12990  0.03470  0.38440  Biso   1.000  C
  C53      1.0000 0.25610  0.06820  0.39930  Biso   1.000  C
  C54      1.0000 0.04560  0.06300  0.37640  Biso   1.000  C
  H22      1.0000 0.07620  0.10500  0.37410  Biso   1.000  H
  C55      1.0000 0.78940  0.99330  0.84660  Biso   1.000  C
  H23      1.0000 0.77690  0.01880  0.81740  Biso   1.000  H
  C56      1.0000 0.45110  0.78180  0.88660  Biso   1.000  C
  C57      1.0000 0.82670  0.91590  0.92920  Biso   1.000  C
  H24      1.0000 0.83850  0.88930  0.95690  Biso   1.000  H
  C58      1.0000 0.54270  0.22750  0.38290  Biso   1.000  C
  C59      1.0000 0.85060  0.00640  0.84120  Biso   1.000  C
  H25      1.0000 0.87930  0.04180  0.80880  Biso   1.000  H
  C60      1.0000 0.38870  0.66500  0.88300  Biso   1.000  C
  C61      1.0000 0.38980  0.72210  0.88380  Biso   1.000  C
  C62      1.0000 0.60650  0.28220  0.38210  Biso   1.000  C
  C63      1.0000 0.65740  0.27350  0.38140  Biso   1.000  C
  C64      1.0000 0.87090  0.96900  0.88210  Biso   1.000  C
  C65      1.0000 0.93640  0.98460  0.87840  Biso   1.000  C
  C66      1.0000 0.95320  0.93780  0.87680  Biso   1.000  C
  H26      1.0000 0.92180  0.89620  0.87470  Biso   1.000  H
  In5      1.0000 0.89084  0.32978  0.38717  Biso   1.000  In
  In6      1.0000 0.11098  0.67026  0.88541  Biso   1.000  In
  O31      1.0000 0.08530  0.63010  0.01900  Biso   1.000  O
  O32      1.0000 0.86540  0.29450  0.25150  Biso   1.000  O
  O33      1.0000 0.96530  0.41070  0.31200  Biso   1.000  O
  O34      1.0000 0.05970  0.59750  0.50660  Biso   1.000  O
  O35      1.0000 0.96440  0.42010  0.15600  Biso   1.000  O
  O36      1.0000 0.16770  0.61970  0.87110  Biso   1.000  O
  O37      1.0000 0.76480  0.26170  0.38450  Biso   1.000  O
  O38      1.0000 0.13420  0.68570  0.45120  Biso   1.000  O
  O39      1.0000 0.03570  0.69950  0.88010  Biso   1.000  O
  O40      1.0000 0.95580  0.29330  0.40750  Biso   1.000  O
  O41      1.0000 0.21920  0.72000  0.90280  Biso   1.000  O
  O42      1.0000 0.13090  0.76860  0.92160  Biso   1.000  O
  O43      1.0000 0.82640  0.36370  0.38420  Biso   1.000  O
  O44      1.0000 0.85630  0.22110  0.40380  Biso   1.000  O
  O45      1.0000 0.15960  0.70620  0.10140  Biso   1.000  O
  C67      1.0000 0.08130  0.60110  0.34370  Biso   1.000  C
  C68      1.0000 0.90780  0.08470  0.35060  Biso   1.000  C
  H27      1.0000 0.88060  0.04670  0.32230  Biso   1.000  H
  C69      1.0000 0.05050  0.54820  0.16840  Biso   1.000  C
  H28      1.0000 0.03940  0.53080  0.10930  Biso   1.000  H
  C70      1.0000 0.89070  0.12980  0.35860  Biso   1.000  C
  H29      1.0000 0.85180  0.12170  0.33710  Biso   1.000  H
  C71      1.0000 0.04160  0.53630  0.33290  Biso   1.000  C
  H30      1.0000 0.02500  0.51100  0.38510  Biso   1.000  H
  C72      1.0000 0.98190  0.44050  0.23840  Biso   1.000  C
  C73      1.0000 0.98800  0.19810  0.43290  Biso   1.000  C
  H31      1.0000 0.01550  0.23640  0.46010  Biso   1.000  H
  C74      1.0000 0.09750  0.86240  0.93490  Biso   1.000  C
  H32      1.0000 0.13340  0.86910  0.96550  Biso   1.000  H
  C75      1.0000 0.02730  0.51040  0.24610  Biso   1.000  C
  C76      1.0000 0.00470  0.15300  0.42720  Biso   1.000  C
  H33      1.0000 0.04260  0.16070  0.45200  Biso   1.000  H
  C77      1.0000 0.09070  0.61250  0.17860  Biso   1.000  C
  C78      1.0000 0.11620  0.65510  0.09260  Biso   1.000  C
  C79      1.0000 0.10600  0.63800  0.26690  Biso   1.000  C
  H34      1.0000 0.13350  0.68060  0.27400  Biso   1.000  H
  C80      1.0000 0.91320  0.23730  0.40450  Biso   1.000  C
  C81      1.0000 0.07780  0.75700  0.89860  Biso   1.000  C
  C82      1.0000 0.09370  0.63040  0.43880  Biso   1.000  C
  C83      1.0000 0.05920  0.80590  0.89700  Biso   1.000  C
  C84      1.0000 0.98320  0.04670  0.37810  Biso   1.000  C
  C85      1.0000 0.96530  0.09520  0.38440  Biso   1.000  C
  C86      1.0000 0.93180  0.18790  0.39930  Biso   1.000  C
  C87      1.0000 0.93700  0.98260  0.37640  Biso   1.000  C
  H35      1.0000 0.89500  0.97120  0.37410  Biso   1.000  H
  C88      1.0000 0.00670  0.79610  0.84660  Biso   1.000  C
  H36      1.0000 0.98120  0.75810  0.81740  Biso   1.000  H
  C89      1.0000 0.21820  0.66930  0.88660  Biso   1.000  C
  C90      1.0000 0.08410  0.91080  0.92920  Biso   1.000  C
  H37      1.0000 0.11070  0.94920  0.95690  Biso   1.000  H
  C91      1.0000 0.77250  0.31520  0.38290  Biso   1.000  C
  C92      1.0000 0.99360  0.84420  0.84120  Biso   1.000  C
  H38      1.0000 0.95820  0.83750  0.80880  Biso   1.000  H
  C93      1.0000 0.33500  0.72370  0.88300  Biso   1.000  C
  C94      1.0000 0.27790  0.66770  0.88380  Biso   1.000  C
  C95      1.0000 0.71780  0.32430  0.38210  Biso   1.000  C
  C96      1.0000 0.72650  0.38390  0.38140  Biso   1.000  C
  C97      1.0000 0.03100  0.90190  0.88210  Biso   1.000  C
  C98      1.0000 0.01540  0.95180  0.87840  Biso   1.000  C
  C99      1.0000 0.06220  0.01540  0.87680  Biso   1.000  C
  H39      1.0000 0.10380  0.02560  0.87470  Biso   1.000  H
  In7      1.0000 0.32978  0.43894  0.61283  Biso   1.000  In
  In8      1.0000 0.67026  0.55928  0.11459  Biso   1.000  In
  O46      1.0000 0.63010  0.54480  0.98100  Biso   1.000  O
  O47      1.0000 0.29450  0.42910  0.74850  Biso   1.000  O
  O48      1.0000 0.41070  0.44540  0.68800  Biso   1.000  O
  O49      1.0000 0.59750  0.53780  0.49340  Biso   1.000  O
  O50      1.0000 0.42010  0.45570  0.84400  Biso   1.000  O
  O51      1.0000 0.61970  0.45200  0.12890  Biso   1.000  O
  O52      1.0000 0.26170  0.49690  0.61550  Biso   1.000  O
  O53      1.0000 0.68570  0.55150  0.54880  Biso   1.000  O
  O54      1.0000 0.69950  0.66380  0.11990  Biso   1.000  O
  O55      1.0000 0.29330  0.33750  0.59250  Biso   1.000  O
  O56      1.0000 0.72000  0.50080  0.09720  Biso   1.000  O
  O57      1.0000 0.76860  0.63770  0.07840  Biso   1.000  O
  O58      1.0000 0.36370  0.53730  0.61580  Biso   1.000  O
  O59      1.0000 0.22110  0.36480  0.59620  Biso   1.000  O
  O60      1.0000 0.70620  0.54660  0.89860  Biso   1.000  O
  C100     1.0000 0.60110  0.51980  0.65630  Biso   1.000  C
  C101     1.0000 0.08470  0.17690  0.64940  Biso   1.000  C
  H40      1.0000 0.04670  0.16610  0.67770  Biso   1.000  H
  C102     1.0000 0.54820  0.49770  0.83160  Biso   1.000  C
  H41      1.0000 0.53080  0.49140  0.89070  Biso   1.000  H
  C103     1.0000 0.12980  0.23910  0.64140  Biso   1.000  C
  H42      1.0000 0.12170  0.26990  0.66290  Biso   1.000  H
  C104     1.0000 0.53630  0.49470  0.66710  Biso   1.000  C
  H43      1.0000 0.51100  0.48600  0.61490  Biso   1.000  H
  C105     1.0000 0.44050  0.45860  0.76160  Biso   1.000  C
  C106     1.0000 0.19810  0.21010  0.56710  Biso   1.000  C
  H44      1.0000 0.23640  0.22090  0.53990  Biso   1.000  H
  C107     1.0000 0.86240  0.76490  0.06510  Biso   1.000  C
  H45      1.0000 0.86910  0.73570  0.03450  Biso   1.000  H
  C108     1.0000 0.51040  0.48310  0.75390  Biso   1.000  C
  C109     1.0000 0.15300  0.14830  0.57280  Biso   1.000  C
  H46      1.0000 0.16070  0.11810  0.54800  Biso   1.000  H
  C110     1.0000 0.61250  0.52180  0.82140  Biso   1.000  C
  C111     1.0000 0.65510  0.53890  0.90740  Biso   1.000  C
  C112     1.0000 0.63800  0.53200  0.73310  Biso   1.000  C
  H47      1.0000 0.68060  0.54710  0.72600  Biso   1.000  H
  C113     1.0000 0.23730  0.32410  0.59550  Biso   1.000  C
  C114     1.0000 0.75700  0.67920  0.10140  Biso   1.000  C
  C115     1.0000 0.63040  0.53670  0.56120  Biso   1.000  C
  C116     1.0000 0.80590  0.74670  0.10300  Biso   1.000  C
  C117     1.0000 0.04670  0.06350  0.62190  Biso   1.000  C
  C118     1.0000 0.09520  0.12990  0.61560  Biso   1.000  C
  C119     1.0000 0.18790  0.25610  0.60070  Biso   1.000  C
  C120     1.0000 0.98260  0.04560  0.62360  Biso   1.000  C
  H48      1.0000 0.97120  0.07620  0.62590  Biso   1.000  H
  C121     1.0000 0.79610  0.78940  0.15340  Biso   1.000  C
  H49      1.0000 0.75810  0.77690  0.18260  Biso   1.000  H
  C122     1.0000 0.66930  0.45110  0.11340  Biso   1.000  C
  C123     1.0000 0.91080  0.82670  0.07080  Biso   1.000  C
  H50      1.0000 0.94920  0.83850  0.04310  Biso   1.000  H
  C124     1.0000 0.31520  0.54270  0.61710  Biso   1.000  C
  C125     1.0000 0.84420  0.85060  0.15880  Biso   1.000  C
  H51      1.0000 0.83750  0.87930  0.19120  Biso   1.000  H
  C126     1.0000 0.72370  0.38870  0.11700  Biso   1.000  C
  C127     1.0000 0.66770  0.38980  0.11620  Biso   1.000  C
  C128     1.0000 0.32430  0.60650  0.61790  Biso   1.000  C
  C129     1.0000 0.38390  0.65740  0.61860  Biso   1.000  C
  C130     1.0000 0.90190  0.87090  0.11790  Biso   1.000  C
  C131     1.0000 0.95180  0.93640  0.12160  Biso   1.000  C
  C132     1.0000 0.01540  0.95320  0.12320  Biso   1.000  C
  H52      1.0000 0.02560  0.92180  0.12530  Biso   1.000  H
  In9      1.0000 0.56106  0.89084  0.61283  Biso   1.000  In
  In10     1.0000 0.44072  0.11098  0.11459  Biso   1.000  In
  O61      1.0000 0.45520  0.08530  0.98100  Biso   1.000  O
  O62      1.0000 0.57090  0.86540  0.74850  Biso   1.000  O
  O63      1.0000 0.55460  0.96530  0.68800  Biso   1.000  O
  O64      1.0000 0.46220  0.05970  0.49340  Biso   1.000  O
  O65      1.0000 0.54430  0.96440  0.84400  Biso   1.000  O
  O66      1.0000 0.54800  0.16770  0.12890  Biso   1.000  O
  O67      1.0000 0.50310  0.76480  0.61550  Biso   1.000  O
  O68      1.0000 0.44850  0.13420  0.54880  Biso   1.000  O
  O69      1.0000 0.33620  0.03570  0.11990  Biso   1.000  O
  O70      1.0000 0.66250  0.95580  0.59250  Biso   1.000  O
  O71      1.0000 0.49920  0.21920  0.09720  Biso   1.000  O
  O72      1.0000 0.36230  0.13090  0.07840  Biso   1.000  O
  O73      1.0000 0.46270  0.82640  0.61580  Biso   1.000  O
  O74      1.0000 0.63520  0.85630  0.59620  Biso   1.000  O
  O75      1.0000 0.45340  0.15960  0.89860  Biso   1.000  O
  C133     1.0000 0.48020  0.08130  0.65630  Biso   1.000  C
  C134     1.0000 0.82310  0.90780  0.64940  Biso   1.000  C
  H53      1.0000 0.83390  0.88060  0.67770  Biso   1.000  H
  C135     1.0000 0.50230  0.05050  0.83160  Biso   1.000  C
  H54      1.0000 0.50860  0.03940  0.89070  Biso   1.000  H
  C136     1.0000 0.76090  0.89070  0.64140  Biso   1.000  C
  H55      1.0000 0.73010  0.85180  0.66290  Biso   1.000  H
  C137     1.0000 0.50530  0.04160  0.66710  Biso   1.000  C
  H56      1.0000 0.51400  0.02500  0.61490  Biso   1.000  H
  C138     1.0000 0.54140  0.98190  0.76160  Biso   1.000  C
  C139     1.0000 0.78990  0.98800  0.56710  Biso   1.000  C
  H57      1.0000 0.77910  0.01550  0.53990  Biso   1.000  H
  C140     1.0000 0.23510  0.09750  0.06510  Biso   1.000  C
  H58      1.0000 0.26430  0.13340  0.03450  Biso   1.000  H
  C141     1.0000 0.51690  0.02730  0.75390  Biso   1.000  C
  C142     1.0000 0.85170  0.00470  0.57280  Biso   1.000  C
  H59      1.0000 0.88190  0.04260  0.54800  Biso   1.000  H
  C143     1.0000 0.47820  0.09070  0.82140  Biso   1.000  C
  C144     1.0000 0.46110  0.11620  0.90740  Biso   1.000  C
  C145     1.0000 0.46800  0.10600  0.73310  Biso   1.000  C
  H60      1.0000 0.45290  0.13350  0.72600  Biso   1.000  H
  C146     1.0000 0.67590  0.91320  0.59550  Biso   1.000  C
  C147     1.0000 0.32080  0.07780  0.10140  Biso   1.000  C
  C148     1.0000 0.46330  0.09370  0.56120  Biso   1.000  C
  C149     1.0000 0.25330  0.05920  0.10300  Biso   1.000  C
  C150     1.0000 0.93650  0.98320  0.62190  Biso   1.000  C
  C151     1.0000 0.87010  0.96530  0.61560  Biso   1.000  C
  C152     1.0000 0.74390  0.93180  0.60070  Biso   1.000  C
  C153     1.0000 0.95440  0.93700  0.62360  Biso   1.000  C
  H61      1.0000 0.92380  0.89500  0.62590  Biso   1.000  H
  C154     1.0000 0.21060  0.00670  0.15340  Biso   1.000  C
  H62      1.0000 0.22310  0.98120  0.18260  Biso   1.000  H
  C155     1.0000 0.54890  0.21820  0.11340  Biso   1.000  C
  C156     1.0000 0.17330  0.08410  0.07080  Biso   1.000  C
  H63      1.0000 0.16150  0.11070  0.04310  Biso   1.000  H
  C157     1.0000 0.45730  0.77250  0.61710  Biso   1.000  C
  C158     1.0000 0.14940  0.99360  0.15880  Biso   1.000  C
  H64      1.0000 0.12070  0.95820  0.19120  Biso   1.000  H
  C159     1.0000 0.61130  0.33500  0.11700  Biso   1.000  C
  C160     1.0000 0.61020  0.27790  0.11620  Biso   1.000  C
  C161     1.0000 0.39350  0.71780  0.61790  Biso   1.000  C
  C162     1.0000 0.34260  0.72650  0.61860  Biso   1.000  C
  C163     1.0000 0.12910  0.03100  0.11790  Biso   1.000  C
  C164     1.0000 0.06360  0.01540  0.12160  Biso   1.000  C
  C165     1.0000 0.04680  0.06220  0.12320  Biso   1.000  C
  H65      1.0000 0.07820  0.10380  0.12530  Biso   1.000  H
  In11     1.0000 0.10916  0.67022  0.61283  Biso   1.000  In
  In12     1.0000 0.88902  0.32974  0.11459  Biso   1.000  In
  O76      1.0000 0.91470  0.36990  0.98100  Biso   1.000  O
  O77      1.0000 0.13460  0.70550  0.74850  Biso   1.000  O
  O78      1.0000 0.03470  0.58930  0.68800  Biso   1.000  O
  O79      1.0000 0.94030  0.40250  0.49340  Biso   1.000  O
  O80      1.0000 0.03560  0.57990  0.84400  Biso   1.000  O
  O81      1.0000 0.83230  0.38030  0.12890  Biso   1.000  O
  O82      1.0000 0.23520  0.73830  0.61550  Biso   1.000  O
  O83      1.0000 0.86580  0.31430  0.54880  Biso   1.000  O
  O84      1.0000 0.96430  0.30050  0.11990  Biso   1.000  O
  O85      1.0000 0.04420  0.70670  0.59250  Biso   1.000  O
  O86      1.0000 0.78080  0.28000  0.09720  Biso   1.000  O
  O87      1.0000 0.86910  0.23140  0.07840  Biso   1.000  O
  O88      1.0000 0.17360  0.63630  0.61580  Biso   1.000  O
  O89      1.0000 0.14370  0.77890  0.59620  Biso   1.000  O
  O90      1.0000 0.84040  0.29380  0.89860  Biso   1.000  O
  C166     1.0000 0.91870  0.39890  0.65630  Biso   1.000  C
  C167     1.0000 0.09220  0.91530  0.64940  Biso   1.000  C
  H66      1.0000 0.11940  0.95330  0.67770  Biso   1.000  H
  C168     1.0000 0.94950  0.45180  0.83160  Biso   1.000  C
  H67      1.0000 0.96060  0.46920  0.89070  Biso   1.000  H
  C169     1.0000 0.10930  0.87020  0.64140  Biso   1.000  C
  H68      1.0000 0.14820  0.87830  0.66290  Biso   1.000  H
  C170     1.0000 0.95840  0.46370  0.66710  Biso   1.000  C
  H69      1.0000 0.97500  0.48900  0.61490  Biso   1.000  H
  C171     1.0000 0.01810  0.55950  0.76160  Biso   1.000  C
  C172     1.0000 0.01200  0.80190  0.56710  Biso   1.000  C
  H70      1.0000 0.98450  0.76360  0.53990  Biso   1.000  H
  C173     1.0000 0.90250  0.13760  0.06510  Biso   1.000  C
  H71      1.0000 0.86660  0.13090  0.03450  Biso   1.000  H
  C174     1.0000 0.97270  0.48960  0.75390  Biso   1.000  C
  C175     1.0000 0.99530  0.84700  0.57280  Biso   1.000  C
  H72      1.0000 0.95740  0.83930  0.54800  Biso   1.000  H
  C176     1.0000 0.90930  0.38750  0.82140  Biso   1.000  C
  C177     1.0000 0.88380  0.34490  0.90740  Biso   1.000  C
  C178     1.0000 0.89400  0.36200  0.73310  Biso   1.000  C
  H73      1.0000 0.86650  0.31940  0.72600  Biso   1.000  H
  C179     1.0000 0.08680  0.76270  0.59550  Biso   1.000  C
  C180     1.0000 0.92220  0.24300  0.10140  Biso   1.000  C
  C181     1.0000 0.90630  0.36960  0.56120  Biso   1.000  C
  C182     1.0000 0.94080  0.19410  0.10300  Biso   1.000  C
  C183     1.0000 0.01680  0.95330  0.62190  Biso   1.000  C
  C184     1.0000 0.03470  0.90480  0.61560  Biso   1.000  C
  C185     1.0000 0.06820  0.81210  0.60070  Biso   1.000  C
  C186     1.0000 0.06300  0.01740  0.62360  Biso   1.000  C
  H74      1.0000 0.10500  0.02880  0.62590  Biso   1.000  H
  C187     1.0000 0.99330  0.20390  0.15340  Biso   1.000  C
  H75      1.0000 0.01880  0.24190  0.18260  Biso   1.000  H
  C188     1.0000 0.78180  0.33070  0.11340  Biso   1.000  C
  C189     1.0000 0.91590  0.08920  0.07080  Biso   1.000  C
  H76      1.0000 0.88930  0.05080  0.04310  Biso   1.000  H
  C190     1.0000 0.22750  0.68480  0.61710  Biso   1.000  C
  C191     1.0000 0.00640  0.15580  0.15880  Biso   1.000  C
  H77      1.0000 0.04180  0.16250  0.19120  Biso   1.000  H
  C192     1.0000 0.66500  0.27630  0.11700  Biso   1.000  C
  C193     1.0000 0.72210  0.33230  0.11620  Biso   1.000  C
  C194     1.0000 0.28220  0.67570  0.61790  Biso   1.000  C
  C195     1.0000 0.27350  0.61610  0.61860  Biso   1.000  C
  C196     1.0000 0.96900  0.09810  0.11790  Biso   1.000  C
  C197     1.0000 0.98460  0.04820  0.12160  Biso   1.000  C
  C198     1.0000 0.93780  0.98460  0.12320  Biso   1.000  C
  H78      1.0000 0.89620  0.97440  0.12530  Biso   1.000  H
