data_image0
_cell_length_a       12.868
_cell_length_b       13.351
_cell_length_c       10.526
_cell_angle_alpha    90
_cell_angle_beta     104.39
_cell_angle_gamma    90

_symmetry_space_group_name_H-M    "P 1"
_symmetry_int_tables_number       1

loop_
  _symmetry_equiv_pos_as_xyz
  'x, y, z'

loop_
  _atom_site_label
  _atom_site_occupancy
  _atom_site_fract_x
  _atom_site_fract_y
  _atom_site_fract_z
  _atom_site_thermal_displace_type
  _atom_site_B_iso_or_equiv
  _atom_site_type_symbol
  O1       1.0000 0.60940  0.46910  0.23940  Biso   1.000  O
  O2       1.0000 0.60430  0.56230  0.41650  Biso   1.000  O
  N1       1.0000 0.87770  0.74620  0.25420  Biso   1.000  N
  N2       1.0000 0.54370  0.63560  0.95610  Biso   1.000  N
  N3       1.0000 0.53720  0.70800  0.02210  Biso   1.000  N
  N4       1.0000 0.53120  0.77630  0.08440  Biso   1.000  N
  C1       1.0000 0.71920  0.61380  0.28750  Biso   1.000  C
  C2       1.0000 0.78810  0.58880  0.21240  Biso   1.000  C
  H1       1.0000 0.78370  0.52630  0.17220  Biso   1.000  H
  C3       1.0000 0.86460  0.65770  0.19700  Biso   1.000  C
  H2       1.0000 0.90920  0.64040  0.14320  Biso   1.000  H
  C4       1.0000 0.63740  0.54190  0.31630  Biso   1.000  C
  C5       1.0000 0.80740  0.77240  0.32340  Biso   1.000  C
  H3       1.0000 0.81230  0.83610  0.36030  Biso   1.000  H
  C6       1.0000 0.72850  0.70890  0.34160  Biso   1.000  C
  H4       1.0000 0.68130  0.72970  0.39040  Biso   1.000  H
  O3       1.0000 0.10940  0.96910  0.23940  Biso   1.000  O
  O4       1.0000 0.10430  0.06230  0.41650  Biso   1.000  O
  N5       1.0000 0.37770  0.24620  0.25420  Biso   1.000  N
  N6       1.0000 0.04370  0.13560  0.95610  Biso   1.000  N
  N7       1.0000 0.03720  0.20800  0.02210  Biso   1.000  N
  N8       1.0000 0.03120  0.27630  0.08440  Biso   1.000  N
  C7       1.0000 0.21920  0.11380  0.28750  Biso   1.000  C
  C8       1.0000 0.28810  0.08880  0.21240  Biso   1.000  C
  H5       1.0000 0.28370  0.02630  0.17220  Biso   1.000  H
  C9       1.0000 0.36460  0.15770  0.19700  Biso   1.000  C
  H6       1.0000 0.40920  0.14040  0.14320  Biso   1.000  H
  C10      1.0000 0.13740  0.04190  0.31630  Biso   1.000  C
  C11      1.0000 0.30740  0.27240  0.32340  Biso   1.000  C
  H7       1.0000 0.31230  0.33610  0.36030  Biso   1.000  H
  C12      1.0000 0.22850  0.20890  0.34160  Biso   1.000  C
  H8       1.0000 0.18130  0.22970  0.39040  Biso   1.000  H
  O5       1.0000 0.39060  0.46910  0.26060  Biso   1.000  O
  O6       1.0000 0.39570  0.56230  0.08350  Biso   1.000  O
  N9       1.0000 0.12230  0.74620  0.24580  Biso   1.000  N
  N10      1.0000 0.45630  0.63560  0.54390  Biso   1.000  N
  N11      1.0000 0.46280  0.70800  0.47790  Biso   1.000  N
  N12      1.0000 0.46880  0.77630  0.41560  Biso   1.000  N
  C13      1.0000 0.28080  0.61380  0.21250  Biso   1.000  C
  C14      1.0000 0.21190  0.58880  0.28760  Biso   1.000  C
  H9       1.0000 0.21630  0.52630  0.32780  Biso   1.000  H
  C15      1.0000 0.13540  0.65770  0.30300  Biso   1.000  C
  H10      1.0000 0.09080  0.64040  0.35680  Biso   1.000  H
  C16      1.0000 0.36260  0.54190  0.18370  Biso   1.000  C
  C17      1.0000 0.19260  0.77240  0.17660  Biso   1.000  C
  H11      1.0000 0.18770  0.83610  0.13970  Biso   1.000  H
  C18      1.0000 0.27150  0.70890  0.15840  Biso   1.000  C
  H12      1.0000 0.31870  0.72970  0.10960  Biso   1.000  H
  O7       1.0000 0.89060  0.96910  0.26060  Biso   1.000  O
  O8       1.0000 0.89570  0.06230  0.08350  Biso   1.000  O
  N13      1.0000 0.62230  0.24620  0.24580  Biso   1.000  N
  N14      1.0000 0.95630  0.13560  0.54390  Biso   1.000  N
  N15      1.0000 0.96280  0.20800  0.47790  Biso   1.000  N
  N16      1.0000 0.96880  0.27630  0.41560  Biso   1.000  N
  C19      1.0000 0.78080  0.11380  0.21250  Biso   1.000  C
  C20      1.0000 0.71190  0.08880  0.28760  Biso   1.000  C
  H13      1.0000 0.71630  0.02630  0.32780  Biso   1.000  H
  C21      1.0000 0.63540  0.15770  0.30300  Biso   1.000  C
  H14      1.0000 0.59080  0.14040  0.35680  Biso   1.000  H
  C22      1.0000 0.86260  0.04190  0.18370  Biso   1.000  C
  C23      1.0000 0.69260  0.27240  0.17660  Biso   1.000  C
  H15      1.0000 0.68770  0.33610  0.13970  Biso   1.000  H
  C24      1.0000 0.77150  0.20890  0.15840  Biso   1.000  C
  H16      1.0000 0.81870  0.22970  0.10960  Biso   1.000  H
  O9       1.0000 0.39060  0.53090  0.76060  Biso   1.000  O
  O10      1.0000 0.39570  0.43770  0.58350  Biso   1.000  O
  N17      1.0000 0.12230  0.25380  0.74580  Biso   1.000  N
  N18      1.0000 0.45630  0.36440  0.04390  Biso   1.000  N
  N19      1.0000 0.46280  0.29200  0.97790  Biso   1.000  N
  N20      1.0000 0.46880  0.22370  0.91560  Biso   1.000  N
  C25      1.0000 0.28080  0.38620  0.71250  Biso   1.000  C
  C26      1.0000 0.21190  0.41120  0.78760  Biso   1.000  C
  H17      1.0000 0.21630  0.47370  0.82780  Biso   1.000  H
  C27      1.0000 0.13540  0.34230  0.80300  Biso   1.000  C
  H18      1.0000 0.09080  0.35960  0.85680  Biso   1.000  H
  C28      1.0000 0.36260  0.45810  0.68370  Biso   1.000  C
  C29      1.0000 0.19260  0.22760  0.67660  Biso   1.000  C
  H19      1.0000 0.18770  0.16390  0.63970  Biso   1.000  H
  C30      1.0000 0.27150  0.29110  0.65840  Biso   1.000  C
  H20      1.0000 0.31870  0.27030  0.60960  Biso   1.000  H
  O11      1.0000 0.89060  0.03090  0.76060  Biso   1.000  O
  O12      1.0000 0.89570  0.93770  0.58350  Biso   1.000  O
  N21      1.0000 0.62230  0.75380  0.74580  Biso   1.000  N
  N22      1.0000 0.95630  0.86440  0.04390  Biso   1.000  N
  N23      1.0000 0.96280  0.79200  0.97790  Biso   1.000  N
  N24      1.0000 0.96880  0.72370  0.91560  Biso   1.000  N
  C31      1.0000 0.78080  0.88620  0.71250  Biso   1.000  C
  C32      1.0000 0.71190  0.91120  0.78760  Biso   1.000  C
  H21      1.0000 0.71630  0.97370  0.82780  Biso   1.000  H
  C33      1.0000 0.63540  0.84230  0.80300  Biso   1.000  C
  H22      1.0000 0.59080  0.85960  0.85680  Biso   1.000  H
  C34      1.0000 0.86260  0.95810  0.68370  Biso   1.000  C
  C35      1.0000 0.69260  0.72760  0.67660  Biso   1.000  C
  H23      1.0000 0.68770  0.66390  0.63970  Biso   1.000  H
  C36      1.0000 0.77150  0.79110  0.65840  Biso   1.000  C
  H24      1.0000 0.81870  0.77030  0.60960  Biso   1.000  H
  O13      1.0000 0.60940  0.53090  0.73940  Biso   1.000  O
  O14      1.0000 0.60430  0.43770  0.91650  Biso   1.000  O
  N25      1.0000 0.87770  0.25380  0.75420  Biso   1.000  N
  N26      1.0000 0.54370  0.36440  0.45610  Biso   1.000  N
  N27      1.0000 0.53720  0.29200  0.52210  Biso   1.000  N
  N28      1.0000 0.53120  0.22370  0.58440  Biso   1.000  N
  C37      1.0000 0.71920  0.38620  0.78750  Biso   1.000  C
  C38      1.0000 0.78810  0.41120  0.71240  Biso   1.000  C
  H25      1.0000 0.78370  0.47370  0.67220  Biso   1.000  H
  C39      1.0000 0.86460  0.34230  0.69700  Biso   1.000  C
  H26      1.0000 0.90920  0.35960  0.64320  Biso   1.000  H
  C40      1.0000 0.63740  0.45810  0.81630  Biso   1.000  C
  C41      1.0000 0.80740  0.22760  0.82340  Biso   1.000  C
  H27      1.0000 0.81230  0.16390  0.86030  Biso   1.000  H
  C42      1.0000 0.72850  0.29110  0.84160  Biso   1.000  C
  H28      1.0000 0.68130  0.27030  0.89040  Biso   1.000  H
  O15      1.0000 0.10940  0.03090  0.73940  Biso   1.000  O
  O16      1.0000 0.10430  0.93770  0.91650  Biso   1.000  O
  N29      1.0000 0.37770  0.75380  0.75420  Biso   1.000  N
  N30      1.0000 0.04370  0.86440  0.45610  Biso   1.000  N
  N31      1.0000 0.03720  0.79200  0.52210  Biso   1.000  N
  N32      1.0000 0.03120  0.72370  0.58440  Biso   1.000  N
  C43      1.0000 0.21920  0.88620  0.78750  Biso   1.000  C
  C44      1.0000 0.28810  0.91120  0.71240  Biso   1.000  C
  H29      1.0000 0.28370  0.97370  0.67220  Biso   1.000  H
  C45      1.0000 0.36460  0.84230  0.69700  Biso   1.000  C
  H30      1.0000 0.40920  0.85960  0.64320  Biso   1.000  H
  C46      1.0000 0.13740  0.95810  0.81630  Biso   1.000  C
  C47      1.0000 0.30740  0.72760  0.82340  Biso   1.000  C
  H31      1.0000 0.31230  0.66390  0.86030  Biso   1.000  H
  C48      1.0000 0.22850  0.79110  0.84160  Biso   1.000  C
  H32      1.0000 0.18130  0.77030  0.89040  Biso   1.000  H
  Cu1      1.0000 0.50000  0.50000  0.00000  Biso   1.000  Cu
  Cu2      1.0000 0.00000  0.00000  0.00000  Biso   1.000  Cu
  Cu3      1.0000 0.50000  0.50000  0.50000  Biso   1.000  Cu
  Cu4      1.0000 0.00000  0.00000  0.50000  Biso   1.000  Cu
  Co1      1.0000 0.00000  0.85321  0.25000  Biso   1.000  Co
  Co2      1.0000 0.50000  0.35321  0.25000  Biso   1.000  Co
  Co3      1.0000 0.00000  0.14679  0.75000  Biso   1.000  Co
  Co4      1.0000 0.50000  0.64679  0.75000  Biso   1.000  Co
