data_image0
_cell_length_a       13.592
_cell_length_b       14.082
_cell_length_c       16.313
_cell_angle_alpha    98.7237
_cell_angle_beta     114.62
_cell_angle_gamma    90

_symmetry_space_group_name_H-M    P 1
_symmetry_int_tables_number       1

loop_
  _symmetry_equiv_pos_as_xyz
  'x, y, z'

loop_
  _atom_site_label
  _atom_site_occupancy
  _atom_site_fract_x
  _atom_site_fract_y
  _atom_site_fract_z
  _atom_site_thermal_displace_type
  _atom_site_B_iso_or_equiv
  _atom_site_type_symbol
  Tb1      1.0000 0.39135  0.95851  0.37141  Biso   1.000  Tb
  Tb2      1.0000 0.01994  0.54149  0.62859  Biso   1.000  Tb
  Tb3      1.0000 0.60865  0.04149  0.62859  Biso   1.000  Tb
  Tb4      1.0000 0.98006  0.45851  0.37141  Biso   1.000  Tb
  H1       1.0000 0.28050  0.70620  0.46760  Biso   1.000  H
  H2       1.0000 0.31020  0.57770  0.67940  Biso   1.000  H
  H3       1.0000 0.53490  0.78300  0.70740  Biso   1.000  H
  H4       1.0000 0.52710  0.59460  0.00480  Biso   1.000  H
  H5       1.0000 0.77040  0.64170  0.95040  Biso   1.000  H
  H6       1.0000 0.88530  0.60440  0.08840  Biso   1.000  H
  H7       1.0000 0.63750  0.54180  0.13700  Biso   1.000  H
  H8       1.0000 0.81290  0.79380  0.53240  Biso   1.000  H
  H9       1.0000 0.63080  0.92230  0.32060  Biso   1.000  H
  H10      1.0000 0.82750  0.71700  0.29260  Biso   1.000  H
  H11      1.0000 0.52230  0.90540  0.99520  Biso   1.000  H
  H12      1.0000 0.82000  0.85830  0.04960  Biso   1.000  H
  H13      1.0000 0.79690  0.89560  0.91160  Biso   1.000  H
  H14      1.0000 0.50050  0.95820  0.86300  Biso   1.000  H
  H15      1.0000 0.71950  0.29380  0.53240  Biso   1.000  H
  H16      1.0000 0.68980  0.42230  0.32060  Biso   1.000  H
  H17      1.0000 0.46510  0.21700  0.29260  Biso   1.000  H
  H18      1.0000 0.47290  0.40540  0.99520  Biso   1.000  H
  H19      1.0000 0.22960  0.35830  0.04960  Biso   1.000  H
  H20      1.0000 0.11470  0.39560  0.91160  Biso   1.000  H
  H21      1.0000 0.36250  0.45820  0.86300  Biso   1.000  H
  H22      1.0000 0.18710  0.20620  0.46760  Biso   1.000  H
  H23      1.0000 0.36920  0.07770  0.67940  Biso   1.000  H
  H24      1.0000 0.17250  0.28300  0.70740  Biso   1.000  H
  H25      1.0000 0.47770  0.09460  0.00480  Biso   1.000  H
  H26      1.0000 0.18000  0.14170  0.95040  Biso   1.000  H
  H27      1.0000 0.20310  0.10440  0.08840  Biso   1.000  H
  H28      1.0000 0.49950  0.04180  0.13700  Biso   1.000  H
  C1       1.0000 0.77030  0.55670  0.11960  Biso   1.000  C
  C2       1.0000 0.41180  0.75730  0.58260  Biso   1.000  C
  C3       1.0000 0.27760  0.63440  0.56460  Biso   1.000  C
  C4       1.0000 0.45190  0.83400  0.54420  Biso   1.000  C
  C5       1.0000 0.84450  0.51790  0.20600  Biso   1.000  C
  C6       1.0000 0.56210  0.64240  0.87320  Biso   1.000  C
  C7       1.0000 0.31770  0.70040  0.52880  Biso   1.000  C
  C8       1.0000 0.33670  0.62120  0.65480  Biso   1.000  C
  C9       1.0000 0.43770  0.67490  0.70860  Biso   1.000  C
  C10      1.0000 0.47130  0.74460  0.67140  Biso   1.000  C
  C11      1.0000 0.50360  0.65860  0.79960  Biso   1.000  C
  C12      1.0000 0.60050  0.59120  0.01840  Biso   1.000  C
  C13      1.0000 0.63540  0.61670  0.95900  Biso   1.000  C
  C14      1.0000 0.74120  0.62060  0.98740  Biso   1.000  C
  C15      1.0000 0.81070  0.59510  0.06860  Biso   1.000  C
  C16      1.0000 0.66630  0.56010  0.09860  Biso   1.000  C
  C17      1.0000 0.17310  0.57130  0.50460  Biso   1.000  C
  C18      1.0000 0.45450  0.73800  0.32500  Biso   1.000  C
  C19      1.0000 0.45050  0.68200  0.16700  Biso   1.000  C
  C20      1.0000 0.55190  0.60600  0.28780  Biso   1.000  C
  C21      1.0000 0.65070  0.94330  0.88040  Biso   1.000  C
  C22      1.0000 0.82920  0.74270  0.41740  Biso   1.000  C
  C23      1.0000 0.71300  0.86560  0.43540  Biso   1.000  C
  C24      1.0000 0.90770  0.66600  0.45580  Biso   1.000  C
  C25      1.0000 0.63850  0.98210  0.79400  Biso   1.000  C
  C26      1.0000 0.68890  0.85760  0.12680  Biso   1.000  C
  C27      1.0000 0.78890  0.79960  0.47120  Biso   1.000  C
  C28      1.0000 0.68190  0.87880  0.34520  Biso   1.000  C
  C29      1.0000 0.72910  0.82510  0.29140  Biso   1.000  C
  C30      1.0000 0.79990  0.75540  0.32860  Biso   1.000  C
  C31      1.0000 0.70400  0.84140  0.20040  Biso   1.000  C
  C32      1.0000 0.58210  0.90880  0.98160  Biso   1.000  C
  C33      1.0000 0.67640  0.88330  0.04100  Biso   1.000  C
  C34      1.0000 0.75380  0.87940  0.01260  Biso   1.000  C
  C35      1.0000 0.74210  0.90490  0.93140  Biso   1.000  C
  C36      1.0000 0.56770  0.93990  0.90140  Biso   1.000  C
  C37      1.0000 0.66850  0.92870  0.49540  Biso   1.000  C
  C38      1.0000 0.12950  0.76200  0.67500  Biso   1.000  C
  C39      1.0000 0.28350  0.81800  0.83300  Biso   1.000  C
  C40      1.0000 0.26410  0.89400  0.71220  Biso   1.000  C
  C41      1.0000 0.22970  0.44330  0.88040  Biso   1.000  C
  C42      1.0000 0.58820  0.24270  0.41740  Biso   1.000  C
  C43      1.0000 0.72240  0.36560  0.43540  Biso   1.000  C
  C44      1.0000 0.54810  0.16600  0.45580  Biso   1.000  C
  C45      1.0000 0.15550  0.48210  0.79400  Biso   1.000  C
  C46      1.0000 0.43790  0.35760  0.12680  Biso   1.000  C
  C47      1.0000 0.68230  0.29960  0.47120  Biso   1.000  C
  C48      1.0000 0.66330  0.37880  0.34520  Biso   1.000  C
  C49      1.0000 0.56230  0.32510  0.29140  Biso   1.000  C
  C50      1.0000 0.52870  0.25540  0.32860  Biso   1.000  C
  C51      1.0000 0.49640  0.34140  0.20040  Biso   1.000  C
  C52      1.0000 0.39950  0.40880  0.98160  Biso   1.000  C
  C53      1.0000 0.36460  0.38330  0.04100  Biso   1.000  C
  C54      1.0000 0.25880  0.37940  0.01260  Biso   1.000  C
  C55      1.0000 0.18930  0.40490  0.93140  Biso   1.000  C
  C56      1.0000 0.33370  0.43990  0.90140  Biso   1.000  C
  C57      1.0000 0.82690  0.42870  0.49540  Biso   1.000  C
  C58      1.0000 0.54550  0.26200  0.67500  Biso   1.000  C
  C59      1.0000 0.54950  0.31800  0.83300  Biso   1.000  C
  C60      1.0000 0.44810  0.39400  0.71220  Biso   1.000  C
  C61      1.0000 0.34930  0.05670  0.11960  Biso   1.000  C
  C62      1.0000 0.17080  0.25730  0.58260  Biso   1.000  C
  C63      1.0000 0.28700  0.13440  0.56460  Biso   1.000  C
  C64      1.0000 0.09230  0.33400  0.54420  Biso   1.000  C
  C65      1.0000 0.36150  0.01790  0.20600  Biso   1.000  C
  C66      1.0000 0.31110  0.14240  0.87320  Biso   1.000  C
  C67      1.0000 0.21110  0.20040  0.52880  Biso   1.000  C
  C68      1.0000 0.31810  0.12120  0.65480  Biso   1.000  C
  C69      1.0000 0.27090  0.17490  0.70860  Biso   1.000  C
  C70      1.0000 0.20010  0.24460  0.67140  Biso   1.000  C
  C71      1.0000 0.29600  0.15860  0.79960  Biso   1.000  C
  C72      1.0000 0.41790  0.09120  0.01840  Biso   1.000  C
  C73      1.0000 0.32360  0.11670  0.95900  Biso   1.000  C
  C74      1.0000 0.24620  0.12060  0.98740  Biso   1.000  C
  C75      1.0000 0.25790  0.09510  0.06860  Biso   1.000  C
  C76      1.0000 0.43230  0.06010  0.09860  Biso   1.000  C
  C77      1.0000 0.33150  0.07130  0.50460  Biso   1.000  C
  C78      1.0000 0.87050  0.23800  0.32500  Biso   1.000  C
  C79      1.0000 0.71650  0.18200  0.16700  Biso   1.000  C
  C80      1.0000 0.73590  0.10600  0.28780  Biso   1.000  C
  N1       1.0000 0.46570  0.66500  0.25540  Biso   1.000  N
  N2       1.0000 0.21030  0.83500  0.74460  Biso   1.000  N
  N3       1.0000 0.53430  0.33500  0.74460  Biso   1.000  N
  N4       1.0000 0.78970  0.16500  0.25540  Biso   1.000  N
  O1       1.0000 0.11930  0.54360  0.54140  Biso   1.000  O
  O2       1.0000 0.39160  0.84490  0.46460  Biso   1.000  O
  O3       1.0000 0.14800  0.55260  0.42020  Biso   1.000  O
  O4       1.0000 0.94330  0.52020  0.22960  Biso   1.000  O
  O5       1.0000 0.53850  0.88110  0.59700  Biso   1.000  O
  O6       1.0000 0.80170  0.48660  0.25240  Biso   1.000  O
  O7       1.0000 0.21300  0.87110  0.29960  Biso   1.000  O
  O8       1.0000 0.41120  0.80840  0.29540  Biso   1.000  O
  O9       1.0000 0.57790  0.95640  0.45860  Biso   1.000  O
  O10      1.0000 0.92700  0.65510  0.53540  Biso   1.000  O
  O11      1.0000 0.72780  0.94740  0.57980  Biso   1.000  O
  O12      1.0000 0.71370  0.97980  0.77040  Biso   1.000  O
  O13      1.0000 0.94150  0.61890  0.40300  Biso   1.000  O
  O14      1.0000 0.54930  0.01340  0.74760  Biso   1.000  O
  O15      1.0000 0.91340  0.62890  0.70040  Biso   1.000  O
  O16      1.0000 0.11580  0.69160  0.70460  Biso   1.000  O
  O17      1.0000 0.88070  0.45640  0.45860  Biso   1.000  O
  O18      1.0000 0.60840  0.15510  0.53540  Biso   1.000  O
  O19      1.0000 0.85200  0.44740  0.57980  Biso   1.000  O
  O20      1.0000 0.05670  0.47980  0.77040  Biso   1.000  O
  O21      1.0000 0.46150  0.11890  0.40300  Biso   1.000  O
  O22      1.0000 0.19830  0.51340  0.74760  Biso   1.000  O
  O23      1.0000 0.78700  0.12890  0.70040  Biso   1.000  O
  O24      1.0000 0.58880  0.19160  0.70460  Biso   1.000  O
  O25      1.0000 0.42210  0.04360  0.54140  Biso   1.000  O
  O26      1.0000 0.07300  0.34490  0.46460  Biso   1.000  O
  O27      1.0000 0.27220  0.05260  0.42020  Biso   1.000  O
  O28      1.0000 0.28630  0.02020  0.22960  Biso   1.000  O
  O29      1.0000 0.05850  0.38110  0.59700  Biso   1.000  O
  O30      1.0000 0.45070  0.98660  0.25240  Biso   1.000  O
  O31      1.0000 0.08660  0.37110  0.29960  Biso   1.000  O
  O32      1.0000 0.88420  0.30840  0.29540  Biso   1.000  O
