data_image0
_cell_length_a       6.77
_cell_length_b       14.465
_cell_length_c       17.773
_cell_angle_alpha    90
_cell_angle_beta     90
_cell_angle_gamma    91.276

_symmetry_space_group_name_H-M    P 1
_symmetry_int_tables_number       1

loop_
  _symmetry_equiv_pos_as_xyz
  'x, y, z'

loop_
  _atom_site_label
  _atom_site_occupancy
  _atom_site_fract_x
  _atom_site_fract_y
  _atom_site_fract_z
  _atom_site_thermal_displace_type
  _atom_site_B_iso_or_equiv
  _atom_site_type_symbol
  Cd1      1.0000 0.55700  0.86316  0.46745  Biso   1.000  Cd
  Cd2      1.0000 0.94300  0.13684  0.96745  Biso   1.000  Cd
  Cd3      1.0000 0.44300  0.13684  0.53255  Biso   1.000  Cd
  Cd4      1.0000 0.05700  0.86316  0.03255  Biso   1.000  Cd
  Cd5      1.0000 0.00000  0.00000  0.50000  Biso   1.000  Cd
  Cd6      1.0000 0.50000  0.00000  0.00000  Biso   1.000  Cd
  H1       1.0000 0.13270  0.02260  0.26040  Biso   1.000  H
  H2       1.0000 0.27340  0.20000  0.09440  Biso   1.000  H
  H3       1.0000 0.33900  0.27750  0.31060  Biso   1.000  H
  H4       1.0000 0.49880  0.31200  0.07960  Biso   1.000  H
  H5       1.0000 0.29780  0.36440  0.07630  Biso   1.000  H
  H6       1.0000 0.80690  0.39470  0.07720  Biso   1.000  H
  H7       1.0000 0.97780  0.53780  0.06490  Biso   1.000  H
  H8       1.0000 0.47470  0.67360  0.10150  Biso   1.000  H
  H9       1.0000 0.31460  0.53400  0.12960  Biso   1.000  H
  H10      1.0000 0.97760  0.88700  0.38860  Biso   1.000  H
  H11      1.0000 0.01730  0.83060  0.43720  Biso   1.000  H
  H12      1.0000 0.36730  0.97740  0.76040  Biso   1.000  H
  H13      1.0000 0.22660  0.80000  0.59440  Biso   1.000  H
  H14      1.0000 0.16100  0.72250  0.81060  Biso   1.000  H
  H15      1.0000 0.00120  0.68800  0.57960  Biso   1.000  H
  H16      1.0000 0.20220  0.63560  0.57630  Biso   1.000  H
  H17      1.0000 0.69310  0.60530  0.57720  Biso   1.000  H
  H18      1.0000 0.52220  0.46220  0.56490  Biso   1.000  H
  H19      1.0000 0.02530  0.32640  0.60150  Biso   1.000  H
  H20      1.0000 0.18540  0.46600  0.62960  Biso   1.000  H
  H21      1.0000 0.52240  0.11300  0.88860  Biso   1.000  H
  H22      1.0000 0.48270  0.16940  0.93720  Biso   1.000  H
  H23      1.0000 0.86730  0.97740  0.73960  Biso   1.000  H
  H24      1.0000 0.72660  0.80000  0.90560  Biso   1.000  H
  H25      1.0000 0.66100  0.72250  0.68940  Biso   1.000  H
  H26      1.0000 0.50120  0.68800  0.92040  Biso   1.000  H
  H27      1.0000 0.70220  0.63560  0.92370  Biso   1.000  H
  H28      1.0000 0.19310  0.60530  0.92280  Biso   1.000  H
  H29      1.0000 0.02220  0.46220  0.93510  Biso   1.000  H
  H30      1.0000 0.52530  0.32640  0.89850  Biso   1.000  H
  H31      1.0000 0.68540  0.46600  0.87040  Biso   1.000  H
  H32      1.0000 0.02240  0.11300  0.61140  Biso   1.000  H
  H33      1.0000 0.98270  0.16940  0.56280  Biso   1.000  H
  H34      1.0000 0.63270  0.02260  0.23960  Biso   1.000  H
  H35      1.0000 0.77340  0.20000  0.40560  Biso   1.000  H
  H36      1.0000 0.83900  0.27750  0.18940  Biso   1.000  H
  H37      1.0000 0.99880  0.31200  0.42040  Biso   1.000  H
  H38      1.0000 0.79780  0.36440  0.42370  Biso   1.000  H
  H39      1.0000 0.30690  0.39470  0.42280  Biso   1.000  H
  H40      1.0000 0.47780  0.53780  0.43510  Biso   1.000  H
  H41      1.0000 0.97470  0.67360  0.39850  Biso   1.000  H
  H42      1.0000 0.81460  0.53400  0.37040  Biso   1.000  H
  H43      1.0000 0.47760  0.88700  0.11140  Biso   1.000  H
  H44      1.0000 0.51730  0.83060  0.06280  Biso   1.000  H
  C1       1.0000 0.23740  0.14750  0.29890  Biso   1.000  C
  C2       1.0000 0.18120  0.08020  0.24490  Biso   1.000  C
  C3       1.0000 0.19830  0.10000  0.16910  Biso   1.000  C
  C4       1.0000 0.26430  0.18680  0.14550  Biso   1.000  C
  C5       1.0000 0.31630  0.25360  0.19780  Biso   1.000  C
  C6       1.0000 0.30300  0.23280  0.27530  Biso   1.000  C
  C7       1.0000 0.22690  0.12250  0.38000  Biso   1.000  C
  C8       1.0000 0.14320  0.02810  0.11410  Biso   1.000  C
  C9       1.0000 0.85200  0.70900  0.07300  Biso   1.000  C
  C10      1.0000 0.74100  0.62010  0.08810  Biso   1.000  C
  C11      1.0000 0.42200  0.36020  0.10280  Biso   1.000  C
  C12      1.0000 0.53400  0.45100  0.09890  Biso   1.000  C
  C13      1.0000 0.74200  0.45020  0.08310  Biso   1.000  C
  C14      1.0000 0.84400  0.53590  0.07660  Biso   1.000  C
  C15      1.0000 0.54400  0.61870  0.10060  Biso   1.000  C
  C16      1.0000 0.44400  0.53430  0.11240  Biso   1.000  C
  C17      1.0000 0.26260  0.85250  0.79890  Biso   1.000  C
  C18      1.0000 0.31880  0.91980  0.74490  Biso   1.000  C
  C19      1.0000 0.30170  0.90000  0.66910  Biso   1.000  C
  C20      1.0000 0.23570  0.81320  0.64550  Biso   1.000  C
  C21      1.0000 0.18370  0.74640  0.69780  Biso   1.000  C
  C22      1.0000 0.19700  0.76720  0.77530  Biso   1.000  C
  C23      1.0000 0.27310  0.87750  0.88000  Biso   1.000  C
  C24      1.0000 0.35680  0.97190  0.61410  Biso   1.000  C
  C25      1.0000 0.64800  0.29100  0.57300  Biso   1.000  C
  C26      1.0000 0.75900  0.37990  0.58810  Biso   1.000  C
  C27      1.0000 0.07800  0.63980  0.60280  Biso   1.000  C
  C28      1.0000 0.96600  0.54900  0.59890  Biso   1.000  C
  C29      1.0000 0.75800  0.54980  0.58310  Biso   1.000  C
  C30      1.0000 0.65600  0.46410  0.57660  Biso   1.000  C
  C31      1.0000 0.95600  0.38130  0.60060  Biso   1.000  C
  C32      1.0000 0.05600  0.46570  0.61240  Biso   1.000  C
  C33      1.0000 0.76260  0.85250  0.70110  Biso   1.000  C
  C34      1.0000 0.81880  0.91980  0.75510  Biso   1.000  C
  C35      1.0000 0.80170  0.90000  0.83090  Biso   1.000  C
  C36      1.0000 0.73570  0.81320  0.85450  Biso   1.000  C
  C37      1.0000 0.68370  0.74640  0.80220  Biso   1.000  C
  C38      1.0000 0.69700  0.76720  0.72470  Biso   1.000  C
  C39      1.0000 0.77310  0.87750  0.62000  Biso   1.000  C
  C40      1.0000 0.85680  0.97190  0.88590  Biso   1.000  C
  C41      1.0000 0.14800  0.29100  0.92700  Biso   1.000  C
  C42      1.0000 0.25900  0.37990  0.91190  Biso   1.000  C
  C43      1.0000 0.57800  0.63980  0.89720  Biso   1.000  C
  C44      1.0000 0.46600  0.54900  0.90110  Biso   1.000  C
  C45      1.0000 0.25800  0.54980  0.91690  Biso   1.000  C
  C46      1.0000 0.15600  0.46410  0.92340  Biso   1.000  C
  C47      1.0000 0.45600  0.38130  0.89940  Biso   1.000  C
  C48      1.0000 0.55600  0.46570  0.88760  Biso   1.000  C
  C49      1.0000 0.73740  0.14750  0.20110  Biso   1.000  C
  C50      1.0000 0.68120  0.08020  0.25510  Biso   1.000  C
  C51      1.0000 0.69830  0.10000  0.33090  Biso   1.000  C
  C52      1.0000 0.76430  0.18680  0.35450  Biso   1.000  C
  C53      1.0000 0.81630  0.25360  0.30220  Biso   1.000  C
  C54      1.0000 0.80300  0.23280  0.22470  Biso   1.000  C
  C55      1.0000 0.72690  0.12250  0.12000  Biso   1.000  C
  C56      1.0000 0.64320  0.02810  0.38590  Biso   1.000  C
  C57      1.0000 0.35200  0.70900  0.42700  Biso   1.000  C
  C58      1.0000 0.24100  0.62010  0.41190  Biso   1.000  C
  C59      1.0000 0.92200  0.36020  0.39720  Biso   1.000  C
  C60      1.0000 0.03400  0.45100  0.40110  Biso   1.000  C
  C61      1.0000 0.24200  0.45020  0.41690  Biso   1.000  C
  C62      1.0000 0.34400  0.53590  0.42340  Biso   1.000  C
  C63      1.0000 0.04400  0.61870  0.39940  Biso   1.000  C
  C64      1.0000 0.94400  0.53430  0.38760  Biso   1.000  C
  O1       1.0000 0.13420  0.04920  0.39670  Biso   1.000  O
  O2       1.0000 0.92220  0.86640  0.42830  Biso   1.000  O
  O3       1.0000 0.31550  0.17620  0.42510  Biso   1.000  O
  O4       1.0000 0.18060  0.04090  0.04200  Biso   1.000  O
  O5       1.0000 0.06520  0.95270  0.13510  Biso   1.000  O
  O6       1.0000 0.38870  0.33950  0.17860  Biso   1.000  O
  O7       1.0000 0.76300  0.77780  0.04810  Biso   1.000  O
  O8       1.0000 0.03620  0.71250  0.07900  Biso   1.000  O
  O9       1.0000 0.36580  0.95080  0.89670  Biso   1.000  O
  O10      1.0000 0.57780  0.13360  0.92830  Biso   1.000  O
  O11      1.0000 0.18450  0.82380  0.92510  Biso   1.000  O
  O12      1.0000 0.31940  0.95910  0.54200  Biso   1.000  O
  O13      1.0000 0.43480  0.04730  0.63510  Biso   1.000  O
  O14      1.0000 0.11130  0.66050  0.67860  Biso   1.000  O
  O15      1.0000 0.73700  0.22220  0.54810  Biso   1.000  O
  O16      1.0000 0.46380  0.28750  0.57900  Biso   1.000  O
  O17      1.0000 0.86580  0.95080  0.60330  Biso   1.000  O
  O18      1.0000 0.07780  0.13360  0.57170  Biso   1.000  O
  O19      1.0000 0.68450  0.82380  0.57490  Biso   1.000  O
  O20      1.0000 0.81940  0.95910  0.95800  Biso   1.000  O
  O21      1.0000 0.93480  0.04730  0.86490  Biso   1.000  O
  O22      1.0000 0.61130  0.66050  0.82140  Biso   1.000  O
  O23      1.0000 0.23700  0.22220  0.95190  Biso   1.000  O
  O24      1.0000 0.96380  0.28750  0.92100  Biso   1.000  O
  O25      1.0000 0.63420  0.04920  0.10330  Biso   1.000  O
  O26      1.0000 0.42220  0.86640  0.07170  Biso   1.000  O
  O27      1.0000 0.81550  0.17620  0.07490  Biso   1.000  O
  O28      1.0000 0.68060  0.04090  0.45800  Biso   1.000  O
  O29      1.0000 0.56520  0.95270  0.36490  Biso   1.000  O
  O30      1.0000 0.88870  0.33950  0.32140  Biso   1.000  O
  O31      1.0000 0.26300  0.77780  0.45190  Biso   1.000  O
  O32      1.0000 0.53620  0.71250  0.42100  Biso   1.000  O
