data_image0
_cell_length_a       9.3454
_cell_length_b       9.87221
_cell_length_c       12.7817
_cell_angle_alpha    90
_cell_angle_beta     90
_cell_angle_gamma    90.8998

_symmetry_space_group_name_H-M    P 1
_symmetry_int_tables_number       1

loop_
  _symmetry_equiv_pos_as_xyz
  'x, y, z'

loop_
  _atom_site_label
  _atom_site_occupancy
  _atom_site_fract_x
  _atom_site_fract_y
  _atom_site_fract_z
  _atom_site_thermal_displace_type
  _atom_site_B_iso_or_equiv
  _atom_site_type_symbol
  Cd1      1.0000 0.73676  0.98739  0.25382  Biso   1.000  Cd
  Cd2      1.0000 0.76324  0.51261  0.75382  Biso   1.000  Cd
  Cd3      1.0000 0.26324  0.01261  0.74618  Biso   1.000  Cd
  Cd4      1.0000 0.23676  0.48739  0.24618  Biso   1.000  Cd
  Cd5      1.0000 0.50000  0.00000  0.50000  Biso   1.000  Cd
  Cd6      1.0000 0.00000  0.50000  0.00000  Biso   1.000  Cd
  H1       1.0000 0.36450  0.28550  0.88720  Biso   1.000  H
  H2       1.0000 0.47550  0.40040  0.88840  Biso   1.000  H
  H3       1.0000 0.38470  0.76220  0.91070  Biso   1.000  H
  H4       1.0000 0.49370  0.64900  0.91430  Biso   1.000  H
  H5       1.0000 0.13550  0.21450  0.38720  Biso   1.000  H
  H6       1.0000 0.02450  0.09960  0.38840  Biso   1.000  H
  H7       1.0000 0.11530  0.73780  0.41070  Biso   1.000  H
  H8       1.0000 0.00630  0.85100  0.41430  Biso   1.000  H
  H9       1.0000 0.63550  0.71450  0.11280  Biso   1.000  H
  H10      1.0000 0.52450  0.59960  0.11160  Biso   1.000  H
  H11      1.0000 0.61530  0.23780  0.08930  Biso   1.000  H
  H12      1.0000 0.50630  0.35100  0.08570  Biso   1.000  H
  H13      1.0000 0.86450  0.78550  0.61280  Biso   1.000  H
  H14      1.0000 0.97550  0.90040  0.61160  Biso   1.000  H
  H15      1.0000 0.88470  0.26220  0.58930  Biso   1.000  H
  H16      1.0000 0.99370  0.14900  0.58570  Biso   1.000  H
  C1       1.0000 0.49060  0.28420  0.76510  Biso   1.000  C
  C2       1.0000 0.49750  0.74920  0.78330  Biso   1.000  C
  C3       1.0000 0.00940  0.21580  0.26510  Biso   1.000  C
  C4       1.0000 0.00250  0.75080  0.28330  Biso   1.000  C
  C5       1.0000 0.50940  0.71580  0.23490  Biso   1.000  C
  C6       1.0000 0.50250  0.25080  0.21670  Biso   1.000  C
  C7       1.0000 0.99060  0.78420  0.73490  Biso   1.000  C
  C8       1.0000 0.99750  0.24920  0.71670  Biso   1.000  C
  N1       1.0000 0.60270  0.33990  0.71580  Biso   1.000  N
  N2       1.0000 0.62220  0.26300  0.63020  Biso   1.000  N
  N3       1.0000 0.52630  0.16750  0.62860  Biso   1.000  N
  N4       1.0000 0.43950  0.17670  0.71350  Biso   1.000  N
  N5       1.0000 0.43730  0.32860  0.85780  Biso   1.000  N
  N6       1.0000 0.60360  0.68810  0.73140  Biso   1.000  N
  N7       1.0000 0.61400  0.75500  0.64010  Biso   1.000  N
  N8       1.0000 0.51990  0.84890  0.63720  Biso   1.000  N
  N9       1.0000 0.44340  0.84920  0.72640  Biso   1.000  N
  N10      1.0000 0.45350  0.71630  0.88070  Biso   1.000  N
  N11      1.0000 0.89730  0.16010  0.21580  Biso   1.000  N
  N12      1.0000 0.87780  0.23700  0.13020  Biso   1.000  N
  N13      1.0000 0.97370  0.33250  0.12860  Biso   1.000  N
  N14      1.0000 0.06050  0.32330  0.21350  Biso   1.000  N
  N15      1.0000 0.06270  0.17140  0.35780  Biso   1.000  N
  N16      1.0000 0.89640  0.81190  0.23140  Biso   1.000  N
  N17      1.0000 0.88600  0.74500  0.14010  Biso   1.000  N
  N18      1.0000 0.98010  0.65110  0.13720  Biso   1.000  N
  N19      1.0000 0.05660  0.65080  0.22640  Biso   1.000  N
  N20      1.0000 0.04650  0.78370  0.38070  Biso   1.000  N
  N21      1.0000 0.39730  0.66010  0.28420  Biso   1.000  N
  N22      1.0000 0.37780  0.73700  0.36980  Biso   1.000  N
  N23      1.0000 0.47370  0.83250  0.37140  Biso   1.000  N
  N24      1.0000 0.56050  0.82330  0.28650  Biso   1.000  N
  N25      1.0000 0.56270  0.67140  0.14220  Biso   1.000  N
  N26      1.0000 0.39640  0.31190  0.26860  Biso   1.000  N
  N27      1.0000 0.38600  0.24500  0.35990  Biso   1.000  N
  N28      1.0000 0.48010  0.15110  0.36280  Biso   1.000  N
  N29      1.0000 0.55660  0.15080  0.27360  Biso   1.000  N
  N30      1.0000 0.54650  0.28370  0.11930  Biso   1.000  N
  N31      1.0000 0.10270  0.83990  0.78420  Biso   1.000  N
  N32      1.0000 0.12220  0.76300  0.86980  Biso   1.000  N
  N33      1.0000 0.02630  0.66750  0.87140  Biso   1.000  N
  N34      1.0000 0.93950  0.67670  0.78650  Biso   1.000  N
  N35      1.0000 0.93730  0.82860  0.64220  Biso   1.000  N
  N36      1.0000 0.10360  0.18810  0.76860  Biso   1.000  N
  N37      1.0000 0.11400  0.25500  0.85990  Biso   1.000  N
  N38      1.0000 0.01990  0.34890  0.86280  Biso   1.000  N
  N39      1.0000 0.94340  0.34920  0.77360  Biso   1.000  N
  N40      1.0000 0.95350  0.21630  0.61930  Biso   1.000  N
  Cl1      1.0000 0.77871  0.99901  0.45728  Biso   1.000  Cl
  Cl2      1.0000 0.72129  0.50099  0.95728  Biso   1.000  Cl
  Cl3      1.0000 0.22129  0.00099  0.54272  Biso   1.000  Cl
  Cl4      1.0000 0.27871  0.49901  0.04272  Biso   1.000  Cl
