data_image0
_cell_length_a       22.457
_cell_length_b       22.457
_cell_length_c       22.457
_cell_angle_alpha    90
_cell_angle_beta     90
_cell_angle_gamma    90

_symmetry_space_group_name_H-M    "P 1"
_symmetry_int_tables_number       1

loop_
  _symmetry_equiv_pos_as_xyz
  'x, y, z'

loop_
  _atom_site_label
  _atom_site_occupancy
  _atom_site_fract_x
  _atom_site_fract_y
  _atom_site_fract_z
  _atom_site_thermal_displace_type
  _atom_site_B_iso_or_equiv
  _atom_site_type_symbol
  In1      1.0000 0.67769  0.73929  0.80642  Biso   1.000  In
  C1       1.0000 0.80510  0.72000  0.10150  Biso   1.000  C
  C2       1.0000 0.79490  0.70530  0.87710  Biso   1.000  C
  C3       1.0000 0.82850  0.70640  0.93460  Biso   1.000  C
  C4       1.0000 0.89490  0.70570  0.03900  Biso   1.000  C
  H1       1.0000 0.91780  0.70530  0.07460  Biso   1.000  H
  C5       1.0000 0.80050  0.71430  0.98900  Biso   1.000  C
  H2       1.0000 0.75870  0.72050  0.99070  Biso   1.000  H
  C6       1.0000 0.83410  0.71310  0.04150  Biso   1.000  C
  C7       1.0000 0.92270  0.69870  0.98430  Biso   1.000  C
  C8       1.0000 0.88960  0.69860  0.93180  Biso   1.000  C
  H3       1.0000 0.90870  0.69310  0.89440  Biso   1.000  H
  O1       1.0000 0.60710  0.73880  0.87200  Biso   1.000  O
  N1       1.0000 0.98620  0.69570  0.97710  Biso   1.000  N
  O2       1.0000 0.74070  0.72050  0.87857  Biso   1.000  O
  O3       1.0000 0.82450  0.69000  0.83225  Biso   1.000  O
  O4       1.0000 0.83720  0.70610  0.14586  Biso   1.000  O
  O5       1.0000 0.75246  0.73870  0.10330  Biso   1.000  O
  Cl1      1.0000 0.60440  0.73720  0.88780  Biso   1.000  Cl
  In2      1.0000 0.32231  0.26071  0.80642  Biso   1.000  In
  C9       1.0000 0.19490  0.28000  0.10150  Biso   1.000  C
  C10      1.0000 0.20510  0.29470  0.87710  Biso   1.000  C
  C11      1.0000 0.17150  0.29360  0.93460  Biso   1.000  C
  C12      1.0000 0.10510  0.29430  0.03900  Biso   1.000  C
  H4       1.0000 0.08220  0.29470  0.07460  Biso   1.000  H
  C13      1.0000 0.19950  0.28570  0.98900  Biso   1.000  C
  H5       1.0000 0.24130  0.27950  0.99070  Biso   1.000  H
  C14      1.0000 0.16590  0.28690  0.04150  Biso   1.000  C
  C15      1.0000 0.07730  0.30130  0.98430  Biso   1.000  C
  C16      1.0000 0.11040  0.30140  0.93180  Biso   1.000  C
  H6       1.0000 0.09130  0.30690  0.89440  Biso   1.000  H
  O6       1.0000 0.39290  0.26120  0.87200  Biso   1.000  O
  N2       1.0000 0.01380  0.30430  0.97710  Biso   1.000  N
  O7       1.0000 0.25930  0.27950  0.87857  Biso   1.000  O
  O8       1.0000 0.17550  0.31000  0.83225  Biso   1.000  O
  O9       1.0000 0.16280  0.29390  0.14586  Biso   1.000  O
  O10      1.0000 0.24754  0.26130  0.10330  Biso   1.000  O
  Cl2      1.0000 0.39560  0.26280  0.88780  Biso   1.000  Cl
  In3      1.0000 0.32231  0.73929  0.19358  Biso   1.000  In
  C17      1.0000 0.19490  0.72000  0.89850  Biso   1.000  C
  C18      1.0000 0.20510  0.70530  0.12290  Biso   1.000  C
  C19      1.0000 0.17150  0.70640  0.06540  Biso   1.000  C
  C20      1.0000 0.10510  0.70570  0.96100  Biso   1.000  C
  H7       1.0000 0.08220  0.70530  0.92540  Biso   1.000  H
  C21      1.0000 0.19950  0.71430  0.01100  Biso   1.000  C
  H8       1.0000 0.24130  0.72050  0.00930  Biso   1.000  H
  C22      1.0000 0.16590  0.71310  0.95850  Biso   1.000  C
  C23      1.0000 0.07730  0.69870  0.01570  Biso   1.000  C
  C24      1.0000 0.11040  0.69860  0.06820  Biso   1.000  C
  H9       1.0000 0.09130  0.69310  0.10560  Biso   1.000  H
  O11      1.0000 0.39290  0.73880  0.12800  Biso   1.000  O
  N3       1.0000 0.01380  0.69570  0.02290  Biso   1.000  N
  O12      1.0000 0.25930  0.72050  0.12143  Biso   1.000  O
  O13      1.0000 0.17550  0.69000  0.16775  Biso   1.000  O
  O14      1.0000 0.16280  0.70610  0.85414  Biso   1.000  O
  O15      1.0000 0.24754  0.73870  0.89670  Biso   1.000  O
  Cl3      1.0000 0.39560  0.73720  0.11220  Biso   1.000  Cl
  In4      1.0000 0.67769  0.26071  0.19358  Biso   1.000  In
  C25      1.0000 0.80510  0.28000  0.89850  Biso   1.000  C
  C26      1.0000 0.79490  0.29470  0.12290  Biso   1.000  C
  C27      1.0000 0.82850  0.29360  0.06540  Biso   1.000  C
  C28      1.0000 0.89490  0.29430  0.96100  Biso   1.000  C
  H10      1.0000 0.91780  0.29470  0.92540  Biso   1.000  H
  C29      1.0000 0.80050  0.28570  0.01100  Biso   1.000  C
  H11      1.0000 0.75870  0.27950  0.00930  Biso   1.000  H
  C30      1.0000 0.83410  0.28690  0.95850  Biso   1.000  C
  C31      1.0000 0.92270  0.30130  0.01570  Biso   1.000  C
  C32      1.0000 0.88960  0.30140  0.06820  Biso   1.000  C
  H12      1.0000 0.90870  0.30690  0.10560  Biso   1.000  H
  O16      1.0000 0.60710  0.26120  0.12800  Biso   1.000  O
  N4       1.0000 0.98620  0.30430  0.02290  Biso   1.000  N
  O17      1.0000 0.74070  0.27950  0.12143  Biso   1.000  O
  O18      1.0000 0.82450  0.31000  0.16775  Biso   1.000  O
  O19      1.0000 0.83720  0.29390  0.85414  Biso   1.000  O
  O20      1.0000 0.75246  0.26130  0.89670  Biso   1.000  O
  Cl4      1.0000 0.60440  0.26280  0.11220  Biso   1.000  Cl
  In5      1.0000 0.80642  0.67769  0.73929  Biso   1.000  In
  C33      1.0000 0.10150  0.80510  0.72000  Biso   1.000  C
  C34      1.0000 0.87710  0.79490  0.70530  Biso   1.000  C
  C35      1.0000 0.93460  0.82850  0.70640  Biso   1.000  C
  C36      1.0000 0.03900  0.89490  0.70570  Biso   1.000  C
  H13      1.0000 0.07460  0.91780  0.70530  Biso   1.000  H
  C37      1.0000 0.98900  0.80050  0.71430  Biso   1.000  C
  H14      1.0000 0.99070  0.75870  0.72050  Biso   1.000  H
  C38      1.0000 0.04150  0.83410  0.71310  Biso   1.000  C
  C39      1.0000 0.98430  0.92270  0.69870  Biso   1.000  C
  C40      1.0000 0.93180  0.88960  0.69860  Biso   1.000  C
  H15      1.0000 0.89440  0.90870  0.69310  Biso   1.000  H
  O21      1.0000 0.87200  0.60710  0.73880  Biso   1.000  O
  N5       1.0000 0.97710  0.98620  0.69570  Biso   1.000  N
  O22      1.0000 0.87857  0.74070  0.72050  Biso   1.000  O
  O23      1.0000 0.83225  0.82450  0.69000  Biso   1.000  O
  O24      1.0000 0.14586  0.83720  0.70610  Biso   1.000  O
  O25      1.0000 0.10330  0.75246  0.73870  Biso   1.000  O
  Cl5      1.0000 0.88780  0.60440  0.73720  Biso   1.000  Cl
  In6      1.0000 0.80642  0.32231  0.26071  Biso   1.000  In
  C41      1.0000 0.10150  0.19490  0.28000  Biso   1.000  C
  C42      1.0000 0.87710  0.20510  0.29470  Biso   1.000  C
  C43      1.0000 0.93460  0.17150  0.29360  Biso   1.000  C
  C44      1.0000 0.03900  0.10510  0.29430  Biso   1.000  C
  H16      1.0000 0.07460  0.08220  0.29470  Biso   1.000  H
  C45      1.0000 0.98900  0.19950  0.28570  Biso   1.000  C
  H17      1.0000 0.99070  0.24130  0.27950  Biso   1.000  H
  C46      1.0000 0.04150  0.16590  0.28690  Biso   1.000  C
  C47      1.0000 0.98430  0.07730  0.30130  Biso   1.000  C
  C48      1.0000 0.93180  0.11040  0.30140  Biso   1.000  C
  H18      1.0000 0.89440  0.09130  0.30690  Biso   1.000  H
  O26      1.0000 0.87200  0.39290  0.26120  Biso   1.000  O
  N6       1.0000 0.97710  0.01380  0.30430  Biso   1.000  N
  O27      1.0000 0.87857  0.25930  0.27950  Biso   1.000  O
  O28      1.0000 0.83225  0.17550  0.31000  Biso   1.000  O
  O29      1.0000 0.14586  0.16280  0.29390  Biso   1.000  O
  O30      1.0000 0.10330  0.24754  0.26130  Biso   1.000  O
  Cl6      1.0000 0.88780  0.39560  0.26280  Biso   1.000  Cl
  In7      1.0000 0.19358  0.32231  0.73929  Biso   1.000  In
  C49      1.0000 0.89850  0.19490  0.72000  Biso   1.000  C
  C50      1.0000 0.12290  0.20510  0.70530  Biso   1.000  C
  C51      1.0000 0.06540  0.17150  0.70640  Biso   1.000  C
  C52      1.0000 0.96100  0.10510  0.70570  Biso   1.000  C
  H19      1.0000 0.92540  0.08220  0.70530  Biso   1.000  H
  C53      1.0000 0.01100  0.19950  0.71430  Biso   1.000  C
  H20      1.0000 0.00930  0.24130  0.72050  Biso   1.000  H
  C54      1.0000 0.95850  0.16590  0.71310  Biso   1.000  C
  C55      1.0000 0.01570  0.07730  0.69870  Biso   1.000  C
  C56      1.0000 0.06820  0.11040  0.69860  Biso   1.000  C
  H21      1.0000 0.10560  0.09130  0.69310  Biso   1.000  H
  O31      1.0000 0.12800  0.39290  0.73880  Biso   1.000  O
  N7       1.0000 0.02290  0.01380  0.69570  Biso   1.000  N
  O32      1.0000 0.12143  0.25930  0.72050  Biso   1.000  O
  O33      1.0000 0.16775  0.17550  0.69000  Biso   1.000  O
  O34      1.0000 0.85414  0.16280  0.70610  Biso   1.000  O
  O35      1.0000 0.89670  0.24754  0.73870  Biso   1.000  O
  Cl7      1.0000 0.11220  0.39560  0.73720  Biso   1.000  Cl
  In8      1.0000 0.19358  0.67769  0.26071  Biso   1.000  In
  C57      1.0000 0.89850  0.80510  0.28000  Biso   1.000  C
  C58      1.0000 0.12290  0.79490  0.29470  Biso   1.000  C
  C59      1.0000 0.06540  0.82850  0.29360  Biso   1.000  C
  C60      1.0000 0.96100  0.89490  0.29430  Biso   1.000  C
  H22      1.0000 0.92540  0.91780  0.29470  Biso   1.000  H
  C61      1.0000 0.01100  0.80050  0.28570  Biso   1.000  C
  H23      1.0000 0.00930  0.75870  0.27950  Biso   1.000  H
  C62      1.0000 0.95850  0.83410  0.28690  Biso   1.000  C
  C63      1.0000 0.01570  0.92270  0.30130  Biso   1.000  C
  C64      1.0000 0.06820  0.88960  0.30140  Biso   1.000  C
  H24      1.0000 0.10560  0.90870  0.30690  Biso   1.000  H
  O36      1.0000 0.12800  0.60710  0.26120  Biso   1.000  O
  N8       1.0000 0.02290  0.98620  0.30430  Biso   1.000  N
  O37      1.0000 0.12143  0.74070  0.27950  Biso   1.000  O
  O38      1.0000 0.16775  0.82450  0.31000  Biso   1.000  O
  O39      1.0000 0.85414  0.83720  0.29390  Biso   1.000  O
  O40      1.0000 0.89670  0.75246  0.26130  Biso   1.000  O
  Cl8      1.0000 0.11220  0.60440  0.26280  Biso   1.000  Cl
  In9      1.0000 0.73929  0.80642  0.67769  Biso   1.000  In
  C65      1.0000 0.72000  0.10150  0.80510  Biso   1.000  C
  C66      1.0000 0.70530  0.87710  0.79490  Biso   1.000  C
  C67      1.0000 0.70640  0.93460  0.82850  Biso   1.000  C
  C68      1.0000 0.70570  0.03900  0.89490  Biso   1.000  C
  H25      1.0000 0.70530  0.07460  0.91780  Biso   1.000  H
  C69      1.0000 0.71430  0.98900  0.80050  Biso   1.000  C
  H26      1.0000 0.72050  0.99070  0.75870  Biso   1.000  H
  C70      1.0000 0.71310  0.04150  0.83410  Biso   1.000  C
  C71      1.0000 0.69870  0.98430  0.92270  Biso   1.000  C
  C72      1.0000 0.69860  0.93180  0.88960  Biso   1.000  C
  H27      1.0000 0.69310  0.89440  0.90870  Biso   1.000  H
  O41      1.0000 0.73880  0.87200  0.60710  Biso   1.000  O
  N9       1.0000 0.69570  0.97710  0.98620  Biso   1.000  N
  O42      1.0000 0.72050  0.87857  0.74070  Biso   1.000  O
  O43      1.0000 0.69000  0.83225  0.82450  Biso   1.000  O
  O44      1.0000 0.70610  0.14586  0.83720  Biso   1.000  O
  O45      1.0000 0.73870  0.10330  0.75246  Biso   1.000  O
  Cl9      1.0000 0.73720  0.88780  0.60440  Biso   1.000  Cl
  In10     1.0000 0.26071  0.80642  0.32231  Biso   1.000  In
  C73      1.0000 0.28000  0.10150  0.19490  Biso   1.000  C
  C74      1.0000 0.29470  0.87710  0.20510  Biso   1.000  C
  C75      1.0000 0.29360  0.93460  0.17150  Biso   1.000  C
  C76      1.0000 0.29430  0.03900  0.10510  Biso   1.000  C
  H28      1.0000 0.29470  0.07460  0.08220  Biso   1.000  H
  C77      1.0000 0.28570  0.98900  0.19950  Biso   1.000  C
  H29      1.0000 0.27950  0.99070  0.24130  Biso   1.000  H
  C78      1.0000 0.28690  0.04150  0.16590  Biso   1.000  C
  C79      1.0000 0.30130  0.98430  0.07730  Biso   1.000  C
  C80      1.0000 0.30140  0.93180  0.11040  Biso   1.000  C
  H30      1.0000 0.30690  0.89440  0.09130  Biso   1.000  H
  O46      1.0000 0.26120  0.87200  0.39290  Biso   1.000  O
  N10      1.0000 0.30430  0.97710  0.01380  Biso   1.000  N
  O47      1.0000 0.27950  0.87857  0.25930  Biso   1.000  O
  O48      1.0000 0.31000  0.83225  0.17550  Biso   1.000  O
  O49      1.0000 0.29390  0.14586  0.16280  Biso   1.000  O
  O50      1.0000 0.26130  0.10330  0.24754  Biso   1.000  O
  Cl10     1.0000 0.26280  0.88780  0.39560  Biso   1.000  Cl
  In11     1.0000 0.73929  0.19358  0.32231  Biso   1.000  In
  C81      1.0000 0.72000  0.89850  0.19490  Biso   1.000  C
  C82      1.0000 0.70530  0.12290  0.20510  Biso   1.000  C
  C83      1.0000 0.70640  0.06540  0.17150  Biso   1.000  C
  C84      1.0000 0.70570  0.96100  0.10510  Biso   1.000  C
  H31      1.0000 0.70530  0.92540  0.08220  Biso   1.000  H
  C85      1.0000 0.71430  0.01100  0.19950  Biso   1.000  C
  H32      1.0000 0.72050  0.00930  0.24130  Biso   1.000  H
  C86      1.0000 0.71310  0.95850  0.16590  Biso   1.000  C
  C87      1.0000 0.69870  0.01570  0.07730  Biso   1.000  C
  C88      1.0000 0.69860  0.06820  0.11040  Biso   1.000  C
  H33      1.0000 0.69310  0.10560  0.09130  Biso   1.000  H
  O51      1.0000 0.73880  0.12800  0.39290  Biso   1.000  O
  N11      1.0000 0.69570  0.02290  0.01380  Biso   1.000  N
  O52      1.0000 0.72050  0.12143  0.25930  Biso   1.000  O
  O53      1.0000 0.69000  0.16775  0.17550  Biso   1.000  O
  O54      1.0000 0.70610  0.85414  0.16280  Biso   1.000  O
  O55      1.0000 0.73870  0.89670  0.24754  Biso   1.000  O
  Cl11     1.0000 0.73720  0.11220  0.39560  Biso   1.000  Cl
  In12     1.0000 0.26071  0.19358  0.67769  Biso   1.000  In
  C89      1.0000 0.28000  0.89850  0.80510  Biso   1.000  C
  C90      1.0000 0.29470  0.12290  0.79490  Biso   1.000  C
  C91      1.0000 0.29360  0.06540  0.82850  Biso   1.000  C
  C92      1.0000 0.29430  0.96100  0.89490  Biso   1.000  C
  H34      1.0000 0.29470  0.92540  0.91780  Biso   1.000  H
  C93      1.0000 0.28570  0.01100  0.80050  Biso   1.000  C
  H35      1.0000 0.27950  0.00930  0.75870  Biso   1.000  H
  C94      1.0000 0.28690  0.95850  0.83410  Biso   1.000  C
  C95      1.0000 0.30130  0.01570  0.92270  Biso   1.000  C
  C96      1.0000 0.30140  0.06820  0.88960  Biso   1.000  C
  H36      1.0000 0.30690  0.10560  0.90870  Biso   1.000  H
  O56      1.0000 0.26120  0.12800  0.60710  Biso   1.000  O
  N12      1.0000 0.30430  0.02290  0.98620  Biso   1.000  N
  O57      1.0000 0.27950  0.12143  0.74070  Biso   1.000  O
  O58      1.0000 0.31000  0.16775  0.82450  Biso   1.000  O
  O59      1.0000 0.29390  0.85414  0.83720  Biso   1.000  O
  O60      1.0000 0.26130  0.89670  0.75246  Biso   1.000  O
  Cl12     1.0000 0.26280  0.11220  0.60440  Biso   1.000  Cl
  In13     1.0000 0.23929  0.17769  0.30642  Biso   1.000  In
  C97      1.0000 0.22000  0.30510  0.60150  Biso   1.000  C
  C98      1.0000 0.20530  0.29490  0.37710  Biso   1.000  C
  C99      1.0000 0.20640  0.32850  0.43460  Biso   1.000  C
  C100     1.0000 0.20570  0.39490  0.53900  Biso   1.000  C
  H37      1.0000 0.20530  0.41780  0.57460  Biso   1.000  H
  C101     1.0000 0.21430  0.30050  0.48900  Biso   1.000  C
  H38      1.0000 0.22050  0.25870  0.49070  Biso   1.000  H
  C102     1.0000 0.21310  0.33410  0.54150  Biso   1.000  C
  C103     1.0000 0.19870  0.42270  0.48430  Biso   1.000  C
  C104     1.0000 0.19860  0.38960  0.43180  Biso   1.000  C
  H39      1.0000 0.19310  0.40870  0.39440  Biso   1.000  H
  O61      1.0000 0.23880  0.10710  0.37200  Biso   1.000  O
  N13      1.0000 0.19570  0.48620  0.47710  Biso   1.000  N
  O62      1.0000 0.22050  0.24070  0.37857  Biso   1.000  O
  O63      1.0000 0.19000  0.32450  0.33225  Biso   1.000  O
  O64      1.0000 0.20610  0.33720  0.64586  Biso   1.000  O
  O65      1.0000 0.23870  0.25246  0.60330  Biso   1.000  O
  Cl13     1.0000 0.23720  0.10440  0.38780  Biso   1.000  Cl
  In14     1.0000 0.76071  0.82231  0.30642  Biso   1.000  In
  C105     1.0000 0.78000  0.69490  0.60150  Biso   1.000  C
  C106     1.0000 0.79470  0.70510  0.37710  Biso   1.000  C
  C107     1.0000 0.79360  0.67150  0.43460  Biso   1.000  C
  C108     1.0000 0.79430  0.60510  0.53900  Biso   1.000  C
  H40      1.0000 0.79470  0.58220  0.57460  Biso   1.000  H
  C109     1.0000 0.78570  0.69950  0.48900  Biso   1.000  C
  H41      1.0000 0.77950  0.74130  0.49070  Biso   1.000  H
  C110     1.0000 0.78690  0.66590  0.54150  Biso   1.000  C
  C111     1.0000 0.80130  0.57730  0.48430  Biso   1.000  C
  C112     1.0000 0.80140  0.61040  0.43180  Biso   1.000  C
  H42      1.0000 0.80690  0.59130  0.39440  Biso   1.000  H
  O66      1.0000 0.76120  0.89290  0.37200  Biso   1.000  O
  N14      1.0000 0.80430  0.51380  0.47710  Biso   1.000  N
  O67      1.0000 0.77950  0.75930  0.37857  Biso   1.000  O
  O68      1.0000 0.81000  0.67550  0.33225  Biso   1.000  O
  O69      1.0000 0.79390  0.66280  0.64586  Biso   1.000  O
  O70      1.0000 0.76130  0.74754  0.60330  Biso   1.000  O
  Cl14     1.0000 0.76280  0.89560  0.38780  Biso   1.000  Cl
  In15     1.0000 0.23929  0.82231  0.69358  Biso   1.000  In
  C113     1.0000 0.22000  0.69490  0.39850  Biso   1.000  C
  C114     1.0000 0.20530  0.70510  0.62290  Biso   1.000  C
  C115     1.0000 0.20640  0.67150  0.56540  Biso   1.000  C
  C116     1.0000 0.20570  0.60510  0.46100  Biso   1.000  C
  H43      1.0000 0.20530  0.58220  0.42540  Biso   1.000  H
  C117     1.0000 0.21430  0.69950  0.51100  Biso   1.000  C
  H44      1.0000 0.22050  0.74130  0.50930  Biso   1.000  H
  C118     1.0000 0.21310  0.66590  0.45850  Biso   1.000  C
  C119     1.0000 0.19870  0.57730  0.51570  Biso   1.000  C
  C120     1.0000 0.19860  0.61040  0.56820  Biso   1.000  C
  H45      1.0000 0.19310  0.59130  0.60560  Biso   1.000  H
  O71      1.0000 0.23880  0.89290  0.62800  Biso   1.000  O
  N15      1.0000 0.19570  0.51380  0.52290  Biso   1.000  N
  O72      1.0000 0.22050  0.75930  0.62143  Biso   1.000  O
  O73      1.0000 0.19000  0.67550  0.66775  Biso   1.000  O
  O74      1.0000 0.20610  0.66280  0.35414  Biso   1.000  O
  O75      1.0000 0.23870  0.74754  0.39670  Biso   1.000  O
  Cl15     1.0000 0.23720  0.89560  0.61220  Biso   1.000  Cl
  In16     1.0000 0.76071  0.17769  0.69358  Biso   1.000  In
  C121     1.0000 0.78000  0.30510  0.39850  Biso   1.000  C
  C122     1.0000 0.79470  0.29490  0.62290  Biso   1.000  C
  C123     1.0000 0.79360  0.32850  0.56540  Biso   1.000  C
  C124     1.0000 0.79430  0.39490  0.46100  Biso   1.000  C
  H46      1.0000 0.79470  0.41780  0.42540  Biso   1.000  H
  C125     1.0000 0.78570  0.30050  0.51100  Biso   1.000  C
  H47      1.0000 0.77950  0.25870  0.50930  Biso   1.000  H
  C126     1.0000 0.78690  0.33410  0.45850  Biso   1.000  C
  C127     1.0000 0.80130  0.42270  0.51570  Biso   1.000  C
  C128     1.0000 0.80140  0.38960  0.56820  Biso   1.000  C
  H48      1.0000 0.80690  0.40870  0.60560  Biso   1.000  H
  O76      1.0000 0.76120  0.10710  0.62800  Biso   1.000  O
  N16      1.0000 0.80430  0.48620  0.52290  Biso   1.000  N
  O77      1.0000 0.77950  0.24070  0.62143  Biso   1.000  O
  O78      1.0000 0.81000  0.32450  0.66775  Biso   1.000  O
  O79      1.0000 0.79390  0.33720  0.35414  Biso   1.000  O
  O80      1.0000 0.76130  0.25246  0.39670  Biso   1.000  O
  Cl16     1.0000 0.76280  0.10440  0.61220  Biso   1.000  Cl
  In17     1.0000 0.17769  0.30642  0.23929  Biso   1.000  In
  C129     1.0000 0.30510  0.60150  0.22000  Biso   1.000  C
  C130     1.0000 0.29490  0.37710  0.20530  Biso   1.000  C
  C131     1.0000 0.32850  0.43460  0.20640  Biso   1.000  C
  C132     1.0000 0.39490  0.53900  0.20570  Biso   1.000  C
  H49      1.0000 0.41780  0.57460  0.20530  Biso   1.000  H
  C133     1.0000 0.30050  0.48900  0.21430  Biso   1.000  C
  H50      1.0000 0.25870  0.49070  0.22050  Biso   1.000  H
  C134     1.0000 0.33410  0.54150  0.21310  Biso   1.000  C
  C135     1.0000 0.42270  0.48430  0.19870  Biso   1.000  C
  C136     1.0000 0.38960  0.43180  0.19860  Biso   1.000  C
  H51      1.0000 0.40870  0.39440  0.19310  Biso   1.000  H
  O81      1.0000 0.10710  0.37200  0.23880  Biso   1.000  O
  N17      1.0000 0.48620  0.47710  0.19570  Biso   1.000  N
  O82      1.0000 0.24070  0.37857  0.22050  Biso   1.000  O
  O83      1.0000 0.32450  0.33225  0.19000  Biso   1.000  O
  O84      1.0000 0.33720  0.64586  0.20610  Biso   1.000  O
  O85      1.0000 0.25246  0.60330  0.23870  Biso   1.000  O
  Cl17     1.0000 0.10440  0.38780  0.23720  Biso   1.000  Cl
  In18     1.0000 0.82231  0.30642  0.76071  Biso   1.000  In
  C137     1.0000 0.69490  0.60150  0.78000  Biso   1.000  C
  C138     1.0000 0.70510  0.37710  0.79470  Biso   1.000  C
  C139     1.0000 0.67150  0.43460  0.79360  Biso   1.000  C
  C140     1.0000 0.60510  0.53900  0.79430  Biso   1.000  C
  H52      1.0000 0.58220  0.57460  0.79470  Biso   1.000  H
  C141     1.0000 0.69950  0.48900  0.78570  Biso   1.000  C
  H53      1.0000 0.74130  0.49070  0.77950  Biso   1.000  H
  C142     1.0000 0.66590  0.54150  0.78690  Biso   1.000  C
  C143     1.0000 0.57730  0.48430  0.80130  Biso   1.000  C
  C144     1.0000 0.61040  0.43180  0.80140  Biso   1.000  C
  H54      1.0000 0.59130  0.39440  0.80690  Biso   1.000  H
  O86      1.0000 0.89290  0.37200  0.76120  Biso   1.000  O
  N18      1.0000 0.51380  0.47710  0.80430  Biso   1.000  N
  O87      1.0000 0.75930  0.37857  0.77950  Biso   1.000  O
  O88      1.0000 0.67550  0.33225  0.81000  Biso   1.000  O
  O89      1.0000 0.66280  0.64586  0.79390  Biso   1.000  O
  O90      1.0000 0.74754  0.60330  0.76130  Biso   1.000  O
  Cl18     1.0000 0.89560  0.38780  0.76280  Biso   1.000  Cl
  In19     1.0000 0.82231  0.69358  0.23929  Biso   1.000  In
  C145     1.0000 0.69490  0.39850  0.22000  Biso   1.000  C
  C146     1.0000 0.70510  0.62290  0.20530  Biso   1.000  C
  C147     1.0000 0.67150  0.56540  0.20640  Biso   1.000  C
  C148     1.0000 0.60510  0.46100  0.20570  Biso   1.000  C
  H55      1.0000 0.58220  0.42540  0.20530  Biso   1.000  H
  C149     1.0000 0.69950  0.51100  0.21430  Biso   1.000  C
  H56      1.0000 0.74130  0.50930  0.22050  Biso   1.000  H
  C150     1.0000 0.66590  0.45850  0.21310  Biso   1.000  C
  C151     1.0000 0.57730  0.51570  0.19870  Biso   1.000  C
  C152     1.0000 0.61040  0.56820  0.19860  Biso   1.000  C
  H57      1.0000 0.59130  0.60560  0.19310  Biso   1.000  H
  O91      1.0000 0.89290  0.62800  0.23880  Biso   1.000  O
  N19      1.0000 0.51380  0.52290  0.19570  Biso   1.000  N
  O92      1.0000 0.75930  0.62143  0.22050  Biso   1.000  O
  O93      1.0000 0.67550  0.66775  0.19000  Biso   1.000  O
  O94      1.0000 0.66280  0.35414  0.20610  Biso   1.000  O
  O95      1.0000 0.74754  0.39670  0.23870  Biso   1.000  O
  Cl19     1.0000 0.89560  0.61220  0.23720  Biso   1.000  Cl
  In20     1.0000 0.17769  0.69358  0.76071  Biso   1.000  In
  C153     1.0000 0.30510  0.39850  0.78000  Biso   1.000  C
  C154     1.0000 0.29490  0.62290  0.79470  Biso   1.000  C
  C155     1.0000 0.32850  0.56540  0.79360  Biso   1.000  C
  C156     1.0000 0.39490  0.46100  0.79430  Biso   1.000  C
  H58      1.0000 0.41780  0.42540  0.79470  Biso   1.000  H
  C157     1.0000 0.30050  0.51100  0.78570  Biso   1.000  C
  H59      1.0000 0.25870  0.50930  0.77950  Biso   1.000  H
  C158     1.0000 0.33410  0.45850  0.78690  Biso   1.000  C
  C159     1.0000 0.42270  0.51570  0.80130  Biso   1.000  C
  C160     1.0000 0.38960  0.56820  0.80140  Biso   1.000  C
  H60      1.0000 0.40870  0.60560  0.80690  Biso   1.000  H
  O96      1.0000 0.10710  0.62800  0.76120  Biso   1.000  O
  N20      1.0000 0.48620  0.52290  0.80430  Biso   1.000  N
  O97      1.0000 0.24070  0.62143  0.77950  Biso   1.000  O
  O98      1.0000 0.32450  0.66775  0.81000  Biso   1.000  O
  O99      1.0000 0.33720  0.35414  0.79390  Biso   1.000  O
  O100     1.0000 0.25246  0.39670  0.76130  Biso   1.000  O
  Cl20     1.0000 0.10440  0.61220  0.76280  Biso   1.000  Cl
  In21     1.0000 0.30642  0.23929  0.17769  Biso   1.000  In
  C161     1.0000 0.60150  0.22000  0.30510  Biso   1.000  C
  C162     1.0000 0.37710  0.20530  0.29490  Biso   1.000  C
  C163     1.0000 0.43460  0.20640  0.32850  Biso   1.000  C
  C164     1.0000 0.53900  0.20570  0.39490  Biso   1.000  C
  H61      1.0000 0.57460  0.20530  0.41780  Biso   1.000  H
  C165     1.0000 0.48900  0.21430  0.30050  Biso   1.000  C
  H62      1.0000 0.49070  0.22050  0.25870  Biso   1.000  H
  C166     1.0000 0.54150  0.21310  0.33410  Biso   1.000  C
  C167     1.0000 0.48430  0.19870  0.42270  Biso   1.000  C
  C168     1.0000 0.43180  0.19860  0.38960  Biso   1.000  C
  H63      1.0000 0.39440  0.19310  0.40870  Biso   1.000  H
  O101     1.0000 0.37200  0.23880  0.10710  Biso   1.000  O
  N21      1.0000 0.47710  0.19570  0.48620  Biso   1.000  N
  O102     1.0000 0.37857  0.22050  0.24070  Biso   1.000  O
  O103     1.0000 0.33225  0.19000  0.32450  Biso   1.000  O
  O104     1.0000 0.64586  0.20610  0.33720  Biso   1.000  O
  O105     1.0000 0.60330  0.23870  0.25246  Biso   1.000  O
  Cl21     1.0000 0.38780  0.23720  0.10440  Biso   1.000  Cl
  In22     1.0000 0.30642  0.76071  0.82231  Biso   1.000  In
  C169     1.0000 0.60150  0.78000  0.69490  Biso   1.000  C
  C170     1.0000 0.37710  0.79470  0.70510  Biso   1.000  C
  C171     1.0000 0.43460  0.79360  0.67150  Biso   1.000  C
  C172     1.0000 0.53900  0.79430  0.60510  Biso   1.000  C
  H64      1.0000 0.57460  0.79470  0.58220  Biso   1.000  H
  C173     1.0000 0.48900  0.78570  0.69950  Biso   1.000  C
  H65      1.0000 0.49070  0.77950  0.74130  Biso   1.000  H
  C174     1.0000 0.54150  0.78690  0.66590  Biso   1.000  C
  C175     1.0000 0.48430  0.80130  0.57730  Biso   1.000  C
  C176     1.0000 0.43180  0.80140  0.61040  Biso   1.000  C
  H66      1.0000 0.39440  0.80690  0.59130  Biso   1.000  H
  O106     1.0000 0.37200  0.76120  0.89290  Biso   1.000  O
  N22      1.0000 0.47710  0.80430  0.51380  Biso   1.000  N
  O107     1.0000 0.37857  0.77950  0.75930  Biso   1.000  O
  O108     1.0000 0.33225  0.81000  0.67550  Biso   1.000  O
  O109     1.0000 0.64586  0.79390  0.66280  Biso   1.000  O
  O110     1.0000 0.60330  0.76130  0.74754  Biso   1.000  O
  Cl22     1.0000 0.38780  0.76280  0.89560  Biso   1.000  Cl
  In23     1.0000 0.69358  0.23929  0.82231  Biso   1.000  In
  C177     1.0000 0.39850  0.22000  0.69490  Biso   1.000  C
  C178     1.0000 0.62290  0.20530  0.70510  Biso   1.000  C
  C179     1.0000 0.56540  0.20640  0.67150  Biso   1.000  C
  C180     1.0000 0.46100  0.20570  0.60510  Biso   1.000  C
  H67      1.0000 0.42540  0.20530  0.58220  Biso   1.000  H
  C181     1.0000 0.51100  0.21430  0.69950  Biso   1.000  C
  H68      1.0000 0.50930  0.22050  0.74130  Biso   1.000  H
  C182     1.0000 0.45850  0.21310  0.66590  Biso   1.000  C
  C183     1.0000 0.51570  0.19870  0.57730  Biso   1.000  C
  C184     1.0000 0.56820  0.19860  0.61040  Biso   1.000  C
  H69      1.0000 0.60560  0.19310  0.59130  Biso   1.000  H
  O111     1.0000 0.62800  0.23880  0.89290  Biso   1.000  O
  N23      1.0000 0.52290  0.19570  0.51380  Biso   1.000  N
  O112     1.0000 0.62143  0.22050  0.75930  Biso   1.000  O
  O113     1.0000 0.66775  0.19000  0.67550  Biso   1.000  O
  O114     1.0000 0.35414  0.20610  0.66280  Biso   1.000  O
  O115     1.0000 0.39670  0.23870  0.74754  Biso   1.000  O
  Cl23     1.0000 0.61220  0.23720  0.89560  Biso   1.000  Cl
  In24     1.0000 0.69358  0.76071  0.17769  Biso   1.000  In
  C185     1.0000 0.39850  0.78000  0.30510  Biso   1.000  C
  C186     1.0000 0.62290  0.79470  0.29490  Biso   1.000  C
  C187     1.0000 0.56540  0.79360  0.32850  Biso   1.000  C
  C188     1.0000 0.46100  0.79430  0.39490  Biso   1.000  C
  H70      1.0000 0.42540  0.79470  0.41780  Biso   1.000  H
  C189     1.0000 0.51100  0.78570  0.30050  Biso   1.000  C
  H71      1.0000 0.50930  0.77950  0.25870  Biso   1.000  H
  C190     1.0000 0.45850  0.78690  0.33410  Biso   1.000  C
  C191     1.0000 0.51570  0.80130  0.42270  Biso   1.000  C
  C192     1.0000 0.56820  0.80140  0.38960  Biso   1.000  C
  H72      1.0000 0.60560  0.80690  0.40870  Biso   1.000  H
  O116     1.0000 0.62800  0.76120  0.10710  Biso   1.000  O
  N24      1.0000 0.52290  0.80430  0.48620  Biso   1.000  N
  O117     1.0000 0.62143  0.77950  0.24070  Biso   1.000  O
  O118     1.0000 0.66775  0.81000  0.32450  Biso   1.000  O
  O119     1.0000 0.35414  0.79390  0.33720  Biso   1.000  O
  O120     1.0000 0.39670  0.76130  0.25246  Biso   1.000  O
  Cl24     1.0000 0.61220  0.76280  0.10440  Biso   1.000  Cl
  O121     1.0000 0.74030  0.74030  0.74030  Biso   1.000  O
  O122     1.0000 0.25970  0.25970  0.74030  Biso   1.000  O
  O123     1.0000 0.25970  0.74030  0.25970  Biso   1.000  O
  O124     1.0000 0.74030  0.25970  0.25970  Biso   1.000  O
  O125     1.0000 0.24030  0.24030  0.24030  Biso   1.000  O
  O126     1.0000 0.75970  0.75970  0.24030  Biso   1.000  O
  O127     1.0000 0.24030  0.75970  0.75970  Biso   1.000  O
  O128     1.0000 0.75970  0.24030  0.75970  Biso   1.000  O
