data_image0
_cell_length_a       13.7368
_cell_length_b       8.8737
_cell_length_c       7.9839
_cell_angle_alpha    90
_cell_angle_beta     120.815
_cell_angle_gamma    90

_symmetry_space_group_name_H-M    "P 1"
_symmetry_int_tables_number       1

loop_
  _symmetry_equiv_pos_as_xyz
  'x, y, z'

loop_
  _atom_site_label
  _atom_site_occupancy
  _atom_site_fract_x
  _atom_site_fract_y
  _atom_site_fract_z
  _atom_site_thermal_displace_type
  _atom_site_B_iso_or_equiv
  _atom_site_type_symbol
  C1       1.0000 0.49650  0.15940  0.66200  Biso   1.000  C
  N1       1.0000 0.49440  0.25910  0.75220  Biso   1.000  N
  C2       1.0000 0.99650  0.65940  0.66200  Biso   1.000  C
  N2       1.0000 0.99440  0.75910  0.75220  Biso   1.000  N
  C3       1.0000 0.50350  0.15940  0.33800  Biso   1.000  C
  N3       1.0000 0.50560  0.25910  0.24780  Biso   1.000  N
  C4       1.0000 0.00350  0.65940  0.33800  Biso   1.000  C
  N4       1.0000 0.00560  0.75910  0.24780  Biso   1.000  N
  C5       1.0000 0.50350  0.84060  0.33800  Biso   1.000  C
  N5       1.0000 0.50560  0.74090  0.24780  Biso   1.000  N
  C6       1.0000 0.00350  0.34060  0.33800  Biso   1.000  C
  N6       1.0000 0.00560  0.24090  0.24780  Biso   1.000  N
  C7       1.0000 0.49650  0.84060  0.66200  Biso   1.000  C
  N7       1.0000 0.49440  0.74090  0.75220  Biso   1.000  N
  C8       1.0000 0.99650  0.34060  0.66200  Biso   1.000  C
  N8       1.0000 0.99440  0.24090  0.75220  Biso   1.000  N
  Fe1      1.0000 0.50000  0.00000  0.50000  Biso   1.000  Fe
  Fe2      1.0000 0.00000  0.50000  0.50000  Biso   1.000  Fe
  K1       1.0000 0.00000  0.00000  0.00000  Biso   1.000  K
  K2       1.0000 0.50000  0.50000  0.00000  Biso   1.000  K
  N9       1.0000 0.76010  0.00000  0.75610  Biso   1.000  N
  C9       1.0000 0.66300  0.00000  0.65780  Biso   1.000  C
  N10      1.0000 0.26010  0.50000  0.75610  Biso   1.000  N
  C10      1.0000 0.16300  0.50000  0.65780  Biso   1.000  C
  N11      1.0000 0.23990  0.00000  0.24390  Biso   1.000  N
  C11      1.0000 0.33700  0.00000  0.34220  Biso   1.000  C
  N12      1.0000 0.73990  0.50000  0.24390  Biso   1.000  N
  C12      1.0000 0.83700  0.50000  0.34220  Biso   1.000  C
