data_image0
_cell_length_a       10.0144
_cell_length_b       10.126
_cell_length_c       20.4363
_cell_angle_alpha    90
_cell_angle_beta     90
_cell_angle_gamma    90

_symmetry_space_group_name_H-M    "P 1"
_symmetry_int_tables_number       1

loop_
  _symmetry_equiv_pos_as_xyz
  'x, y, z'

loop_
  _atom_site_label
  _atom_site_occupancy
  _atom_site_fract_x
  _atom_site_fract_y
  _atom_site_fract_z
  _atom_site_thermal_displace_type
  _atom_site_B_iso_or_equiv
  _atom_site_type_symbol
  C1       1.0000 0.67180  0.02590  0.13500  Biso   1.000  C
  H1       1.0000 0.63410  0.09100  0.10400  Biso   1.000  H
  H2       1.0000 0.59650  0.98320  0.15820  Biso   1.000  H
  Ag1      1.0000 0.00538  0.23204  0.27250  Biso   1.000  Ag
  Ag2      1.0000 0.50964  0.23417  0.52165  Biso   1.000  Ag
  N1       1.0000 0.58830  0.38290  0.44730  Biso   1.000  N
  C2       1.0000 0.73100  0.54600  0.38030  Biso   1.000  C
  H3       1.0000 0.76700  0.61540  0.40940  Biso   1.000  H
  H4       1.0000 0.67500  0.58880  0.34640  Biso   1.000  H
  C3       1.0000 0.65300  0.45480  0.41710  Biso   1.000  C
  N2       1.0000 0.11230  0.06490  0.32030  Biso   1.000  N
  N3       1.0000 0.42000  0.06900  0.45980  Biso   1.000  N
  C4       1.0000 0.84360  0.47190  0.34840  Biso   1.000  C
  C5       1.0000 0.29080  0.45710  0.11720  Biso   1.000  C
  H5       1.0000 0.36890  0.48930  0.14220  Biso   1.000  H
  H6       1.0000 0.32350  0.40330  0.08000  Biso   1.000  H
  C6       1.0000 0.74570  0.92640  0.09870  Biso   1.000  C
  C7       1.0000 0.29350  0.91860  0.37600  Biso   1.000  C
  H7       1.0000 0.25160  0.84160  0.39770  Biso   1.000  H
  H8       1.0000 0.35740  0.88580  0.34270  Biso   1.000  H
  C8       1.0000 0.20350  0.37620  0.15990  Biso   1.000  C
  C9       1.0000 0.36300  0.00020  0.42420  Biso   1.000  C
  C10      1.0000 0.19070  0.00090  0.34470  Biso   1.000  C
  C11      1.0000 0.75410  0.09370  0.18180  Biso   1.000  C
  C12      1.0000 0.21210  0.56970  0.09280  Biso   1.000  C
  N4       1.0000 0.13840  0.31240  0.19030  Biso   1.000  N
  N5       1.0000 0.92390  0.41050  0.32500  Biso   1.000  N
  N6       1.0000 0.82120  0.14740  0.21700  Biso   1.000  N
  N7       1.0000 0.80960  0.85100  0.07230  Biso   1.000  N
  N8       1.0000 0.15500  0.65850  0.07440  Biso   1.000  N
  C13      1.0000 0.82820  0.97410  0.63500  Biso   1.000  C
  H9       1.0000 0.86590  0.90900  0.60400  Biso   1.000  H
  H10      1.0000 0.90350  0.01680  0.65820  Biso   1.000  H
  Ag3      1.0000 0.49462  0.76796  0.77250  Biso   1.000  Ag
  Ag4      1.0000 0.99036  0.76583  0.02165  Biso   1.000  Ag
  N9       1.0000 0.91170  0.61710  0.94730  Biso   1.000  N
  C14      1.0000 0.76900  0.45400  0.88030  Biso   1.000  C
  H11      1.0000 0.73300  0.38460  0.90940  Biso   1.000  H
  H12      1.0000 0.82500  0.41120  0.84640  Biso   1.000  H
  C15      1.0000 0.84700  0.54520  0.91710  Biso   1.000  C
  N10      1.0000 0.38770  0.93510  0.82030  Biso   1.000  N
  N11      1.0000 0.08000  0.93100  0.95980  Biso   1.000  N
  C16      1.0000 0.65640  0.52810  0.84840  Biso   1.000  C
  C17      1.0000 0.20920  0.54290  0.61720  Biso   1.000  C
  H13      1.0000 0.13110  0.51070  0.64220  Biso   1.000  H
  H14      1.0000 0.17650  0.59670  0.58000  Biso   1.000  H
  C18      1.0000 0.75430  0.07360  0.59870  Biso   1.000  C
  C19      1.0000 0.20650  0.08140  0.87600  Biso   1.000  C
  H15      1.0000 0.24840  0.15840  0.89770  Biso   1.000  H
  H16      1.0000 0.14260  0.11420  0.84270  Biso   1.000  H
  C20      1.0000 0.29650  0.62380  0.65990  Biso   1.000  C
  C21      1.0000 0.13700  0.99980  0.92420  Biso   1.000  C
  C22      1.0000 0.30930  0.99910  0.84470  Biso   1.000  C
  C23      1.0000 0.74590  0.90630  0.68180  Biso   1.000  C
  C24      1.0000 0.28790  0.43030  0.59280  Biso   1.000  C
  N12      1.0000 0.36160  0.68760  0.69030  Biso   1.000  N
  N13      1.0000 0.57610  0.58950  0.82500  Biso   1.000  N
  N14      1.0000 0.67880  0.85260  0.71700  Biso   1.000  N
  N15      1.0000 0.69040  0.14900  0.57230  Biso   1.000  N
  N16      1.0000 0.34500  0.34150  0.57440  Biso   1.000  N
  C25      1.0000 0.32820  0.52590  0.36500  Biso   1.000  C
  H17      1.0000 0.36590  0.59100  0.39600  Biso   1.000  H
  H18      1.0000 0.40350  0.48320  0.34180  Biso   1.000  H
  Ag5      1.0000 0.99462  0.73204  0.22750  Biso   1.000  Ag
  Ag6      1.0000 0.49036  0.73417  0.97835  Biso   1.000  Ag
  N17      1.0000 0.41170  0.88290  0.05270  Biso   1.000  N
  C26      1.0000 0.26900  0.04600  0.11970  Biso   1.000  C
  H19      1.0000 0.23300  0.11540  0.09060  Biso   1.000  H
  H20      1.0000 0.32500  0.08880  0.15360  Biso   1.000  H
  C27      1.0000 0.34700  0.95480  0.08290  Biso   1.000  C
  N18      1.0000 0.88770  0.56490  0.17970  Biso   1.000  N
  N19      1.0000 0.58000  0.56900  0.04020  Biso   1.000  N
  C28      1.0000 0.15640  0.97190  0.15160  Biso   1.000  C
  C29      1.0000 0.70920  0.95710  0.38280  Biso   1.000  C
  H21      1.0000 0.63110  0.98930  0.35780  Biso   1.000  H
  H22      1.0000 0.67650  0.90330  0.42000  Biso   1.000  H
  C30      1.0000 0.25430  0.42640  0.40130  Biso   1.000  C
  C31      1.0000 0.70650  0.41860  0.12400  Biso   1.000  C
  H23      1.0000 0.74840  0.34160  0.10230  Biso   1.000  H
  H24      1.0000 0.64260  0.38580  0.15730  Biso   1.000  H
  C32      1.0000 0.79650  0.87620  0.34010  Biso   1.000  C
  C33      1.0000 0.63700  0.50020  0.07580  Biso   1.000  C
  C34      1.0000 0.80930  0.50090  0.15530  Biso   1.000  C
  C35      1.0000 0.24590  0.59370  0.31820  Biso   1.000  C
  C36      1.0000 0.78790  0.06970  0.40720  Biso   1.000  C
  N20      1.0000 0.86160  0.81240  0.30970  Biso   1.000  N
  N21      1.0000 0.07610  0.91050  0.17500  Biso   1.000  N
  N22      1.0000 0.17880  0.64740  0.28300  Biso   1.000  N
  N23      1.0000 0.19040  0.35100  0.42770  Biso   1.000  N
  N24      1.0000 0.84500  0.15850  0.42560  Biso   1.000  N
  C37      1.0000 0.17180  0.47410  0.86500  Biso   1.000  C
  H25      1.0000 0.13410  0.40900  0.89600  Biso   1.000  H
  H26      1.0000 0.09650  0.51680  0.84180  Biso   1.000  H
  Ag7      1.0000 0.50538  0.26796  0.72750  Biso   1.000  Ag
  Ag8      1.0000 0.00964  0.26583  0.47835  Biso   1.000  Ag
  N25      1.0000 0.08830  0.11710  0.55270  Biso   1.000  N
  C38      1.0000 0.23100  0.95400  0.61970  Biso   1.000  C
  H27      1.0000 0.26700  0.88460  0.59060  Biso   1.000  H
  H28      1.0000 0.17500  0.91120  0.65360  Biso   1.000  H
  C39      1.0000 0.15300  0.04520  0.58290  Biso   1.000  C
  N26      1.0000 0.61230  0.43510  0.67970  Biso   1.000  N
  N27      1.0000 0.92000  0.43100  0.54020  Biso   1.000  N
  C40      1.0000 0.34360  0.02810  0.65160  Biso   1.000  C
  C41      1.0000 0.79080  0.04290  0.88280  Biso   1.000  C
  H29      1.0000 0.86890  0.01070  0.85780  Biso   1.000  H
  H30      1.0000 0.82350  0.09670  0.92000  Biso   1.000  H
  C42      1.0000 0.24570  0.57360  0.90130  Biso   1.000  C
  C43      1.0000 0.79350  0.58140  0.62400  Biso   1.000  C
  H31      1.0000 0.75160  0.65840  0.60230  Biso   1.000  H
  H32      1.0000 0.85740  0.61420  0.65730  Biso   1.000  H
  C44      1.0000 0.70350  0.12380  0.84010  Biso   1.000  C
  C45      1.0000 0.86300  0.49980  0.57580  Biso   1.000  C
  C46      1.0000 0.69070  0.49910  0.65530  Biso   1.000  C
  C47      1.0000 0.25410  0.40630  0.81820  Biso   1.000  C
  C48      1.0000 0.71210  0.93030  0.90720  Biso   1.000  C
  N28      1.0000 0.63840  0.18760  0.80970  Biso   1.000  N
  N29      1.0000 0.42390  0.08950  0.67500  Biso   1.000  N
  N30      1.0000 0.32120  0.35260  0.78300  Biso   1.000  N
  N31      1.0000 0.30960  0.64900  0.92770  Biso   1.000  N
  N32      1.0000 0.65500  0.84150  0.92560  Biso   1.000  N
