data_image0
_cell_length_a       21.6212
_cell_length_b       22.5502
_cell_length_c       26.2154
_cell_angle_alpha    115.474
_cell_angle_beta     114.354
_cell_angle_gamma    90

_symmetry_space_group_name_H-M    P 1
_symmetry_int_tables_number       1

loop_
  _symmetry_equiv_pos_as_xyz
  'x, y, z'

loop_
  _atom_site_label
  _atom_site_occupancy
  _atom_site_fract_x
  _atom_site_fract_y
  _atom_site_fract_z
  _atom_site_thermal_displace_type
  _atom_site_B_iso_or_equiv
  _atom_site_type_symbol
  Zn1      1.0000 0.81288  0.75565  0.39018  Biso   1.000  Zn
  Zn2      1.0000 0.86578  0.69057  0.60536  Biso   1.000  Zn
  Zn3      1.0000 0.94823  0.64059  0.10040  Biso   1.000  Zn
  Zn4      1.0000 0.57730  0.63453  0.39018  Biso   1.000  Zn
  Zn5      1.0000 0.73958  0.91479  0.60536  Biso   1.000  Zn
  Zn6      1.0000 0.15217  0.45981  0.10040  Biso   1.000  Zn
  Zn7      1.0000 0.18712  0.36547  0.60982  Biso   1.000  Zn
  Zn8      1.0000 0.13422  0.08521  0.39464  Biso   1.000  Zn
  Zn9      1.0000 0.05177  0.54019  0.89960  Biso   1.000  Zn
  Zn10     1.0000 0.42270  0.24435  0.60982  Biso   1.000  Zn
  Zn11     1.0000 0.26042  0.30943  0.39464  Biso   1.000  Zn
  Zn12     1.0000 0.84783  0.35941  0.89960  Biso   1.000  Zn
  Mo1      1.0000 0.70238  0.60528  0.33466  Biso   1.000  Mo
  Mo2      1.0000 0.72242  0.56724  0.45324  Biso   1.000  Mo
  Mo3      1.0000 0.86866  0.64468  0.45442  Biso   1.000  Mo
  Mo4      1.0000 0.93708  0.76687  0.54218  Biso   1.000  Mo
  Mo5      1.0000 0.89528  0.86386  0.66072  Biso   1.000  Mo
  Mo6      1.0000 0.68486  0.63526  0.54132  Biso   1.000  Mo
  Mo7      1.0000 0.12695  0.62500  0.16312  Biso   1.000  Mo
  Mo8      1.0000 0.06740  0.67541  0.04628  Biso   1.000  Mo
  Mo9      1.0000 0.86844  0.47618  0.05110  Biso   1.000  Mo
  Mo10     1.0000 0.63228  0.72938  0.33466  Biso   1.000  Mo
  Mo11     1.0000 0.73082  0.88600  0.45324  Biso   1.000  Mo
  Mo12     1.0000 0.58576  0.80974  0.45442  Biso   1.000  Mo
  Mo13     1.0000 0.60510  0.77531  0.54218  Biso   1.000  Mo
  Mo14     1.0000 0.76544  0.79686  0.66072  Biso   1.000  Mo
  Mo15     1.0000 0.85646  0.90606  0.54132  Biso   1.000  Mo
  Mo16     1.0000 0.03617  0.53812  0.16312  Biso   1.000  Mo
  Mo17     1.0000 0.97888  0.37087  0.04628  Biso   1.000  Mo
  Mo18     1.0000 0.18266  0.57492  0.05110  Biso   1.000  Mo
  Mo19     1.0000 0.29762  0.27062  0.66534  Biso   1.000  Mo
  Mo20     1.0000 0.27758  0.11400  0.54676  Biso   1.000  Mo
  Mo21     1.0000 0.13134  0.19026  0.54558  Biso   1.000  Mo
  Mo22     1.0000 0.06292  0.22469  0.45782  Biso   1.000  Mo
  Mo23     1.0000 0.10472  0.20314  0.33928  Biso   1.000  Mo
  Mo24     1.0000 0.31514  0.09394  0.45868  Biso   1.000  Mo
  Mo25     1.0000 0.87305  0.46188  0.83688  Biso   1.000  Mo
  Mo26     1.0000 0.93260  0.62913  0.95372  Biso   1.000  Mo
  Mo27     1.0000 0.13156  0.42508  0.94890  Biso   1.000  Mo
  Mo28     1.0000 0.36772  0.39472  0.66534  Biso   1.000  Mo
  Mo29     1.0000 0.26918  0.43276  0.54676  Biso   1.000  Mo
  Mo30     1.0000 0.41424  0.35532  0.54558  Biso   1.000  Mo
  Mo31     1.0000 0.39490  0.23313  0.45782  Biso   1.000  Mo
  Mo32     1.0000 0.23456  0.13614  0.33928  Biso   1.000  Mo
  Mo33     1.0000 0.14354  0.36474  0.45868  Biso   1.000  Mo
  Mo34     1.0000 0.96383  0.37500  0.83688  Biso   1.000  Mo
  Mo35     1.0000 0.02112  0.32459  0.95372  Biso   1.000  Mo
  Mo36     1.0000 0.81734  0.52382  0.94890  Biso   1.000  Mo
  H1       1.0000 0.01060  0.91990  0.42360  Biso   1.000  H
  H2       1.0000 0.03720  0.86870  0.27420  Biso   1.000  H
  H3       1.0000 0.91400  0.73700  0.26620  Biso   1.000  H
  H4       1.0000 0.41300  0.50370  0.42360  Biso   1.000  H
  H5       1.0000 0.23700  0.40550  0.27420  Biso   1.000  H
  H6       1.0000 0.35220  0.52920  0.26620  Biso   1.000  H
  H7       1.0000 0.98940  0.49630  0.57640  Biso   1.000  H
  H8       1.0000 0.96280  0.59450  0.72580  Biso   1.000  H
  H9       1.0000 0.08600  0.47080  0.73380  Biso   1.000  H
  H10      1.0000 0.58700  0.08010  0.57640  Biso   1.000  H
  H11      1.0000 0.76300  0.13130  0.72580  Biso   1.000  H
  H12      1.0000 0.64780  0.26300  0.73380  Biso   1.000  H
  C1       1.0000 0.95050  0.82820  0.34720  Biso   1.000  C
  C2       1.0000 0.99700  0.89110  0.38080  Biso   1.000  C
  C3       1.0000 0.02021  0.90651  0.34722  Biso   1.000  C
  C4       1.0000 0.00980  0.85910  0.29040  Biso   1.000  C
  C5       1.0000 0.96470  0.79850  0.25320  Biso   1.000  C
  C6       1.0000 0.93910  0.78060  0.28500  Biso   1.000  C
  C7       1.0000 0.91448  0.81138  0.37816  Biso   1.000  C
  C8       1.0000 0.06540  0.97660  0.38220  Biso   1.000  C
  C9       1.0000 0.96360  0.75170  0.19540  Biso   1.000  C
  C10      1.0000 0.39670  0.51900  0.34720  Biso   1.000  C
  C11      1.0000 0.38380  0.48970  0.38080  Biso   1.000  C
  C12      1.0000 0.32701  0.44071  0.34722  Biso   1.000  C
  C13      1.0000 0.28060  0.43130  0.29040  Biso   1.000  C
  C14      1.0000 0.28850  0.45470  0.25320  Biso   1.000  C
  C15      1.0000 0.34590  0.50440  0.28500  Biso   1.000  C
  C16      1.0000 0.46368  0.56678  0.37816  Biso   1.000  C
  C17      1.0000 0.31680  0.40560  0.38220  Biso   1.000  C
  C18      1.0000 0.23180  0.44370  0.19540  Biso   1.000  C
  C19      1.0000 0.04950  0.48100  0.65280  Biso   1.000  C
  C20      1.0000 0.00300  0.51030  0.61920  Biso   1.000  C
  C21      1.0000 0.97979  0.55929  0.65278  Biso   1.000  C
  C22      1.0000 0.99020  0.56870  0.70960  Biso   1.000  C
  C23      1.0000 0.03530  0.54530  0.74680  Biso   1.000  C
  C24      1.0000 0.06090  0.49560  0.71500  Biso   1.000  C
  C25      1.0000 0.08552  0.43322  0.62184  Biso   1.000  C
  C26      1.0000 0.93460  0.59440  0.61780  Biso   1.000  C
  C27      1.0000 0.03640  0.55630  0.80460  Biso   1.000  C
  C28      1.0000 0.60330  0.17180  0.65280  Biso   1.000  C
  C29      1.0000 0.61620  0.10890  0.61920  Biso   1.000  C
  C30      1.0000 0.67299  0.09349  0.65278  Biso   1.000  C
  C31      1.0000 0.71940  0.14090  0.70960  Biso   1.000  C
  C32      1.0000 0.71150  0.20150  0.74680  Biso   1.000  C
  C33      1.0000 0.65410  0.21940  0.71500  Biso   1.000  C
  C34      1.0000 0.53632  0.18862  0.62184  Biso   1.000  C
  C35      1.0000 0.68320  0.02340  0.61780  Biso   1.000  C
  C36      1.0000 0.76820  0.24830  0.80460  Biso   1.000  C
  O1       1.0000 0.66841  0.55311  0.25322  Biso   1.000  O
  O2       1.0000 0.79696  0.60726  0.36312  Biso   1.000  O
  O3       1.0000 0.68344  0.54854  0.36228  Biso   1.000  O
  O4       1.0000 0.72485  0.69405  0.34250  Biso   1.000  O
  O5       1.0000 0.70636  0.48906  0.44092  Biso   1.000  O
  O6       1.0000 0.63851  0.60231  0.44942  Biso   1.000  O
  O7       1.0000 0.77304  0.62497  0.54388  Biso   1.000  O
  O8       1.0000 0.81977  0.56687  0.45694  Biso   1.000  O
  O9       1.0000 0.93911  0.61341  0.44282  Biso   1.000  O
  O10      1.0000 0.87951  0.72949  0.45102  Biso   1.000  O
  O11      1.0000 0.90147  0.69197  0.54854  Biso   1.000  O
  O12      1.0000 0.02170  0.76260  0.55480  Biso   1.000  O
  O13      1.0000 0.95653  0.81583  0.63226  Biso   1.000  O
  O14      1.0000 0.93689  0.85909  0.53778  Biso   1.000  O
  O15      1.0000 0.94733  0.91273  0.74246  Biso   1.000  O
  O16      1.0000 0.73614  0.70544  0.62988  Biso   1.000  O
  O17      1.0000 0.85504  0.77814  0.65248  Biso   1.000  O
  O18      1.0000 0.65769  0.57279  0.55138  Biso   1.000  O
  O19      1.0000 0.85670  0.76620  0.34060  Biso   1.000  O
  O20      1.0000 0.07339  0.99699  0.34738  Biso   1.000  O
  O21      1.0000 0.17613  0.67413  0.23766  Biso   1.000  O
  O22      1.0000 0.03427  0.61197  0.14654  Biso   1.000  O
  O23      1.0000 0.11140  0.69570  0.13580  Biso   1.000  O
  O24      1.0000 0.20167  0.60637  0.13614  Biso   1.000  O
  O25      1.0000 0.08546  0.74946  0.05772  Biso   1.000  O
  O26      1.0000 0.97915  0.65825  0.04610  Biso   1.000  O
  O27      1.0000 0.78890  0.47010  0.05380  Biso   1.000  O
  O28      1.0000 0.87253  0.55973  0.04166  Biso   1.000  O
  O29      1.0000 0.91550  0.69540  0.16400  Biso   1.000  O
  O30      1.0000 0.00800  0.75310  0.17740  Biso   1.000  O
  O31      1.0000 0.16193  0.65373  0.04946  Biso   1.000  O
  O32      1.0000 0.93524  0.84334  0.43028  Biso   1.000  O
  O33      1.0000 0.08855  0.00645  0.43570  Biso   1.000  O
  O34      1.0000 0.58481  0.70011  0.25322  Biso   1.000  O
  O35      1.0000 0.56616  0.75586  0.36312  Biso   1.000  O
  O36      1.0000 0.67884  0.81374  0.36228  Biso   1.000  O
  O37      1.0000 0.61765  0.64845  0.34250  Biso   1.000  O
  O38      1.0000 0.73456  0.95186  0.44092  Biso   1.000  O
  O39      1.0000 0.81091  0.84711  0.44942  Biso   1.000  O
  O40      1.0000 0.77084  0.91891  0.54388  Biso   1.000  O
  O41      1.0000 0.63717  0.89007  0.45694  Biso   1.000  O
  O42      1.0000 0.50371  0.82941  0.44282  Biso   1.000  O
  O43      1.0000 0.57151  0.72153  0.45102  Biso   1.000  O
  O44      1.0000 0.64707  0.85657  0.54854  Biso   1.000  O
  O45      1.0000 0.53310  0.79220  0.55480  Biso   1.000  O
  O46      1.0000 0.67573  0.81643  0.63226  Biso   1.000  O
  O47      1.0000 0.60089  0.67869  0.53778  Biso   1.000  O
  O48      1.0000 0.79513  0.82973  0.74246  Biso   1.000  O
  O49      1.0000 0.89374  0.92444  0.62988  Biso   1.000  O
  O50      1.0000 0.79744  0.87434  0.65248  Biso   1.000  O
  O51      1.0000 0.89369  0.97859  0.55138  Biso   1.000  O
  O52      1.0000 0.48390  0.57440  0.34060  Biso   1.000  O
  O53      1.0000 0.27399  0.35039  0.34738  Biso   1.000  O
  O54      1.0000 0.06153  0.56353  0.23766  Biso   1.000  O
  O55      1.0000 0.11227  0.53457  0.14654  Biso   1.000  O
  O56      1.0000 0.02440  0.44010  0.13580  Biso   1.000  O
  O57      1.0000 0.93447  0.52977  0.13614  Biso   1.000  O
  O58      1.0000 0.97226  0.30826  0.05772  Biso   1.000  O
  O59      1.0000 0.06695  0.38785  0.04610  Biso   1.000  O
  O60      1.0000 0.26490  0.58370  0.05380  Biso   1.000  O
  O61      1.0000 0.16913  0.48193  0.04166  Biso   1.000  O
  O62      1.0000 0.24850  0.46860  0.16400  Biso   1.000  O
  O63      1.0000 0.16940  0.42430  0.17740  Biso   1.000  O
  O64      1.0000 0.88753  0.39573  0.04946  Biso   1.000  O
  O65      1.0000 0.49504  0.58694  0.43028  Biso   1.000  O
  O66      1.0000 0.34715  0.42925  0.43570  Biso   1.000  O
  O67      1.0000 0.33159  0.29989  0.74678  Biso   1.000  O
  O68      1.0000 0.20304  0.24414  0.63688  Biso   1.000  O
  O69      1.0000 0.31656  0.18626  0.63772  Biso   1.000  O
  O70      1.0000 0.27515  0.35155  0.65750  Biso   1.000  O
  O71      1.0000 0.29364  0.04814  0.55908  Biso   1.000  O
  O72      1.0000 0.36149  0.15289  0.55058  Biso   1.000  O
  O73      1.0000 0.22696  0.08109  0.45612  Biso   1.000  O
  O74      1.0000 0.18023  0.10993  0.54306  Biso   1.000  O
  O75      1.0000 0.06089  0.17059  0.55718  Biso   1.000  O
  O76      1.0000 0.12049  0.27847  0.54898  Biso   1.000  O
  O77      1.0000 0.09853  0.14343  0.45146  Biso   1.000  O
  O78      1.0000 0.97830  0.20780  0.44520  Biso   1.000  O
  O79      1.0000 0.04347  0.18357  0.36774  Biso   1.000  O
  O80      1.0000 0.06311  0.32131  0.46222  Biso   1.000  O
  O81      1.0000 0.05267  0.17027  0.25754  Biso   1.000  O
  O82      1.0000 0.26386  0.07556  0.37012  Biso   1.000  O
  O83      1.0000 0.14496  0.12566  0.34752  Biso   1.000  O
  O84      1.0000 0.34231  0.02141  0.44862  Biso   1.000  O
  O85      1.0000 0.14330  0.42560  0.65940  Biso   1.000  O
  O86      1.0000 0.92661  0.64961  0.65262  Biso   1.000  O
  O87      1.0000 0.82387  0.43647  0.76234  Biso   1.000  O
  O88      1.0000 0.96573  0.46543  0.85346  Biso   1.000  O
  O89      1.0000 0.88860  0.55990  0.86420  Biso   1.000  O
  O90      1.0000 0.79833  0.47023  0.86386  Biso   1.000  O
  O91      1.0000 0.91454  0.69174  0.94228  Biso   1.000  O
  O92      1.0000 0.02085  0.61215  0.95390  Biso   1.000  O
  O93      1.0000 0.21110  0.41630  0.94620  Biso   1.000  O
  O94      1.0000 0.12747  0.51807  0.95834  Biso   1.000  O
  O95      1.0000 0.08450  0.53140  0.83600  Biso   1.000  O
  O96      1.0000 0.99200  0.57570  0.82260  Biso   1.000  O
  O97      1.0000 0.83807  0.60427  0.95054  Biso   1.000  O
  O98      1.0000 0.06476  0.41306  0.56972  Biso   1.000  O
  O99      1.0000 0.91145  0.57075  0.56430  Biso   1.000  O
  O100     1.0000 0.41519  0.44689  0.74678  Biso   1.000  O
  O101     1.0000 0.43384  0.39274  0.63688  Biso   1.000  O
  O102     1.0000 0.32116  0.45146  0.63772  Biso   1.000  O
  O103     1.0000 0.38235  0.30595  0.65750  Biso   1.000  O
  O104     1.0000 0.26544  0.51094  0.55908  Biso   1.000  O
  O105     1.0000 0.18909  0.39769  0.55058  Biso   1.000  O
  O106     1.0000 0.22916  0.37503  0.45612  Biso   1.000  O
  O107     1.0000 0.36283  0.43313  0.54306  Biso   1.000  O
  O108     1.0000 0.49629  0.38659  0.55718  Biso   1.000  O
  O109     1.0000 0.42849  0.27051  0.54898  Biso   1.000  O
  O110     1.0000 0.35293  0.30803  0.45146  Biso   1.000  O
  O111     1.0000 0.46690  0.23740  0.44520  Biso   1.000  O
  O112     1.0000 0.32427  0.18417  0.36774  Biso   1.000  O
  O113     1.0000 0.39911  0.14091  0.46222  Biso   1.000  O
  O114     1.0000 0.20487  0.08727  0.25754  Biso   1.000  O
  O115     1.0000 0.10626  0.29456  0.37012  Biso   1.000  O
  O116     1.0000 0.20256  0.22186  0.34752  Biso   1.000  O
  O117     1.0000 0.10631  0.42721  0.44862  Biso   1.000  O
  O118     1.0000 0.51610  0.23380  0.65940  Biso   1.000  O
  O119     1.0000 0.72601  0.00301  0.65262  Biso   1.000  O
  O120     1.0000 0.93847  0.32587  0.76234  Biso   1.000  O
  O121     1.0000 0.88773  0.38803  0.85346  Biso   1.000  O
  O122     1.0000 0.97560  0.30430  0.86420  Biso   1.000  O
  O123     1.0000 0.06553  0.39363  0.86386  Biso   1.000  O
  O124     1.0000 0.02774  0.25054  0.94228  Biso   1.000  O
  O125     1.0000 0.93305  0.34175  0.95390  Biso   1.000  O
  O126     1.0000 0.73510  0.52990  0.94620  Biso   1.000  O
  O127     1.0000 0.83087  0.44027  0.95834  Biso   1.000  O
  O128     1.0000 0.75150  0.30460  0.83600  Biso   1.000  O
  O129     1.0000 0.83060  0.24690  0.82260  Biso   1.000  O
  O130     1.0000 0.11247  0.34627  0.95054  Biso   1.000  O
  O131     1.0000 0.50496  0.15666  0.56972  Biso   1.000  O
  O132     1.0000 0.65285  0.99355  0.56430  Biso   1.000  O
