data_image0
_cell_length_a       15.298
_cell_length_b       15.298
_cell_length_c       15.6131
_cell_angle_alpha    119.335
_cell_angle_beta     119.335
_cell_angle_gamma    90

_symmetry_space_group_name_H-M    P 1
_symmetry_int_tables_number       1

loop_
  _symmetry_equiv_pos_as_xyz
  'x, y, z'

loop_
  _atom_site_label
  _atom_site_occupancy
  _atom_site_fract_x
  _atom_site_fract_y
  _atom_site_fract_z
  _atom_site_thermal_displace_type
  _atom_site_B_iso_or_equiv
  _atom_site_type_symbol
  Cu1      1.0000 0.42563  0.48407  0.88834  Biso   1.000  Cu
  Cu2      1.0000 0.96271  0.40427  0.88834  Biso   1.000  Cu
  Cu3      1.0000 0.98407  0.46271  0.38834  Biso   1.000  Cu
  Cu4      1.0000 0.90427  0.92563  0.38834  Biso   1.000  Cu
  Cu5      1.0000 0.57437  0.51593  0.11166  Biso   1.000  Cu
  Cu6      1.0000 0.03729  0.59573  0.11166  Biso   1.000  Cu
  Cu7      1.0000 0.01593  0.53729  0.61166  Biso   1.000  Cu
  Cu8      1.0000 0.09573  0.07437  0.61166  Biso   1.000  Cu
  H1       1.0000 0.45700  0.63190  0.81540  Biso   1.000  H
  H2       1.0000 0.79480  0.93420  0.17200  Biso   1.000  H
  H3       1.0000 0.72860  0.92100  0.05540  Biso   1.000  H
  H4       1.0000 0.77350  0.71740  0.30100  Biso   1.000  H
  H5       1.0000 0.60520  0.28580  0.76840  Biso   1.000  H
  H6       1.0000 0.71100  0.34740  0.89500  Biso   1.000  H
  H7       1.0000 0.63110  0.24860  0.85320  Biso   1.000  H
  H8       1.0000 0.85840  0.18350  0.81540  Biso   1.000  H
  H9       1.0000 0.87720  0.23780  0.17200  Biso   1.000  H
  H10      1.0000 0.82680  0.13440  0.05540  Biso   1.000  H
  H11      1.0000 0.02750  0.58360  0.30100  Biso   1.000  H
  H12      1.0000 0.66320  0.48260  0.76840  Biso   1.000  H
  H13      1.0000 0.68400  0.54760  0.89500  Biso   1.000  H
  H14      1.0000 0.72210  0.60460  0.85320  Biso   1.000  H
  H15      1.0000 0.13190  0.35840  0.31540  Biso   1.000  H
  H16      1.0000 0.43420  0.37720  0.67200  Biso   1.000  H
  H17      1.0000 0.42100  0.32680  0.55540  Biso   1.000  H
  H18      1.0000 0.21740  0.52750  0.80100  Biso   1.000  H
  H19      1.0000 0.78580  0.16320  0.26840  Biso   1.000  H
  H20      1.0000 0.84740  0.18400  0.39500  Biso   1.000  H
  H21      1.0000 0.74860  0.22210  0.35320  Biso   1.000  H
  H22      1.0000 0.68350  0.95700  0.31540  Biso   1.000  H
  H23      1.0000 0.73780  0.29480  0.67200  Biso   1.000  H
  H24      1.0000 0.63440  0.22860  0.55540  Biso   1.000  H
  H25      1.0000 0.08360  0.27350  0.80100  Biso   1.000  H
  H26      1.0000 0.98260  0.10520  0.26840  Biso   1.000  H
  H27      1.0000 0.04760  0.21100  0.39500  Biso   1.000  H
  H28      1.0000 0.10460  0.13110  0.35320  Biso   1.000  H
  H29      1.0000 0.54300  0.36810  0.18460  Biso   1.000  H
  H30      1.0000 0.20520  0.06580  0.82800  Biso   1.000  H
  H31      1.0000 0.27140  0.07900  0.94460  Biso   1.000  H
  H32      1.0000 0.22650  0.28260  0.69900  Biso   1.000  H
  H33      1.0000 0.39480  0.71420  0.23160  Biso   1.000  H
  H34      1.0000 0.28900  0.65260  0.10500  Biso   1.000  H
  H35      1.0000 0.36890  0.75140  0.14680  Biso   1.000  H
  H36      1.0000 0.14160  0.81650  0.18460  Biso   1.000  H
  H37      1.0000 0.12280  0.76220  0.82800  Biso   1.000  H
  H38      1.0000 0.17320  0.86560  0.94460  Biso   1.000  H
  H39      1.0000 0.97250  0.41640  0.69900  Biso   1.000  H
  H40      1.0000 0.33680  0.51740  0.23160  Biso   1.000  H
  H41      1.0000 0.31600  0.45240  0.10500  Biso   1.000  H
  H42      1.0000 0.27790  0.39540  0.14680  Biso   1.000  H
  H43      1.0000 0.86810  0.64160  0.68460  Biso   1.000  H
  H44      1.0000 0.56580  0.62280  0.32800  Biso   1.000  H
  H45      1.0000 0.57900  0.67320  0.44460  Biso   1.000  H
  H46      1.0000 0.78260  0.47250  0.19900  Biso   1.000  H
  H47      1.0000 0.21420  0.83680  0.73160  Biso   1.000  H
  H48      1.0000 0.15260  0.81600  0.60500  Biso   1.000  H
  H49      1.0000 0.25140  0.77790  0.64680  Biso   1.000  H
  H50      1.0000 0.31650  0.04300  0.68460  Biso   1.000  H
  H51      1.0000 0.26220  0.70520  0.32800  Biso   1.000  H
  H52      1.0000 0.36560  0.77140  0.44460  Biso   1.000  H
  H53      1.0000 0.91640  0.72650  0.19900  Biso   1.000  H
  H54      1.0000 0.01740  0.89480  0.73160  Biso   1.000  H
  H55      1.0000 0.95240  0.78900  0.60500  Biso   1.000  H
  H56      1.0000 0.89540  0.86890  0.64680  Biso   1.000  H
  C1       1.0000 0.51750  0.66260  0.89140  Biso   1.000  C
  C2       1.0000 0.61560  0.66620  0.05620  Biso   1.000  C
  C3       1.0000 0.68990  0.76420  0.11600  Biso   1.000  C
  C4       1.0000 0.67600  0.80460  0.05420  Biso   1.000  C
  C5       1.0000 0.73590  0.71710  0.23260  Biso   1.000  C
  C6       1.0000 0.58300  0.38010  0.90020  Biso   1.000  C
  C7       1.0000 0.63760  0.30900  0.84960  Biso   1.000  C
  C8       1.0000 0.87390  0.22880  0.89140  Biso   1.000  C
  C9       1.0000 0.94060  0.39000  0.05620  Biso   1.000  C
  C10      1.0000 0.92610  0.35180  0.11600  Biso   1.000  C
  C11      1.0000 0.87820  0.24960  0.05420  Biso   1.000  C
  C12      1.0000 0.99670  0.51550  0.23260  Biso   1.000  C
  C13      1.0000 0.81720  0.52010  0.90020  Biso   1.000  C
  C14      1.0000 0.71200  0.54060  0.84960  Biso   1.000  C
  C15      1.0000 0.16260  0.37390  0.39140  Biso   1.000  C
  C16      1.0000 0.16620  0.44060  0.55620  Biso   1.000  C
  C17      1.0000 0.26420  0.42610  0.61600  Biso   1.000  C
  C18      1.0000 0.30460  0.37820  0.55420  Biso   1.000  C
  C19      1.0000 0.21710  0.49670  0.73260  Biso   1.000  C
  C20      1.0000 0.88010  0.31720  0.40020  Biso   1.000  C
  C21      1.0000 0.80900  0.21200  0.34960  Biso   1.000  C
  C22      1.0000 0.72880  0.01750  0.39140  Biso   1.000  C
  C23      1.0000 0.89000  0.11560  0.55620  Biso   1.000  C
  C24      1.0000 0.85180  0.18990  0.61600  Biso   1.000  C
  C25      1.0000 0.74960  0.17600  0.55420  Biso   1.000  C
  C26      1.0000 0.01550  0.23590  0.73260  Biso   1.000  C
  C27      1.0000 0.02010  0.08300  0.40020  Biso   1.000  C
  C28      1.0000 0.04060  0.13760  0.34960  Biso   1.000  C
  C29      1.0000 0.48250  0.33740  0.10860  Biso   1.000  C
  C30      1.0000 0.38440  0.33380  0.94380  Biso   1.000  C
  C31      1.0000 0.31010  0.23580  0.88400  Biso   1.000  C
  C32      1.0000 0.32400  0.19540  0.94580  Biso   1.000  C
  C33      1.0000 0.26410  0.28290  0.76740  Biso   1.000  C
  C34      1.0000 0.41700  0.61990  0.09980  Biso   1.000  C
  C35      1.0000 0.36240  0.69100  0.15040  Biso   1.000  C
  C36      1.0000 0.12610  0.77120  0.10860  Biso   1.000  C
  C37      1.0000 0.05940  0.61000  0.94380  Biso   1.000  C
  C38      1.0000 0.07390  0.64820  0.88400  Biso   1.000  C
  C39      1.0000 0.12180  0.75040  0.94580  Biso   1.000  C
  C40      1.0000 0.00330  0.48450  0.76740  Biso   1.000  C
  C41      1.0000 0.18280  0.47990  0.09980  Biso   1.000  C
  C42      1.0000 0.28800  0.45940  0.15040  Biso   1.000  C
  C43      1.0000 0.83740  0.62610  0.60860  Biso   1.000  C
  C44      1.0000 0.83380  0.55940  0.44380  Biso   1.000  C
  C45      1.0000 0.73580  0.57390  0.38400  Biso   1.000  C
  C46      1.0000 0.69540  0.62180  0.44580  Biso   1.000  C
  C47      1.0000 0.78290  0.50330  0.26740  Biso   1.000  C
  C48      1.0000 0.11990  0.68280  0.59980  Biso   1.000  C
  C49      1.0000 0.19100  0.78800  0.65040  Biso   1.000  C
  C50      1.0000 0.27120  0.98250  0.60860  Biso   1.000  C
  C51      1.0000 0.11000  0.88440  0.44380  Biso   1.000  C
  C52      1.0000 0.14820  0.81010  0.38400  Biso   1.000  C
  C53      1.0000 0.25040  0.82400  0.44580  Biso   1.000  C
  C54      1.0000 0.98450  0.76410  0.26740  Biso   1.000  C
  C55      1.0000 0.97990  0.91700  0.59980  Biso   1.000  C
  C56      1.0000 0.95940  0.86240  0.65040  Biso   1.000  C
  N1       1.0000 0.58400  0.74930  0.93420  Biso   1.000  N
  N2       1.0000 0.52680  0.61330  0.94440  Biso   1.000  N
  N3       1.0000 0.74110  0.89810  0.09940  Biso   1.000  N
  N4       1.0000 0.76640  0.79460  0.22680  Biso   1.000  N
  N5       1.0000 0.64740  0.63870  0.13320  Biso   1.000  N
  N6       1.0000 0.85020  0.18490  0.93420  Biso   1.000  N
  N7       1.0000 0.91760  0.33110  0.94440  Biso   1.000  N
  N8       1.0000 0.85830  0.20130  0.09940  Biso   1.000  N
  N9       1.0000 0.96040  0.43220  0.22680  Biso   1.000  N
  N10      1.0000 0.98580  0.49450  0.13320  Biso   1.000  N
  N11      1.0000 0.24930  0.35020  0.43420  Biso   1.000  N
  N12      1.0000 0.11330  0.41760  0.44440  Biso   1.000  N
  N13      1.0000 0.39810  0.35830  0.59940  Biso   1.000  N
  N14      1.0000 0.29460  0.46040  0.72680  Biso   1.000  N
  N15      1.0000 0.13870  0.48580  0.63320  Biso   1.000  N
  N16      1.0000 0.68490  0.08400  0.43420  Biso   1.000  N
  N17      1.0000 0.83110  0.02680  0.44440  Biso   1.000  N
  N18      1.0000 0.70130  0.24110  0.59940  Biso   1.000  N
  N19      1.0000 0.93220  0.26640  0.72680  Biso   1.000  N
  N20      1.0000 0.99450  0.14740  0.63320  Biso   1.000  N
  N21      1.0000 0.41600  0.25070  0.06580  Biso   1.000  N
  N22      1.0000 0.47320  0.38670  0.05560  Biso   1.000  N
  N23      1.0000 0.25890  0.10190  0.90060  Biso   1.000  N
  N24      1.0000 0.23360  0.20540  0.77320  Biso   1.000  N
  N25      1.0000 0.35260  0.36130  0.86680  Biso   1.000  N
  N26      1.0000 0.14980  0.81510  0.06580  Biso   1.000  N
  N27      1.0000 0.08240  0.66890  0.05560  Biso   1.000  N
  N28      1.0000 0.14170  0.79870  0.90060  Biso   1.000  N
  N29      1.0000 0.03960  0.56780  0.77320  Biso   1.000  N
  N30      1.0000 0.01420  0.50550  0.86680  Biso   1.000  N
  N31      1.0000 0.75070  0.64980  0.56580  Biso   1.000  N
  N32      1.0000 0.88670  0.58240  0.55560  Biso   1.000  N
  N33      1.0000 0.60190  0.64170  0.40060  Biso   1.000  N
  N34      1.0000 0.70540  0.53960  0.27320  Biso   1.000  N
  N35      1.0000 0.86130  0.51420  0.36680  Biso   1.000  N
  N36      1.0000 0.31510  0.91600  0.56580  Biso   1.000  N
  N37      1.0000 0.16890  0.97320  0.55560  Biso   1.000  N
  N38      1.0000 0.29870  0.75890  0.40060  Biso   1.000  N
  N39      1.0000 0.06780  0.73360  0.27320  Biso   1.000  N
  N40      1.0000 0.00550  0.85260  0.36680  Biso   1.000  N
  O1       1.0000 0.50960  0.39970  0.83620  Biso   1.000  O
  O2       1.0000 0.62070  0.41800  0.00680  Biso   1.000  O
  O3       1.0000 0.82660  0.43650  0.83620  Biso   1.000  O
  O4       1.0000 0.88610  0.58880  0.00680  Biso   1.000  O
  O5       1.0000 0.89970  0.32660  0.33620  Biso   1.000  O
  O6       1.0000 0.91800  0.38610  0.50680  Biso   1.000  O
  O7       1.0000 0.93650  0.00960  0.33620  Biso   1.000  O
  O8       1.0000 0.08880  0.12070  0.50680  Biso   1.000  O
  O9       1.0000 0.49040  0.60030  0.16380  Biso   1.000  O
  O10      1.0000 0.37930  0.58200  0.99320  Biso   1.000  O
  O11      1.0000 0.17340  0.56350  0.16380  Biso   1.000  O
  O12      1.0000 0.11390  0.41120  0.99320  Biso   1.000  O
  O13      1.0000 0.10030  0.67340  0.66380  Biso   1.000  O
  O14      1.0000 0.08200  0.61390  0.49320  Biso   1.000  O
  O15      1.0000 0.06350  0.99040  0.66380  Biso   1.000  O
  O16      1.0000 0.91120  0.87930  0.49320  Biso   1.000  O
