data_image0
_cell_length_a       8.944
_cell_length_b       10.776
_cell_length_c       13.789
_cell_angle_alpha    68.768
_cell_angle_beta     78.142
_cell_angle_gamma    79.991

_symmetry_space_group_name_H-M    "P 1"
_symmetry_int_tables_number       1

loop_
  _symmetry_equiv_pos_as_xyz
  'x, y, z'

loop_
  _atom_site_label
  _atom_site_occupancy
  _atom_site_fract_x
  _atom_site_fract_y
  _atom_site_fract_z
  _atom_site_thermal_displace_type
  _atom_site_B_iso_or_equiv
  _atom_site_type_symbol
  Ni1      1.0000 0.31062  0.90013  0.14913  Biso   1.000  Ni
  N1       1.0000 0.90770  0.02000  0.80440  Biso   1.000  N
  N2       1.0000 0.14800  0.92830  0.81300  Biso   1.000  N
  N3       1.0000 0.36090  0.81470  0.30220  Biso   1.000  N
  N4       1.0000 0.48440  0.55530  0.83760  Biso   1.000  N
  O1       1.0000 0.26660  0.97210  0.98890  Biso   1.000  O
  H1       1.0000 0.22590  0.04880  0.95460  Biso   1.000  H
  O2       1.0000 0.58920  0.67670  0.96820  Biso   1.000  O
  O3       1.0000 0.53240  0.84030  0.07250  Biso   1.000  O
  O4       1.0000 0.61310  0.92310  0.87240  Biso   1.000  O
  O5       1.0000 0.03870  0.75120  0.04020  Biso   1.000  O
  H2       1.0000 0.02470  0.74880  0.98180  Biso   1.000  H
  O6       1.0000 0.27590  0.59090  0.02370  Biso   1.000  O
  O7       1.0000 0.23420  0.72310  0.15480  Biso   1.000  O
  P1       1.0000 0.53205  0.81894  0.96769  Biso   1.000  P
  P2       1.0000 0.21761  0.71696  0.04987  Biso   1.000  P
  C1       1.0000 0.32400  0.85710  0.95310  Biso   1.000  C
  C2       1.0000 0.30610  0.89550  0.83710  Biso   1.000  C
  H3       1.0000 0.36220  0.97210  0.79640  Biso   1.000  H
  H4       1.0000 0.35480  0.82180  0.81310  Biso   1.000  H
  C3       1.0000 0.03350  0.01230  0.84360  Biso   1.000  C
  H5       1.0000 0.04200  0.05900  0.88690  Biso   1.000  H
  C4       1.0000 0.94510  0.93690  0.74500  Biso   1.000  C
  H6       1.0000 0.87900  0.92190  0.70740  Biso   1.000  H
  C5       1.0000 0.09310  0.87990  0.74930  Biso   1.000  C
  H7       1.0000 0.14600  0.82040  0.71590  Biso   1.000  H
  C6       1.0000 0.34780  0.68770  0.35870  Biso   1.000  C
  H8       1.0000 0.32440  0.63300  0.32630  Biso   1.000  H
  C7       1.0000 0.36700  0.63050  0.46460  Biso   1.000  C
  H9       1.0000 0.34990  0.54180  0.50190  Biso   1.000  H
  C8       1.0000 0.41150  0.70680  0.51350  Biso   1.000  C
  C9       1.0000 0.42300  0.84120  0.45450  Biso   1.000  C
  H10      1.0000 0.44930  0.89730  0.48460  Biso   1.000  H
  C10      1.0000 0.39570  0.89230  0.35150  Biso   1.000  C
  H11      1.0000 0.40130  0.98310  0.31460  Biso   1.000  H
  C11      1.0000 0.37180  0.51560  0.80790  Biso   1.000  C
  H12      1.0000 0.30820  0.45610  0.85890  Biso   1.000  H
  C12      1.0000 0.34730  0.56060  0.70340  Biso   1.000  C
  H13      1.0000 0.26870  0.53050  0.68570  Biso   1.000  H
  C13      1.0000 0.44020  0.65060  0.62540  Biso   1.000  C
  C14      1.0000 0.55750  0.68890  0.65670  Biso   1.000  C
  H14      1.0000 0.62250  0.74850  0.60720  Biso   1.000  H
  C15      1.0000 0.57840  0.63860  0.76160  Biso   1.000  C
  H15      1.0000 0.66010  0.66320  0.78030  Biso   1.000  H
  Ni2      1.0000 0.68938  0.09987  0.85087  Biso   1.000  Ni
  N5       1.0000 0.09230  0.98000  0.19560  Biso   1.000  N
  N6       1.0000 0.85200  0.07170  0.18700  Biso   1.000  N
  N7       1.0000 0.63910  0.18530  0.69780  Biso   1.000  N
  N8       1.0000 0.51560  0.44470  0.16240  Biso   1.000  N
  O8       1.0000 0.73340  0.02790  0.01110  Biso   1.000  O
  H16      1.0000 0.77410  0.95120  0.04540  Biso   1.000  H
  O9       1.0000 0.41080  0.32330  0.03180  Biso   1.000  O
  O10      1.0000 0.46760  0.15970  0.92750  Biso   1.000  O
  O11      1.0000 0.38690  0.07690  0.12760  Biso   1.000  O
  O12      1.0000 0.96130  0.24880  0.95980  Biso   1.000  O
  H17      1.0000 0.97530  0.25120  0.01820  Biso   1.000  H
  O13      1.0000 0.72410  0.40910  0.97630  Biso   1.000  O
  O14      1.0000 0.76580  0.27690  0.84520  Biso   1.000  O
  P3       1.0000 0.46795  0.18106  0.03231  Biso   1.000  P
  P4       1.0000 0.78239  0.28304  0.95013  Biso   1.000  P
  C16      1.0000 0.67600  0.14290  0.04690  Biso   1.000  C
  C17      1.0000 0.69390  0.10450  0.16290  Biso   1.000  C
  H18      1.0000 0.63780  0.02790  0.20360  Biso   1.000  H
  H19      1.0000 0.64520  0.17820  0.18690  Biso   1.000  H
  C18      1.0000 0.96650  0.98770  0.15640  Biso   1.000  C
  H20      1.0000 0.95800  0.94100  0.11310  Biso   1.000  H
  C19      1.0000 0.05490  0.06310  0.25500  Biso   1.000  C
  H21      1.0000 0.12100  0.07810  0.29260  Biso   1.000  H
  C20      1.0000 0.90690  0.12010  0.25070  Biso   1.000  C
  H22      1.0000 0.85400  0.17960  0.28410  Biso   1.000  H
  C21      1.0000 0.65220  0.31230  0.64130  Biso   1.000  C
  H23      1.0000 0.67560  0.36700  0.67370  Biso   1.000  H
  C22      1.0000 0.63300  0.36950  0.53540  Biso   1.000  C
  H24      1.0000 0.65010  0.45820  0.49810  Biso   1.000  H
  C23      1.0000 0.58850  0.29320  0.48650  Biso   1.000  C
  C24      1.0000 0.57700  0.15880  0.54550  Biso   1.000  C
  H25      1.0000 0.55070  0.10270  0.51540  Biso   1.000  H
  C25      1.0000 0.60430  0.10770  0.64850  Biso   1.000  C
  H26      1.0000 0.59870  0.01690  0.68540  Biso   1.000  H
  C26      1.0000 0.62820  0.48440  0.19210  Biso   1.000  C
  H27      1.0000 0.69180  0.54390  0.14110  Biso   1.000  H
  C27      1.0000 0.65270  0.43940  0.29660  Biso   1.000  C
  H28      1.0000 0.73130  0.46950  0.31430  Biso   1.000  H
  C28      1.0000 0.55980  0.34940  0.37460  Biso   1.000  C
  C29      1.0000 0.44250  0.31110  0.34330  Biso   1.000  C
  H29      1.0000 0.37750  0.25150  0.39280  Biso   1.000  H
  C30      1.0000 0.42160  0.36140  0.23840  Biso   1.000  C
  H30      1.0000 0.33990  0.33680  0.21970  Biso   1.000  H
  Ni3      1.0000 0.50000  0.50000  0.00000  Biso   1.000  Ni
