data_image0
_cell_length_a       10.702
_cell_length_b       26.6173
_cell_length_c       8.5189
_cell_angle_alpha    90
_cell_angle_beta     90
_cell_angle_gamma    90

_symmetry_space_group_name_H-M    "P 1"
_symmetry_int_tables_number       1

loop_
  _symmetry_equiv_pos_as_xyz
  'x, y, z'

loop_
  _atom_site_label
  _atom_site_occupancy
  _atom_site_fract_x
  _atom_site_fract_y
  _atom_site_fract_z
  _atom_site_thermal_displace_type
  _atom_site_B_iso_or_equiv
  _atom_site_type_symbol
  Zn1      1.0000 0.39932  0.54797  0.59564  Biso   1.000  Zn
  C1       1.0000 0.36170  0.45318  0.23240  Biso   1.000  C
  H1       1.0000 0.38470  0.42420  0.17880  Biso   1.000  H
  C2       1.0000 0.25660  0.51579  0.31400  Biso   1.000  C
  C3       1.0000 0.34440  0.64998  0.58090  Biso   1.000  C
  C4       1.0000 0.37320  0.70373  0.61110  Biso   1.000  C
  C5       1.0000 0.47340  0.72346  0.68900  Biso   1.000  C
  H2       1.0000 0.53490  0.70410  0.73680  Biso   1.000  H
  N1       1.0000 0.24820  0.47478  0.21950  Biso   1.000  N
  N2       1.0000 0.43610  0.47735  0.32840  Biso   1.000  N
  N3       1.0000 0.36800  0.51856  0.38380  Biso   1.000  N
  N4       1.0000 0.16520  0.55050  0.32940  Biso   1.000  N
  H3       1.0000 0.17710  0.57650  0.38740  Biso   1.000  H
  H4       1.0000 0.09530  0.54660  0.28130  Biso   1.000  H
  O1       1.0000 0.43070  0.61935  0.62150  Biso   1.000  O
  O2       1.0000 0.24370  0.63836  0.52050  Biso   1.000  O
  Zn2      1.0000 0.10068  0.45203  0.09564  Biso   1.000  Zn
  C6       1.0000 0.13830  0.54682  0.73240  Biso   1.000  C
  H5       1.0000 0.11530  0.57580  0.67880  Biso   1.000  H
  C7       1.0000 0.24340  0.48421  0.81400  Biso   1.000  C
  C8       1.0000 0.15560  0.35002  0.08090  Biso   1.000  C
  C9       1.0000 0.12680  0.29627  0.11110  Biso   1.000  C
  C10      1.0000 0.02660  0.27654  0.18900  Biso   1.000  C
  H6       1.0000 0.96510  0.29590  0.23680  Biso   1.000  H
  N5       1.0000 0.25180  0.52522  0.71950  Biso   1.000  N
  N6       1.0000 0.06390  0.52265  0.82840  Biso   1.000  N
  N7       1.0000 0.13200  0.48144  0.88380  Biso   1.000  N
  N8       1.0000 0.33480  0.44950  0.82940  Biso   1.000  N
  H7       1.0000 0.32290  0.42350  0.88740  Biso   1.000  H
  H8       1.0000 0.40470  0.45340  0.78130  Biso   1.000  H
  O3       1.0000 0.06930  0.38065  0.12150  Biso   1.000  O
  O4       1.0000 0.25630  0.36164  0.02050  Biso   1.000  O
  Zn3      1.0000 0.60068  0.04797  0.40436  Biso   1.000  Zn
  C11      1.0000 0.63830  0.95318  0.76760  Biso   1.000  C
  H9       1.0000 0.61530  0.92420  0.82120  Biso   1.000  H
  C12      1.0000 0.74340  0.01579  0.68600  Biso   1.000  C
  C13      1.0000 0.65560  0.14998  0.41910  Biso   1.000  C
  C14      1.0000 0.62680  0.20373  0.38890  Biso   1.000  C
  C15      1.0000 0.52660  0.22346  0.31100  Biso   1.000  C
  H10      1.0000 0.46510  0.20410  0.26320  Biso   1.000  H
  N9       1.0000 0.75180  0.97478  0.78050  Biso   1.000  N
  N10      1.0000 0.56390  0.97735  0.67160  Biso   1.000  N
  N11      1.0000 0.63200  0.01856  0.61620  Biso   1.000  N
  N12      1.0000 0.83480  0.05050  0.67060  Biso   1.000  N
  H11      1.0000 0.82290  0.07650  0.61260  Biso   1.000  H
  H12      1.0000 0.90470  0.04660  0.71870  Biso   1.000  H
  O5       1.0000 0.56930  0.11935  0.37850  Biso   1.000  O
  O6       1.0000 0.75630  0.13836  0.47950  Biso   1.000  O
  Zn4      1.0000 0.89932  0.95203  0.90436  Biso   1.000  Zn
  C16      1.0000 0.86170  0.04682  0.26760  Biso   1.000  C
  H13      1.0000 0.88470  0.07580  0.32120  Biso   1.000  H
  C17      1.0000 0.75660  0.98421  0.18600  Biso   1.000  C
  C18      1.0000 0.84440  0.85002  0.91910  Biso   1.000  C
  C19      1.0000 0.87320  0.79627  0.88890  Biso   1.000  C
  C20      1.0000 0.97340  0.77654  0.81100  Biso   1.000  C
  H14      1.0000 0.03490  0.79590  0.76320  Biso   1.000  H
  N13      1.0000 0.74820  0.02522  0.28050  Biso   1.000  N
  N14      1.0000 0.93610  0.02265  0.17160  Biso   1.000  N
  N15      1.0000 0.86800  0.98144  0.11620  Biso   1.000  N
  N16      1.0000 0.66520  0.94950  0.17060  Biso   1.000  N
  H15      1.0000 0.67710  0.92350  0.11260  Biso   1.000  H
  H16      1.0000 0.59530  0.95340  0.21870  Biso   1.000  H
  O7       1.0000 0.93070  0.88065  0.87850  Biso   1.000  O
  O8       1.0000 0.74370  0.86164  0.97950  Biso   1.000  O
  Zn5      1.0000 0.60068  0.45203  0.40436  Biso   1.000  Zn
  C21      1.0000 0.63830  0.54682  0.76760  Biso   1.000  C
  H17      1.0000 0.61530  0.57580  0.82120  Biso   1.000  H
  C22      1.0000 0.74340  0.48421  0.68600  Biso   1.000  C
  C23      1.0000 0.65560  0.35002  0.41910  Biso   1.000  C
  C24      1.0000 0.62680  0.29627  0.38890  Biso   1.000  C
  C25      1.0000 0.52660  0.27654  0.31100  Biso   1.000  C
  H18      1.0000 0.46510  0.29590  0.26320  Biso   1.000  H
  N17      1.0000 0.75180  0.52522  0.78050  Biso   1.000  N
  N18      1.0000 0.56390  0.52265  0.67160  Biso   1.000  N
  N19      1.0000 0.63200  0.48144  0.61620  Biso   1.000  N
  N20      1.0000 0.83480  0.44950  0.67060  Biso   1.000  N
  H19      1.0000 0.82290  0.42350  0.61260  Biso   1.000  H
  H20      1.0000 0.90470  0.45340  0.71870  Biso   1.000  H
  O9       1.0000 0.56930  0.38065  0.37850  Biso   1.000  O
  O10      1.0000 0.75630  0.36164  0.47950  Biso   1.000  O
  Zn6      1.0000 0.89932  0.54797  0.90436  Biso   1.000  Zn
  C26      1.0000 0.86170  0.45318  0.26760  Biso   1.000  C
  H21      1.0000 0.88470  0.42420  0.32120  Biso   1.000  H
  C27      1.0000 0.75660  0.51579  0.18600  Biso   1.000  C
  C28      1.0000 0.84440  0.64998  0.91910  Biso   1.000  C
  C29      1.0000 0.87320  0.70373  0.88890  Biso   1.000  C
  C30      1.0000 0.97340  0.72346  0.81100  Biso   1.000  C
  H22      1.0000 0.03490  0.70410  0.76320  Biso   1.000  H
  N21      1.0000 0.74820  0.47478  0.28050  Biso   1.000  N
  N22      1.0000 0.93610  0.47735  0.17160  Biso   1.000  N
  N23      1.0000 0.86800  0.51856  0.11620  Biso   1.000  N
  N24      1.0000 0.66520  0.55050  0.17060  Biso   1.000  N
  H23      1.0000 0.67710  0.57650  0.11260  Biso   1.000  H
  H24      1.0000 0.59530  0.54660  0.21870  Biso   1.000  H
  O11      1.0000 0.93070  0.61935  0.87850  Biso   1.000  O
  O12      1.0000 0.74370  0.63836  0.97950  Biso   1.000  O
  Zn7      1.0000 0.39932  0.95203  0.59564  Biso   1.000  Zn
  C31      1.0000 0.36170  0.04682  0.23240  Biso   1.000  C
  H25      1.0000 0.38470  0.07580  0.17880  Biso   1.000  H
  C32      1.0000 0.25660  0.98421  0.31400  Biso   1.000  C
  C33      1.0000 0.34440  0.85002  0.58090  Biso   1.000  C
  C34      1.0000 0.37320  0.79627  0.61110  Biso   1.000  C
  C35      1.0000 0.47340  0.77654  0.68900  Biso   1.000  C
  H26      1.0000 0.53490  0.79590  0.73680  Biso   1.000  H
  N25      1.0000 0.24820  0.02522  0.21950  Biso   1.000  N
  N26      1.0000 0.43610  0.02265  0.32840  Biso   1.000  N
  N27      1.0000 0.36800  0.98144  0.38380  Biso   1.000  N
  N28      1.0000 0.16520  0.94950  0.32940  Biso   1.000  N
  H27      1.0000 0.17710  0.92350  0.38740  Biso   1.000  H
  H28      1.0000 0.09530  0.95340  0.28130  Biso   1.000  H
  O13      1.0000 0.43070  0.88065  0.62150  Biso   1.000  O
  O14      1.0000 0.24370  0.86164  0.52050  Biso   1.000  O
  Zn8      1.0000 0.10068  0.04797  0.09564  Biso   1.000  Zn
  C36      1.0000 0.13830  0.95318  0.73240  Biso   1.000  C
  H29      1.0000 0.11530  0.92420  0.67880  Biso   1.000  H
  C37      1.0000 0.24340  0.01579  0.81400  Biso   1.000  C
  C38      1.0000 0.15560  0.14998  0.08090  Biso   1.000  C
  C39      1.0000 0.12680  0.20373  0.11110  Biso   1.000  C
  C40      1.0000 0.02660  0.22346  0.18900  Biso   1.000  C
  H30      1.0000 0.96510  0.20410  0.23680  Biso   1.000  H
  N29      1.0000 0.25180  0.97478  0.71950  Biso   1.000  N
  N30      1.0000 0.06390  0.97735  0.82840  Biso   1.000  N
  N31      1.0000 0.13200  0.01856  0.88380  Biso   1.000  N
  N32      1.0000 0.33480  0.05050  0.82940  Biso   1.000  N
  H31      1.0000 0.32290  0.07650  0.88740  Biso   1.000  H
  H32      1.0000 0.40470  0.04660  0.78130  Biso   1.000  H
  O15      1.0000 0.06930  0.11935  0.12150  Biso   1.000  O
  O16      1.0000 0.25630  0.13836  0.02050  Biso   1.000  O
  S1       1.0000 0.27708  0.75000  0.53877  Biso   1.000  S
  S2       1.0000 0.22292  0.25000  0.03877  Biso   1.000  S
  S3       1.0000 0.72292  0.25000  0.46123  Biso   1.000  S
  S4       1.0000 0.77708  0.75000  0.96123  Biso   1.000  S
