data_image0
_cell_length_a       12.6245
_cell_length_b       12.6245
_cell_length_c       25.5002
_cell_angle_alpha    90
_cell_angle_beta     90
_cell_angle_gamma    90

_symmetry_space_group_name_H-M    "P 1"
_symmetry_int_tables_number       1

loop_
  _symmetry_equiv_pos_as_xyz
  'x, y, z'

loop_
  _atom_site_label
  _atom_site_occupancy
  _atom_site_fract_x
  _atom_site_fract_y
  _atom_site_fract_z
  _atom_site_thermal_displace_type
  _atom_site_B_iso_or_equiv
  _atom_site_type_symbol
  Zn1      1.0000 0.54008  0.06462  0.56264  Biso   1.000  Zn
  C1       1.0000 0.60520  0.06830  0.66110  Biso   1.000  C
  C2       1.0000 0.70980  0.06960  0.79980  Biso   1.000  C
  H1       1.0000 0.68200  0.06880  0.83360  Biso   1.000  H
  C3       1.0000 0.68200  0.06990  0.70700  Biso   1.000  C
  C4       1.0000 0.64170  0.07040  0.75730  Biso   1.000  C
  H2       1.0000 0.56880  0.07130  0.76260  Biso   1.000  H
  C5       1.0000 0.49700  0.30950  0.57830  Biso   1.000  C
  C6       1.0000 0.54220  0.26610  0.50150  Biso   1.000  C
  H3       1.0000 0.56370  0.22660  0.47260  Biso   1.000  H
  N1       1.0000 0.47230  0.30330  0.62980  Biso   1.000  N
  H4       1.0000 0.45520  0.35960  0.64680  Biso   1.000  H
  H5       1.0000 0.47370  0.24310  0.64550  Biso   1.000  H
  N2       1.0000 0.52410  0.22350  0.54906  Biso   1.000  N
  N3       1.0000 0.52660  0.36880  0.49989  Biso   1.000  N
  N4       1.0000 0.49710  0.39780  0.55101  Biso   1.000  N
  O1       1.0000 0.51070  0.08640  0.66810  Biso   1.000  O
  O2       1.0000 0.64490  0.04700  0.61700  Biso   1.000  O
  Zn2      1.0000 0.95992  0.43538  0.56264  Biso   1.000  Zn
  C7       1.0000 0.89480  0.43170  0.66110  Biso   1.000  C
  C8       1.0000 0.79020  0.43040  0.79980  Biso   1.000  C
  H6       1.0000 0.81800  0.43120  0.83360  Biso   1.000  H
  C9       1.0000 0.81800  0.43010  0.70700  Biso   1.000  C
  C10      1.0000 0.85830  0.42960  0.75730  Biso   1.000  C
  H7       1.0000 0.93120  0.42870  0.76260  Biso   1.000  H
  C11      1.0000 0.00300  0.19050  0.57830  Biso   1.000  C
  C12      1.0000 0.95780  0.23390  0.50150  Biso   1.000  C
  H8       1.0000 0.93630  0.27340  0.47260  Biso   1.000  H
  N5       1.0000 0.02770  0.19670  0.62980  Biso   1.000  N
  H9       1.0000 0.04480  0.14040  0.64680  Biso   1.000  H
  H10      1.0000 0.02630  0.25690  0.64550  Biso   1.000  H
  N6       1.0000 0.97590  0.27650  0.54906  Biso   1.000  N
  N7       1.0000 0.97340  0.13120  0.49989  Biso   1.000  N
  N8       1.0000 0.00290  0.10220  0.55101  Biso   1.000  N
  O3       1.0000 0.98930  0.41360  0.66810  Biso   1.000  O
  O4       1.0000 0.85510  0.45300  0.61700  Biso   1.000  O
  Zn3      1.0000 0.43538  0.54008  0.56264  Biso   1.000  Zn
  C13      1.0000 0.43170  0.60520  0.66110  Biso   1.000  C
  C14      1.0000 0.43040  0.70980  0.79980  Biso   1.000  C
  H11      1.0000 0.43120  0.68200  0.83360  Biso   1.000  H
  C15      1.0000 0.43010  0.68200  0.70700  Biso   1.000  C
  C16      1.0000 0.42960  0.64170  0.75730  Biso   1.000  C
  H12      1.0000 0.42870  0.56880  0.76260  Biso   1.000  H
  C17      1.0000 0.19050  0.49700  0.57830  Biso   1.000  C
  C18      1.0000 0.23390  0.54220  0.50150  Biso   1.000  C
  H13      1.0000 0.27340  0.56370  0.47260  Biso   1.000  H
  N9       1.0000 0.19670  0.47230  0.62980  Biso   1.000  N
  H14      1.0000 0.14040  0.45520  0.64680  Biso   1.000  H
  H15      1.0000 0.25690  0.47370  0.64550  Biso   1.000  H
  N10      1.0000 0.27650  0.52410  0.54906  Biso   1.000  N
  N11      1.0000 0.13120  0.52660  0.49989  Biso   1.000  N
  N12      1.0000 0.10220  0.49710  0.55101  Biso   1.000  N
  O5       1.0000 0.41360  0.51070  0.66810  Biso   1.000  O
  O6       1.0000 0.45300  0.64490  0.61700  Biso   1.000  O
  Zn4      1.0000 0.06462  0.95992  0.56264  Biso   1.000  Zn
  C19      1.0000 0.06830  0.89480  0.66110  Biso   1.000  C
  C20      1.0000 0.06960  0.79020  0.79980  Biso   1.000  C
  H16      1.0000 0.06880  0.81800  0.83360  Biso   1.000  H
  C21      1.0000 0.06990  0.81800  0.70700  Biso   1.000  C
  C22      1.0000 0.07040  0.85830  0.75730  Biso   1.000  C
  H17      1.0000 0.07130  0.93120  0.76260  Biso   1.000  H
  C23      1.0000 0.30950  0.00300  0.57830  Biso   1.000  C
  C24      1.0000 0.26610  0.95780  0.50150  Biso   1.000  C
  H18      1.0000 0.22660  0.93630  0.47260  Biso   1.000  H
  N13      1.0000 0.30330  0.02770  0.62980  Biso   1.000  N
  H19      1.0000 0.35960  0.04480  0.64680  Biso   1.000  H
  H20      1.0000 0.24310  0.02630  0.64550  Biso   1.000  H
  N14      1.0000 0.22350  0.97590  0.54906  Biso   1.000  N
  N15      1.0000 0.36880  0.97340  0.49989  Biso   1.000  N
  N16      1.0000 0.39780  0.00290  0.55101  Biso   1.000  N
  O7       1.0000 0.08640  0.98930  0.66810  Biso   1.000  O
  O8       1.0000 0.04700  0.85510  0.61700  Biso   1.000  O
  Zn5      1.0000 0.95992  0.06462  0.93736  Biso   1.000  Zn
  C25      1.0000 0.89480  0.06830  0.83890  Biso   1.000  C
  C26      1.0000 0.79020  0.06960  0.70020  Biso   1.000  C
  H21      1.0000 0.81800  0.06880  0.66640  Biso   1.000  H
  C27      1.0000 0.81800  0.06990  0.79300  Biso   1.000  C
  C28      1.0000 0.85830  0.07040  0.74270  Biso   1.000  C
  H22      1.0000 0.93120  0.07130  0.73740  Biso   1.000  H
  C29      1.0000 0.00300  0.30950  0.92170  Biso   1.000  C
  C30      1.0000 0.95780  0.26610  0.99850  Biso   1.000  C
  H23      1.0000 0.93630  0.22660  0.02740  Biso   1.000  H
  N17      1.0000 0.02770  0.30330  0.87020  Biso   1.000  N
  H24      1.0000 0.04480  0.35960  0.85320  Biso   1.000  H
  H25      1.0000 0.02630  0.24310  0.85450  Biso   1.000  H
  N18      1.0000 0.97590  0.22350  0.95094  Biso   1.000  N
  N19      1.0000 0.97340  0.36880  0.00011  Biso   1.000  N
  N20      1.0000 0.00290  0.39780  0.94899  Biso   1.000  N
  O9       1.0000 0.98930  0.08640  0.83190  Biso   1.000  O
  O10      1.0000 0.85510  0.04700  0.88300  Biso   1.000  O
  Zn6      1.0000 0.54008  0.43538  0.93736  Biso   1.000  Zn
  C31      1.0000 0.60520  0.43170  0.83890  Biso   1.000  C
  C32      1.0000 0.70980  0.43040  0.70020  Biso   1.000  C
  H26      1.0000 0.68200  0.43120  0.66640  Biso   1.000  H
  C33      1.0000 0.68200  0.43010  0.79300  Biso   1.000  C
  C34      1.0000 0.64170  0.42960  0.74270  Biso   1.000  C
  H27      1.0000 0.56880  0.42870  0.73740  Biso   1.000  H
  C35      1.0000 0.49700  0.19050  0.92170  Biso   1.000  C
  C36      1.0000 0.54220  0.23390  0.99850  Biso   1.000  C
  H28      1.0000 0.56370  0.27340  0.02740  Biso   1.000  H
  N21      1.0000 0.47230  0.19670  0.87020  Biso   1.000  N
  H29      1.0000 0.45520  0.14040  0.85320  Biso   1.000  H
  H30      1.0000 0.47370  0.25690  0.85450  Biso   1.000  H
  N22      1.0000 0.52410  0.27650  0.95094  Biso   1.000  N
  N23      1.0000 0.52660  0.13120  0.00011  Biso   1.000  N
  N24      1.0000 0.49710  0.10220  0.94899  Biso   1.000  N
  O11      1.0000 0.51070  0.41360  0.83190  Biso   1.000  O
  O12      1.0000 0.64490  0.45300  0.88300  Biso   1.000  O
  Zn7      1.0000 0.06462  0.54008  0.93736  Biso   1.000  Zn
  C37      1.0000 0.06830  0.60520  0.83890  Biso   1.000  C
  C38      1.0000 0.06960  0.70980  0.70020  Biso   1.000  C
  H31      1.0000 0.06880  0.68200  0.66640  Biso   1.000  H
  C39      1.0000 0.06990  0.68200  0.79300  Biso   1.000  C
  C40      1.0000 0.07040  0.64170  0.74270  Biso   1.000  C
  H32      1.0000 0.07130  0.56880  0.73740  Biso   1.000  H
  C41      1.0000 0.30950  0.49700  0.92170  Biso   1.000  C
  C42      1.0000 0.26610  0.54220  0.99850  Biso   1.000  C
  H33      1.0000 0.22660  0.56370  0.02740  Biso   1.000  H
  N25      1.0000 0.30330  0.47230  0.87020  Biso   1.000  N
  H34      1.0000 0.35960  0.45520  0.85320  Biso   1.000  H
  H35      1.0000 0.24310  0.47370  0.85450  Biso   1.000  H
  N26      1.0000 0.22350  0.52410  0.95094  Biso   1.000  N
  N27      1.0000 0.36880  0.52660  0.00011  Biso   1.000  N
  N28      1.0000 0.39780  0.49710  0.94899  Biso   1.000  N
  O13      1.0000 0.08640  0.51070  0.83190  Biso   1.000  O
  O14      1.0000 0.04700  0.64490  0.88300  Biso   1.000  O
  Zn8      1.0000 0.43538  0.95992  0.93736  Biso   1.000  Zn
  C43      1.0000 0.43170  0.89480  0.83890  Biso   1.000  C
  C44      1.0000 0.43040  0.79020  0.70020  Biso   1.000  C
  H36      1.0000 0.43120  0.81800  0.66640  Biso   1.000  H
  C45      1.0000 0.43010  0.81800  0.79300  Biso   1.000  C
  C46      1.0000 0.42960  0.85830  0.74270  Biso   1.000  C
  H37      1.0000 0.42870  0.93120  0.73740  Biso   1.000  H
  C47      1.0000 0.19050  0.00300  0.92170  Biso   1.000  C
  C48      1.0000 0.23390  0.95780  0.99850  Biso   1.000  C
  H38      1.0000 0.27340  0.93630  0.02740  Biso   1.000  H
  N29      1.0000 0.19670  0.02770  0.87020  Biso   1.000  N
  H39      1.0000 0.14040  0.04480  0.85320  Biso   1.000  H
  H40      1.0000 0.25690  0.02630  0.85450  Biso   1.000  H
  N30      1.0000 0.27650  0.97590  0.95094  Biso   1.000  N
  N31      1.0000 0.13120  0.97340  0.00011  Biso   1.000  N
  N32      1.0000 0.10220  0.00290  0.94899  Biso   1.000  N
  O15      1.0000 0.41360  0.98930  0.83190  Biso   1.000  O
  O16      1.0000 0.45300  0.85510  0.88300  Biso   1.000  O
  Zn9      1.0000 0.45992  0.93538  0.43736  Biso   1.000  Zn
  C49      1.0000 0.39480  0.93170  0.33890  Biso   1.000  C
  C50      1.0000 0.29020  0.93040  0.20020  Biso   1.000  C
  H41      1.0000 0.31800  0.93120  0.16640  Biso   1.000  H
  C51      1.0000 0.31800  0.93010  0.29300  Biso   1.000  C
  C52      1.0000 0.35830  0.92960  0.24270  Biso   1.000  C
  H42      1.0000 0.43120  0.92870  0.23740  Biso   1.000  H
  C53      1.0000 0.50300  0.69050  0.42170  Biso   1.000  C
  C54      1.0000 0.45780  0.73390  0.49850  Biso   1.000  C
  H43      1.0000 0.43630  0.77340  0.52740  Biso   1.000  H
  N33      1.0000 0.52770  0.69670  0.37020  Biso   1.000  N
  H44      1.0000 0.54480  0.64040  0.35320  Biso   1.000  H
  H45      1.0000 0.52630  0.75690  0.35450  Biso   1.000  H
  N34      1.0000 0.47590  0.77650  0.45094  Biso   1.000  N
  N35      1.0000 0.47340  0.63120  0.50011  Biso   1.000  N
  N36      1.0000 0.50290  0.60220  0.44899  Biso   1.000  N
  O17      1.0000 0.48930  0.91360  0.33190  Biso   1.000  O
  O18      1.0000 0.35510  0.95300  0.38300  Biso   1.000  O
  Zn10     1.0000 0.04008  0.56462  0.43736  Biso   1.000  Zn
  C55      1.0000 0.10520  0.56830  0.33890  Biso   1.000  C
  C56      1.0000 0.20980  0.56960  0.20020  Biso   1.000  C
  H46      1.0000 0.18200  0.56880  0.16640  Biso   1.000  H
  C57      1.0000 0.18200  0.56990  0.29300  Biso   1.000  C
  C58      1.0000 0.14170  0.57040  0.24270  Biso   1.000  C
  H47      1.0000 0.06880  0.57130  0.23740  Biso   1.000  H
  C59      1.0000 0.99700  0.80950  0.42170  Biso   1.000  C
  C60      1.0000 0.04220  0.76610  0.49850  Biso   1.000  C
  H48      1.0000 0.06370  0.72660  0.52740  Biso   1.000  H
  N37      1.0000 0.97230  0.80330  0.37020  Biso   1.000  N
  H49      1.0000 0.95520  0.85960  0.35320  Biso   1.000  H
  H50      1.0000 0.97370  0.74310  0.35450  Biso   1.000  H
  N38      1.0000 0.02410  0.72350  0.45094  Biso   1.000  N
  N39      1.0000 0.02660  0.86880  0.50011  Biso   1.000  N
  N40      1.0000 0.99710  0.89780  0.44899  Biso   1.000  N
  O19      1.0000 0.01070  0.58640  0.33190  Biso   1.000  O
  O20      1.0000 0.14490  0.54700  0.38300  Biso   1.000  O
  Zn11     1.0000 0.56462  0.45992  0.43736  Biso   1.000  Zn
  C61      1.0000 0.56830  0.39480  0.33890  Biso   1.000  C
  C62      1.0000 0.56960  0.29020  0.20020  Biso   1.000  C
  H51      1.0000 0.56880  0.31800  0.16640  Biso   1.000  H
  C63      1.0000 0.56990  0.31800  0.29300  Biso   1.000  C
  C64      1.0000 0.57040  0.35830  0.24270  Biso   1.000  C
  H52      1.0000 0.57130  0.43120  0.23740  Biso   1.000  H
  C65      1.0000 0.80950  0.50300  0.42170  Biso   1.000  C
  C66      1.0000 0.76610  0.45780  0.49850  Biso   1.000  C
  H53      1.0000 0.72660  0.43630  0.52740  Biso   1.000  H
  N41      1.0000 0.80330  0.52770  0.37020  Biso   1.000  N
  H54      1.0000 0.85960  0.54480  0.35320  Biso   1.000  H
  H55      1.0000 0.74310  0.52630  0.35450  Biso   1.000  H
  N42      1.0000 0.72350  0.47590  0.45094  Biso   1.000  N
  N43      1.0000 0.86880  0.47340  0.50011  Biso   1.000  N
  N44      1.0000 0.89780  0.50290  0.44899  Biso   1.000  N
  O21      1.0000 0.58640  0.48930  0.33190  Biso   1.000  O
  O22      1.0000 0.54700  0.35510  0.38300  Biso   1.000  O
  Zn12     1.0000 0.93538  0.04008  0.43736  Biso   1.000  Zn
  C67      1.0000 0.93170  0.10520  0.33890  Biso   1.000  C
  C68      1.0000 0.93040  0.20980  0.20020  Biso   1.000  C
  H56      1.0000 0.93120  0.18200  0.16640  Biso   1.000  H
  C69      1.0000 0.93010  0.18200  0.29300  Biso   1.000  C
  C70      1.0000 0.92960  0.14170  0.24270  Biso   1.000  C
  H57      1.0000 0.92870  0.06880  0.23740  Biso   1.000  H
  C71      1.0000 0.69050  0.99700  0.42170  Biso   1.000  C
  C72      1.0000 0.73390  0.04220  0.49850  Biso   1.000  C
  H58      1.0000 0.77340  0.06370  0.52740  Biso   1.000  H
  N45      1.0000 0.69670  0.97230  0.37020  Biso   1.000  N
  H59      1.0000 0.64040  0.95520  0.35320  Biso   1.000  H
  H60      1.0000 0.75690  0.97370  0.35450  Biso   1.000  H
  N46      1.0000 0.77650  0.02410  0.45094  Biso   1.000  N
  N47      1.0000 0.63120  0.02660  0.50011  Biso   1.000  N
  N48      1.0000 0.60220  0.99710  0.44899  Biso   1.000  N
  O23      1.0000 0.91360  0.01070  0.33190  Biso   1.000  O
  O24      1.0000 0.95300  0.14490  0.38300  Biso   1.000  O
  Zn13     1.0000 0.04008  0.93538  0.06264  Biso   1.000  Zn
  C73      1.0000 0.10520  0.93170  0.16110  Biso   1.000  C
  C74      1.0000 0.20980  0.93040  0.29980  Biso   1.000  C
  H61      1.0000 0.18200  0.93120  0.33360  Biso   1.000  H
  C75      1.0000 0.18200  0.93010  0.20700  Biso   1.000  C
  C76      1.0000 0.14170  0.92960  0.25730  Biso   1.000  C
  H62      1.0000 0.06880  0.92870  0.26260  Biso   1.000  H
  C77      1.0000 0.99700  0.69050  0.07830  Biso   1.000  C
  C78      1.0000 0.04220  0.73390  0.00150  Biso   1.000  C
  H63      1.0000 0.06370  0.77340  0.97260  Biso   1.000  H
  N49      1.0000 0.97230  0.69670  0.12980  Biso   1.000  N
  H64      1.0000 0.95520  0.64040  0.14680  Biso   1.000  H
  H65      1.0000 0.97370  0.75690  0.14550  Biso   1.000  H
  N50      1.0000 0.02410  0.77650  0.04906  Biso   1.000  N
  N51      1.0000 0.02660  0.63120  0.99989  Biso   1.000  N
  N52      1.0000 0.99710  0.60220  0.05101  Biso   1.000  N
  O25      1.0000 0.01070  0.91360  0.16810  Biso   1.000  O
  O26      1.0000 0.14490  0.95300  0.11700  Biso   1.000  O
  Zn14     1.0000 0.45992  0.56462  0.06264  Biso   1.000  Zn
  C79      1.0000 0.39480  0.56830  0.16110  Biso   1.000  C
  C80      1.0000 0.29020  0.56960  0.29980  Biso   1.000  C
  H66      1.0000 0.31800  0.56880  0.33360  Biso   1.000  H
  C81      1.0000 0.31800  0.56990  0.20700  Biso   1.000  C
  C82      1.0000 0.35830  0.57040  0.25730  Biso   1.000  C
  H67      1.0000 0.43120  0.57130  0.26260  Biso   1.000  H
  C83      1.0000 0.50300  0.80950  0.07830  Biso   1.000  C
  C84      1.0000 0.45780  0.76610  0.00150  Biso   1.000  C
  H68      1.0000 0.43630  0.72660  0.97260  Biso   1.000  H
  N53      1.0000 0.52770  0.80330  0.12980  Biso   1.000  N
  H69      1.0000 0.54480  0.85960  0.14680  Biso   1.000  H
  H70      1.0000 0.52630  0.74310  0.14550  Biso   1.000  H
  N54      1.0000 0.47590  0.72350  0.04906  Biso   1.000  N
  N55      1.0000 0.47340  0.86880  0.99989  Biso   1.000  N
  N56      1.0000 0.50290  0.89780  0.05101  Biso   1.000  N
  O27      1.0000 0.48930  0.58640  0.16810  Biso   1.000  O
  O28      1.0000 0.35510  0.54700  0.11700  Biso   1.000  O
  Zn15     1.0000 0.93538  0.45992  0.06264  Biso   1.000  Zn
  C85      1.0000 0.93170  0.39480  0.16110  Biso   1.000  C
  C86      1.0000 0.93040  0.29020  0.29980  Biso   1.000  C
  H71      1.0000 0.93120  0.31800  0.33360  Biso   1.000  H
  C87      1.0000 0.93010  0.31800  0.20700  Biso   1.000  C
  C88      1.0000 0.92960  0.35830  0.25730  Biso   1.000  C
  H72      1.0000 0.92870  0.43120  0.26260  Biso   1.000  H
  C89      1.0000 0.69050  0.50300  0.07830  Biso   1.000  C
  C90      1.0000 0.73390  0.45780  0.00150  Biso   1.000  C
  H73      1.0000 0.77340  0.43630  0.97260  Biso   1.000  H
  N57      1.0000 0.69670  0.52770  0.12980  Biso   1.000  N
  H74      1.0000 0.64040  0.54480  0.14680  Biso   1.000  H
  H75      1.0000 0.75690  0.52630  0.14550  Biso   1.000  H
  N58      1.0000 0.77650  0.47590  0.04906  Biso   1.000  N
  N59      1.0000 0.63120  0.47340  0.99989  Biso   1.000  N
  N60      1.0000 0.60220  0.50290  0.05101  Biso   1.000  N
  O29      1.0000 0.91360  0.48930  0.16810  Biso   1.000  O
  O30      1.0000 0.95300  0.35510  0.11700  Biso   1.000  O
  Zn16     1.0000 0.56462  0.04008  0.06264  Biso   1.000  Zn
  C91      1.0000 0.56830  0.10520  0.16110  Biso   1.000  C
  C92      1.0000 0.56960  0.20980  0.29980  Biso   1.000  C
  H76      1.0000 0.56880  0.18200  0.33360  Biso   1.000  H
  C93      1.0000 0.56990  0.18200  0.20700  Biso   1.000  C
  C94      1.0000 0.57040  0.14170  0.25730  Biso   1.000  C
  H77      1.0000 0.57130  0.06880  0.26260  Biso   1.000  H
  C95      1.0000 0.80950  0.99700  0.07830  Biso   1.000  C
  C96      1.0000 0.76610  0.04220  0.00150  Biso   1.000  C
  H78      1.0000 0.72660  0.06370  0.97260  Biso   1.000  H
  N61      1.0000 0.80330  0.97230  0.12980  Biso   1.000  N
  H79      1.0000 0.85960  0.95520  0.14680  Biso   1.000  H
  H80      1.0000 0.74310  0.97370  0.14550  Biso   1.000  H
  N62      1.0000 0.72350  0.02410  0.04906  Biso   1.000  N
  N63      1.0000 0.86880  0.02660  0.99989  Biso   1.000  N
  N64      1.0000 0.89780  0.99710  0.05101  Biso   1.000  N
  O31      1.0000 0.58640  0.01070  0.16810  Biso   1.000  O
  O32      1.0000 0.54700  0.14490  0.11700  Biso   1.000  O
