data_image0
_cell_length_a       13.882
_cell_length_b       13.365
_cell_length_c       14.209
_cell_angle_alpha    90
_cell_angle_beta     112.046
_cell_angle_gamma    90

_symmetry_space_group_name_H-M    "P 1"
_symmetry_int_tables_number       1

loop_
  _symmetry_equiv_pos_as_xyz
  'x, y, z'

loop_
  _atom_site_label
  _atom_site_occupancy
  _atom_site_fract_x
  _atom_site_fract_y
  _atom_site_fract_z
  _atom_site_thermal_displace_type
  _atom_site_B_iso_or_equiv
  _atom_site_type_symbol
  C1       1.0000 0.22490  0.69530  0.88480  Biso   1.000  C
  H1       1.0000 0.27800  0.74170  0.91240  Biso   1.000  H
  C2       1.0000 0.12140  0.72610  0.84680  Biso   1.000  C
  H2       1.0000 0.10480  0.79360  0.84610  Biso   1.000  H
  C3       1.0000 0.04470  0.65600  0.81060  Biso   1.000  C
  C4       1.0000 0.06660  0.55420  0.80860  Biso   1.000  C
  H3       1.0000 0.01340  0.50730  0.78470  Biso   1.000  H
  C5       1.0000 0.16950  0.52520  0.84310  Biso   1.000  C
  H4       1.0000 0.18590  0.45800  0.84060  Biso   1.000  H
  C6       1.0000 0.93440  0.69530  0.77460  Biso   1.000  C
  C7       1.0000 0.75820  0.65550  0.76170  Biso   1.000  C
  C8       1.0000 0.70750  0.60670  0.81470  Biso   1.000  C
  H5       1.0000 0.74340  0.56030  0.86420  Biso   1.000  H
  C9       1.0000 0.60410  0.62520  0.79550  Biso   1.000  C
  C10      1.0000 0.55130  0.69690  0.72220  Biso   1.000  C
  H6       1.0000 0.48170  0.71000  0.70920  Biso   1.000  H
  C11      1.0000 0.60040  0.74810  0.66920  Biso   1.000  C
  C12      1.0000 0.70610  0.72790  0.68800  Biso   1.000  C
  H7       1.0000 0.74040  0.76150  0.65240  Biso   1.000  H
  C13      1.0000 0.55620  0.57630  0.86270  Biso   1.000  C
  C14      1.0000 0.55190  0.83300  0.59790  Biso   1.000  C
  N1       1.0000 0.24810  0.59410  0.88120  Biso   1.000  N
  N2       1.0000 0.86290  0.63120  0.78210  Biso   1.000  N
  H8       1.0000 0.88250  0.57090  0.80070  Biso   1.000  H
  O1       1.0000 0.91800  0.78330  0.74750  Biso   1.000  O
  O2       1.0000 0.60930  0.51330  0.92390  Biso   1.000  O
  O3       1.0000 0.46560  0.60280  0.85080  Biso   1.000  O
  O4       1.0000 0.45930  0.82350  0.53850  Biso   1.000  O
  O5       1.0000 0.60590  0.90830  0.60230  Biso   1.000  O
  Cu1      1.0000 0.59967  0.44686  0.05103  Biso   1.000  Cu
  C15      1.0000 0.77510  0.19530  0.61520  Biso   1.000  C
  H9       1.0000 0.72200  0.24170  0.58760  Biso   1.000  H
  C16      1.0000 0.87860  0.22610  0.65320  Biso   1.000  C
  H10      1.0000 0.89520  0.29360  0.65390  Biso   1.000  H
  C17      1.0000 0.95530  0.15600  0.68940  Biso   1.000  C
  C18      1.0000 0.93340  0.05420  0.69140  Biso   1.000  C
  H11      1.0000 0.98660  0.00730  0.71530  Biso   1.000  H
  C19      1.0000 0.83050  0.02520  0.65690  Biso   1.000  C
  H12      1.0000 0.81410  0.95800  0.65940  Biso   1.000  H
  C20      1.0000 0.06560  0.19530  0.72540  Biso   1.000  C
  C21      1.0000 0.24180  0.15550  0.73830  Biso   1.000  C
  C22      1.0000 0.29250  0.10670  0.68530  Biso   1.000  C
  H13      1.0000 0.25660  0.06030  0.63580  Biso   1.000  H
  C23      1.0000 0.39590  0.12520  0.70450  Biso   1.000  C
  C24      1.0000 0.44870  0.19690  0.77780  Biso   1.000  C
  H14      1.0000 0.51830  0.21000  0.79080  Biso   1.000  H
  C25      1.0000 0.39960  0.24810  0.83080  Biso   1.000  C
  C26      1.0000 0.29390  0.22790  0.81200  Biso   1.000  C
  H15      1.0000 0.25960  0.26150  0.84760  Biso   1.000  H
  C27      1.0000 0.44380  0.07630  0.63730  Biso   1.000  C
  C28      1.0000 0.44810  0.33300  0.90210  Biso   1.000  C
  N3       1.0000 0.75190  0.09410  0.61880  Biso   1.000  N
  N4       1.0000 0.13710  0.13120  0.71790  Biso   1.000  N
  H16      1.0000 0.11750  0.07090  0.69930  Biso   1.000  H
  O6       1.0000 0.08200  0.28330  0.75250  Biso   1.000  O
  O7       1.0000 0.39070  0.01330  0.57610  Biso   1.000  O
  O8       1.0000 0.53440  0.10280  0.64920  Biso   1.000  O
  O9       1.0000 0.54070  0.32350  0.96150  Biso   1.000  O
  O10      1.0000 0.39410  0.40830  0.89770  Biso   1.000  O
  Cu2      1.0000 0.40033  0.94686  0.44897  Biso   1.000  Cu
  C29      1.0000 0.77510  0.30470  0.11520  Biso   1.000  C
  H17      1.0000 0.72200  0.25830  0.08760  Biso   1.000  H
  C30      1.0000 0.87860  0.27390  0.15320  Biso   1.000  C
  H18      1.0000 0.89520  0.20640  0.15390  Biso   1.000  H
  C31      1.0000 0.95530  0.34400  0.18940  Biso   1.000  C
  C32      1.0000 0.93340  0.44580  0.19140  Biso   1.000  C
  H19      1.0000 0.98660  0.49270  0.21530  Biso   1.000  H
  C33      1.0000 0.83050  0.47480  0.15690  Biso   1.000  C
  H20      1.0000 0.81410  0.54200  0.15940  Biso   1.000  H
  C34      1.0000 0.06560  0.30470  0.22540  Biso   1.000  C
  C35      1.0000 0.24180  0.34450  0.23830  Biso   1.000  C
  C36      1.0000 0.29250  0.39330  0.18530  Biso   1.000  C
  H21      1.0000 0.25660  0.43970  0.13580  Biso   1.000  H
  C37      1.0000 0.39590  0.37480  0.20450  Biso   1.000  C
  C38      1.0000 0.44870  0.30310  0.27780  Biso   1.000  C
  H22      1.0000 0.51830  0.29000  0.29080  Biso   1.000  H
  C39      1.0000 0.39960  0.25190  0.33080  Biso   1.000  C
  C40      1.0000 0.29390  0.27210  0.31200  Biso   1.000  C
  H23      1.0000 0.25960  0.23850  0.34760  Biso   1.000  H
  C41      1.0000 0.44380  0.42370  0.13730  Biso   1.000  C
  C42      1.0000 0.44810  0.16700  0.40210  Biso   1.000  C
  N5       1.0000 0.75190  0.40590  0.11880  Biso   1.000  N
  N6       1.0000 0.13710  0.36880  0.21790  Biso   1.000  N
  H24      1.0000 0.11750  0.42910  0.19930  Biso   1.000  H
  O11      1.0000 0.08200  0.21670  0.25250  Biso   1.000  O
  O12      1.0000 0.39070  0.48670  0.07610  Biso   1.000  O
  O13      1.0000 0.53440  0.39720  0.14920  Biso   1.000  O
  O14      1.0000 0.54070  0.17650  0.46150  Biso   1.000  O
  O15      1.0000 0.39410  0.09170  0.39770  Biso   1.000  O
  Cu3      1.0000 0.40033  0.55314  0.94897  Biso   1.000  Cu
  C43      1.0000 0.22490  0.80470  0.38480  Biso   1.000  C
  H25      1.0000 0.27800  0.75830  0.41240  Biso   1.000  H
  C44      1.0000 0.12140  0.77390  0.34680  Biso   1.000  C
  H26      1.0000 0.10480  0.70640  0.34610  Biso   1.000  H
  C45      1.0000 0.04470  0.84400  0.31060  Biso   1.000  C
  C46      1.0000 0.06660  0.94580  0.30860  Biso   1.000  C
  H27      1.0000 0.01340  0.99270  0.28470  Biso   1.000  H
  C47      1.0000 0.16950  0.97480  0.34310  Biso   1.000  C
  H28      1.0000 0.18590  0.04200  0.34060  Biso   1.000  H
  C48      1.0000 0.93440  0.80470  0.27460  Biso   1.000  C
  C49      1.0000 0.75820  0.84450  0.26170  Biso   1.000  C
  C50      1.0000 0.70750  0.89330  0.31470  Biso   1.000  C
  H29      1.0000 0.74340  0.93970  0.36420  Biso   1.000  H
  C51      1.0000 0.60410  0.87480  0.29550  Biso   1.000  C
  C52      1.0000 0.55130  0.80310  0.22220  Biso   1.000  C
  H30      1.0000 0.48170  0.79000  0.20920  Biso   1.000  H
  C53      1.0000 0.60040  0.75190  0.16920  Biso   1.000  C
  C54      1.0000 0.70610  0.77210  0.18800  Biso   1.000  C
  H31      1.0000 0.74040  0.73850  0.15240  Biso   1.000  H
  C55      1.0000 0.55620  0.92370  0.36270  Biso   1.000  C
  C56      1.0000 0.55190  0.66700  0.09790  Biso   1.000  C
  N7       1.0000 0.24810  0.90590  0.38120  Biso   1.000  N
  N8       1.0000 0.86290  0.86880  0.28210  Biso   1.000  N
  H32      1.0000 0.88250  0.92910  0.30070  Biso   1.000  H
  O16      1.0000 0.91800  0.71670  0.24750  Biso   1.000  O
  O17      1.0000 0.60930  0.98670  0.42390  Biso   1.000  O
  O18      1.0000 0.46560  0.89720  0.35080  Biso   1.000  O
  O19      1.0000 0.45930  0.67650  0.03850  Biso   1.000  O
  O20      1.0000 0.60590  0.59170  0.10230  Biso   1.000  O
  Cu4      1.0000 0.59967  0.05314  0.55103  Biso   1.000  Cu
