data_image0
_cell_length_a       8.311
_cell_length_b       21.674
_cell_length_c       13.501
_cell_angle_alpha    90
_cell_angle_beta     103.323
_cell_angle_gamma    90

_symmetry_space_group_name_H-M    "P 1"
_symmetry_int_tables_number       1

loop_
  _symmetry_equiv_pos_as_xyz
  'x, y, z'

loop_
  _atom_site_label
  _atom_site_occupancy
  _atom_site_fract_x
  _atom_site_fract_y
  _atom_site_fract_z
  _atom_site_thermal_displace_type
  _atom_site_B_iso_or_equiv
  _atom_site_type_symbol
  N1       1.0000 0.85750  0.04740  0.60190  Biso   1.000  N
  N2       1.0000 0.77880  0.11500  0.70390  Biso   1.000  N
  N3       1.0000 0.73920  0.33010  0.92720  Biso   1.000  N
  N4       1.0000 0.64430  0.41290  0.98950  Biso   1.000  N
  N5       1.0000 0.80350  0.02980  0.35790  Biso   1.000  N
  N6       1.0000 0.63950  0.03080  0.20430  Biso   1.000  N
  C1       1.0000 0.87380  0.10360  0.63750  Biso   1.000  C
  H1       1.0000 0.94370  0.13280  0.61900  Biso   1.000  H
  C2       1.0000 0.74220  0.01970  0.64850  Biso   1.000  C
  H2       1.0000 0.70570  0.97910  0.63860  Biso   1.000  H
  C3       1.0000 0.69200  0.06070  0.71000  Biso   1.000  C
  H3       1.0000 0.61470  0.05400  0.74890  Biso   1.000  H
  C4       1.0000 0.76820  0.17070  0.75830  Biso   1.000  C
  C5       1.0000 0.90600  0.20610  0.79380  Biso   1.000  C
  H4       1.0000 0.00730  0.19400  0.78210  Biso   1.000  H
  C6       1.0000 0.89520  0.25920  0.84650  Biso   1.000  C
  H5       1.0000 0.98810  0.28380  0.86900  Biso   1.000  H
  C7       1.0000 0.74470  0.27610  0.86610  Biso   1.000  C
  C8       1.0000 0.60560  0.24200  0.82920  Biso   1.000  C
  H6       1.0000 0.50420  0.25420  0.84070  Biso   1.000  H
  C9       1.0000 0.61830  0.18920  0.77460  Biso   1.000  C
  H7       1.0000 0.52430  0.16580  0.74840  Biso   1.000  H
  C10      1.0000 0.61150  0.36910  0.92150  Biso   1.000  C
  H8       1.0000 0.51110  0.36530  0.87430  Biso   1.000  H
  C11      1.0000 0.86280  0.35060  0.00550  Biso   1.000  C
  H9       1.0000 0.96710  0.33330  0.02840  Biso   1.000  H
  C12      1.0000 0.80260  0.40100  0.04260  Biso   1.000  C
  H10      1.0000 0.86060  0.42450  0.09680  Biso   1.000  H
  C13      1.0000 0.77440  0.00600  0.26520  Biso   1.000  C
  H11      1.0000 0.83940  0.97580  0.24490  Biso   1.000  H
  C14      1.0000 0.68440  0.07350  0.35420  Biso   1.000  C
  H12      1.0000 0.67530  0.09890  0.40820  Biso   1.000  H
  C15      1.0000 0.58220  0.07450  0.26140  Biso   1.000  C
  H13      1.0000 0.49050  0.09990  0.24000  Biso   1.000  H
  C16      1.0000 0.56910  0.01460  0.09950  Biso   1.000  C
  C17      1.0000 0.48210  0.05860  0.03580  Biso   1.000  C
  H14      1.0000 0.46910  0.09800  0.06000  Biso   1.000  H
  C18      1.0000 0.58630  0.95640  0.06530  Biso   1.000  C
  H15      1.0000 0.64360  0.92680  0.10950  Biso   1.000  H
  N7       1.0000 0.64250  0.54740  0.89810  Biso   1.000  N
  N8       1.0000 0.72120  0.61500  0.79610  Biso   1.000  N
  N9       1.0000 0.76080  0.83010  0.57280  Biso   1.000  N
  N10      1.0000 0.85570  0.91290  0.51050  Biso   1.000  N
  N11      1.0000 0.69650  0.52980  0.14210  Biso   1.000  N
  N12      1.0000 0.86050  0.53080  0.29570  Biso   1.000  N
  C19      1.0000 0.62620  0.60360  0.86250  Biso   1.000  C
  H16      1.0000 0.55630  0.63280  0.88100  Biso   1.000  H
  C20      1.0000 0.75780  0.51970  0.85150  Biso   1.000  C
  H17      1.0000 0.79430  0.47910  0.86140  Biso   1.000  H
  C21      1.0000 0.80800  0.56070  0.79000  Biso   1.000  C
  H18      1.0000 0.88530  0.55400  0.75110  Biso   1.000  H
  C22      1.0000 0.73180  0.67070  0.74170  Biso   1.000  C
  C23      1.0000 0.59400  0.70610  0.70620  Biso   1.000  C
  H19      1.0000 0.49270  0.69400  0.71790  Biso   1.000  H
  C24      1.0000 0.60480  0.75920  0.65350  Biso   1.000  C
  H20      1.0000 0.51190  0.78380  0.63100  Biso   1.000  H
  C25      1.0000 0.75530  0.77610  0.63390  Biso   1.000  C
  C26      1.0000 0.89440  0.74200  0.67080  Biso   1.000  C
  H21      1.0000 0.99580  0.75420  0.65930  Biso   1.000  H
  C27      1.0000 0.88170  0.68920  0.72540  Biso   1.000  C
  H22      1.0000 0.97570  0.66580  0.75160  Biso   1.000  H
  C28      1.0000 0.88850  0.86910  0.57850  Biso   1.000  C
  H23      1.0000 0.98890  0.86530  0.62570  Biso   1.000  H
  C29      1.0000 0.63720  0.85060  0.49450  Biso   1.000  C
  H24      1.0000 0.53290  0.83330  0.47160  Biso   1.000  H
  C30      1.0000 0.69740  0.90100  0.45740  Biso   1.000  C
  H25      1.0000 0.63940  0.92450  0.40320  Biso   1.000  H
  C31      1.0000 0.72560  0.50600  0.23480  Biso   1.000  C
  H26      1.0000 0.66060  0.47580  0.25510  Biso   1.000  H
  C32      1.0000 0.81560  0.57350  0.14580  Biso   1.000  C
  H27      1.0000 0.82470  0.59890  0.09180  Biso   1.000  H
  C33      1.0000 0.91780  0.57450  0.23860  Biso   1.000  C
  H28      1.0000 0.00950  0.59990  0.26000  Biso   1.000  H
  C34      1.0000 0.93090  0.51460  0.40050  Biso   1.000  C
  C35      1.0000 0.01790  0.55860  0.46420  Biso   1.000  C
  H29      1.0000 0.03090  0.59800  0.44000  Biso   1.000  H
  C36      1.0000 0.91370  0.45640  0.43470  Biso   1.000  C
  H30      1.0000 0.85640  0.42680  0.39050  Biso   1.000  H
  N13      1.0000 0.14250  0.95260  0.39810  Biso   1.000  N
  N14      1.0000 0.22120  0.88500  0.29610  Biso   1.000  N
  N15      1.0000 0.26080  0.66990  0.07280  Biso   1.000  N
  N16      1.0000 0.35570  0.58710  0.01050  Biso   1.000  N
  N17      1.0000 0.19650  0.97020  0.64210  Biso   1.000  N
  N18      1.0000 0.36050  0.96920  0.79570  Biso   1.000  N
  C37      1.0000 0.12620  0.89640  0.36250  Biso   1.000  C
  H31      1.0000 0.05630  0.86720  0.38100  Biso   1.000  H
  C38      1.0000 0.25780  0.98030  0.35150  Biso   1.000  C
  H32      1.0000 0.29430  0.02090  0.36140  Biso   1.000  H
  C39      1.0000 0.30800  0.93930  0.29000  Biso   1.000  C
  H33      1.0000 0.38530  0.94600  0.25110  Biso   1.000  H
  C40      1.0000 0.23180  0.82930  0.24170  Biso   1.000  C
  C41      1.0000 0.09400  0.79390  0.20620  Biso   1.000  C
  H34      1.0000 0.99270  0.80600  0.21790  Biso   1.000  H
  C42      1.0000 0.10480  0.74080  0.15350  Biso   1.000  C
  H35      1.0000 0.01190  0.71620  0.13100  Biso   1.000  H
  C43      1.0000 0.25530  0.72390  0.13390  Biso   1.000  C
  C44      1.0000 0.39440  0.75800  0.17080  Biso   1.000  C
  H36      1.0000 0.49580  0.74580  0.15930  Biso   1.000  H
  C45      1.0000 0.38170  0.81080  0.22540  Biso   1.000  C
  H37      1.0000 0.47570  0.83420  0.25160  Biso   1.000  H
  C46      1.0000 0.38850  0.63090  0.07850  Biso   1.000  C
  H38      1.0000 0.48890  0.63470  0.12570  Biso   1.000  H
  C47      1.0000 0.13720  0.64940  0.99450  Biso   1.000  C
  H39      1.0000 0.03290  0.66670  0.97160  Biso   1.000  H
  C48      1.0000 0.19740  0.59900  0.95740  Biso   1.000  C
  H40      1.0000 0.13940  0.57550  0.90320  Biso   1.000  H
  C49      1.0000 0.22560  0.99400  0.73480  Biso   1.000  C
  H41      1.0000 0.16060  0.02420  0.75510  Biso   1.000  H
  C50      1.0000 0.31560  0.92650  0.64580  Biso   1.000  C
  H42      1.0000 0.32470  0.90110  0.59180  Biso   1.000  H
  C51      1.0000 0.41780  0.92550  0.73860  Biso   1.000  C
  H43      1.0000 0.50950  0.90010  0.76000  Biso   1.000  H
  C52      1.0000 0.43090  0.98540  0.90050  Biso   1.000  C
  C53      1.0000 0.51790  0.94140  0.96420  Biso   1.000  C
  H44      1.0000 0.53090  0.90200  0.94000  Biso   1.000  H
  C54      1.0000 0.41370  0.04360  0.93470  Biso   1.000  C
  H45      1.0000 0.35640  0.07320  0.89050  Biso   1.000  H
  N19      1.0000 0.35750  0.45260  0.10190  Biso   1.000  N
  N20      1.0000 0.27880  0.38500  0.20390  Biso   1.000  N
  N21      1.0000 0.23920  0.16990  0.42720  Biso   1.000  N
  N22      1.0000 0.14430  0.08710  0.48950  Biso   1.000  N
  N23      1.0000 0.30350  0.47020  0.85790  Biso   1.000  N
  N24      1.0000 0.13950  0.46920  0.70430  Biso   1.000  N
  C55      1.0000 0.37380  0.39640  0.13750  Biso   1.000  C
  H46      1.0000 0.44370  0.36720  0.11900  Biso   1.000  H
  C56      1.0000 0.24220  0.48030  0.14850  Biso   1.000  C
  H47      1.0000 0.20570  0.52090  0.13860  Biso   1.000  H
  C57      1.0000 0.19200  0.43930  0.21000  Biso   1.000  C
  H48      1.0000 0.11470  0.44600  0.24890  Biso   1.000  H
  C58      1.0000 0.26820  0.32930  0.25830  Biso   1.000  C
  C59      1.0000 0.40600  0.29390  0.29380  Biso   1.000  C
  H49      1.0000 0.50730  0.30600  0.28210  Biso   1.000  H
  C60      1.0000 0.39520  0.24080  0.34650  Biso   1.000  C
  H50      1.0000 0.48810  0.21620  0.36900  Biso   1.000  H
  C61      1.0000 0.24470  0.22390  0.36610  Biso   1.000  C
  C62      1.0000 0.10560  0.25800  0.32920  Biso   1.000  C
  H51      1.0000 0.00420  0.24580  0.34070  Biso   1.000  H
  C63      1.0000 0.11830  0.31080  0.27460  Biso   1.000  C
  H52      1.0000 0.02430  0.33420  0.24840  Biso   1.000  H
  C64      1.0000 0.11150  0.13090  0.42150  Biso   1.000  C
  H53      1.0000 0.01110  0.13470  0.37430  Biso   1.000  H
  C65      1.0000 0.36280  0.14940  0.50550  Biso   1.000  C
  H54      1.0000 0.46710  0.16670  0.52840  Biso   1.000  H
  C66      1.0000 0.30260  0.09900  0.54260  Biso   1.000  C
  H55      1.0000 0.36060  0.07550  0.59680  Biso   1.000  H
  C67      1.0000 0.27440  0.49400  0.76520  Biso   1.000  C
  H56      1.0000 0.33940  0.52420  0.74490  Biso   1.000  H
  C68      1.0000 0.18440  0.42650  0.85420  Biso   1.000  C
  H57      1.0000 0.17530  0.40110  0.90820  Biso   1.000  H
  C69      1.0000 0.08220  0.42550  0.76140  Biso   1.000  C
  H58      1.0000 0.99050  0.40010  0.74000  Biso   1.000  H
  C70      1.0000 0.06910  0.48540  0.59950  Biso   1.000  C
  C71      1.0000 0.98210  0.44140  0.53580  Biso   1.000  C
  H59      1.0000 0.96910  0.40200  0.56000  Biso   1.000  H
  C72      1.0000 0.08630  0.54360  0.56530  Biso   1.000  C
  H60      1.0000 0.14360  0.57320  0.60950  Biso   1.000  H
  Mn1      1.0000 0.00000  0.00000  0.50000  Biso   1.000  Mn
  Mn2      1.0000 0.50000  0.50000  0.00000  Biso   1.000  Mn
