data_ja203898s_si_006_freeONLY
_audit_creation_date              2015-08-19
_audit_creation_method            'Materials Studio'
_symmetry_space_group_name_H-M    'P1'
_symmetry_Int_Tables_number       1
_symmetry_cell_setting            triclinic
loop_
_symmetry_equiv_pos_as_xyz
  x,y,z
_cell_length_a                    18.5000
_cell_length_b                    18.5000
_cell_length_c                    19.4042
_cell_angle_alpha                 61.5299
_cell_angle_beta                  61.5299
_cell_angle_gamma                 60.0000
loop_
_atom_site_label
_atom_site_type_symbol
_atom_site_fract_x
_atom_site_fract_y
_atom_site_fract_z
_atom_site_U_iso_or_equiv
_atom_site_adp_type
_atom_site_occupancy
Cu1    Cu    0.51169   0.95594   0.57431   0.01267  Uiso   1.00
Cu2    Cu    0.48831   0.04406   0.42569   0.01267  Uiso   1.00
Cu3    Cu    0.95806   0.51169   0.57431   0.01267  Uiso   1.00
Cu4    Cu    0.04194   0.48831   0.42569   0.01267  Uiso   1.00
Cu5    Cu    0.95594   0.95806   0.57431   0.01267  Uiso   1.00
Cu6    Cu    0.04406   0.04194   0.42569   0.01267  Uiso   1.00
H1     H     0.99169   0.26097   0.48383   0.01267  Uiso   1.00
H2     H     0.14400   0.98660   0.27103   0.01267  Uiso   1.00
H3     H     0.37209   0.09040   0.33694   0.01267  Uiso   1.00
H4     H     0.34456   0.39174   0.17842   0.01267  Uiso   1.00
H5     H     0.79943   0.62791   0.66306   0.01267  Uiso   1.00
H6     H     0.71035   0.75361   0.99090   0.01267  Uiso   1.00
H7     H     0.41372   0.56294   0.00557   0.01267  Uiso   1.00
H8     H     0.28965   0.24639   0.00910   0.01267  Uiso   1.00
H9     H     0.66682   0.78583   0.77883   0.01267  Uiso   1.00
H10    H     0.45486   0.28965   0.00910   0.01267  Uiso   1.00
H11    H     0.91472   0.65544   0.82158   0.01267  Uiso   1.00
H12    H     0.90960   0.79943   0.66306   0.01267  Uiso   1.00
H13    H     0.55160   0.27937   0.16384   0.01267  Uiso   1.00
H14    H     0.69968   0.40230   0.86897   0.01267  Uiso   1.00
H15    H     0.79642   0.38551   0.66716   0.01267  Uiso   1.00
H16    H     0.43152   0.74489   0.11597   0.01267  Uiso   1.00
H17    H     0.97095   0.30032   0.13103   0.01267  Uiso   1.00
H18    H     0.21417   0.23148   0.22117   0.01267  Uiso   1.00
H19    H     0.56294   0.01777   0.00557   0.01267  Uiso   1.00
H20    H     0.60929   0.21924   0.33560   0.01267  Uiso   1.00
H21    H     0.59837   0.14400   0.27103   0.01267  Uiso   1.00
H22    H     0.01340   0.40163   0.72897   0.01267  Uiso   1.00
H23    H     0.65544   0.60826   0.82158   0.01267  Uiso   1.00
H24    H     0.27937   0.00519   0.16384   0.01267  Uiso   1.00
H25    H     0.75361   0.54514   0.99090   0.01267  Uiso   1.00
H26    H     0.44840   0.72063   0.83616   0.01267  Uiso   1.00
H27    H     0.16413   0.39071   0.66440   0.01267  Uiso   1.00
H28    H     0.61449   0.84909   0.33284   0.01267  Uiso   1.00
H29    H     0.26351   0.99169   0.48383   0.01267  Uiso   1.00
H30    H     0.43706   0.98223   0.99443   0.01267  Uiso   1.00
H31    H     0.38551   0.15091   0.66716   0.01267  Uiso   1.00
H32    H     0.15091   0.79642   0.66716   0.01267  Uiso   1.00
H33    H     0.56848   0.25511   0.88403   0.01267  Uiso   1.00
H34    H     0.59770   0.97095   0.13103   0.01267  Uiso   1.00
H35    H     0.72063   0.99481   0.83616   0.01267  Uiso   1.00
H36    H     0.00831   0.73903   0.51617   0.01267  Uiso   1.00
H37    H     0.40230   0.02905   0.86897   0.01267  Uiso   1.00
H38    H     0.39071   0.78076   0.66440   0.01267  Uiso   1.00
H39    H     0.02905   0.69968   0.86897   0.01267  Uiso   1.00
H40    H     0.00519   0.55160   0.16384   0.01267  Uiso   1.00
H41    H     0.35168   0.35142   0.10693   0.01267  Uiso   1.00
H42    H     0.29238   0.56848   0.88403   0.01267  Uiso   1.00
H43    H     0.64858   0.81003   0.89307   0.01267  Uiso   1.00
H44    H     0.40163   0.85600   0.72897   0.01267  Uiso   1.00
H45    H     0.73903   0.73649   0.51617   0.01267  Uiso   1.00
H46    H     0.20358   0.61449   0.33284   0.01267  Uiso   1.00
H47    H     0.78076   0.16413   0.66440   0.01267  Uiso   1.00
H48    H     0.60826   0.91472   0.82158   0.01267  Uiso   1.00
H49    H     0.35142   0.18997   0.10693   0.01267  Uiso   1.00
H50    H     0.81003   0.64832   0.89307   0.01267  Uiso   1.00
H51    H     0.21924   0.83587   0.33560   0.01267  Uiso   1.00
H52    H     0.33318   0.21417   0.22117   0.01267  Uiso   1.00
H53    H     0.74489   0.70762   0.11597   0.01267  Uiso   1.00
H54    H     0.98660   0.59837   0.27103   0.01267  Uiso   1.00
H55    H     0.99481   0.44840   0.83616   0.01267  Uiso   1.00
H56    H     0.83587   0.60929   0.33560   0.01267  Uiso   1.00
H57    H     0.08528   0.34456   0.17842   0.01267  Uiso   1.00
H58    H     0.73649   0.00831   0.51617   0.01267  Uiso   1.00
H59    H     0.18997   0.35168   0.10693   0.01267  Uiso   1.00
H60    H     0.30032   0.59770   0.13103   0.01267  Uiso   1.00
H61    H     0.39174   0.08528   0.17842   0.01267  Uiso   1.00
H62    H     0.58628   0.43706   0.99443   0.01267  Uiso   1.00
H63    H     0.25511   0.29238   0.88403   0.01267  Uiso   1.00
H64    H     0.62791   0.90960   0.66306   0.01267  Uiso   1.00
H65    H     0.78583   0.76852   0.77883   0.01267  Uiso   1.00
H66    H     0.26097   0.26351   0.48383   0.01267  Uiso   1.00
H67    H     0.20057   0.37209   0.33694   0.01267  Uiso   1.00
H68    H     0.09040   0.20057   0.33694   0.01267  Uiso   1.00
H69    H     0.01777   0.41372   0.00557   0.01267  Uiso   1.00
H70    H     0.54514   0.71035   0.99090   0.01267  Uiso   1.00
H71    H     0.23148   0.33318   0.22117   0.01267  Uiso   1.00
H72    H     0.76852   0.66682   0.77883   0.01267  Uiso   1.00
H73    H     0.64832   0.64858   0.89307   0.01267  Uiso   1.00
H74    H     0.84909   0.20358   0.33284   0.01267  Uiso   1.00
H75    H     0.70762   0.43152   0.11597   0.01267  Uiso   1.00
H76    H     0.85600   0.01340   0.72897   0.01267  Uiso   1.00
H77    H     0.24639   0.45486   0.00910   0.01267  Uiso   1.00
H78    H     0.98223   0.58628   0.99443   0.01267  Uiso   1.00
C1     C     0.22468   0.57265   0.90824   0.01267  Uiso   1.00
C2     C     0.16346   0.64153   0.86840   0.01267  Uiso   1.00
C3     C     0.42735   0.70557   0.09176   0.01267  Uiso   1.00
C4     C     0.80191   0.49213   0.02060   0.01267  Uiso   1.00
C5     C     0.05579   0.61367   0.45359   0.01267  Uiso   1.00
C6     C     0.58178   0.39794   0.97028   0.01267  Uiso   1.00
C7     C     0.60206   0.95000   0.02972   0.01267  Uiso   1.00
C8     C     0.16040   0.41372   0.29656   0.01267  Uiso   1.00
C9     C     0.60233   0.06738   0.46322   0.01267  Uiso   1.00
C10    C     0.33634   0.88909   0.56747   0.01267  Uiso   1.00
C11    C     0.81266   0.21140   0.63734   0.01267  Uiso   1.00
C12    C     0.51190   0.36781   0.01000   0.01267  Uiso   1.00
C13    C     0.11091   0.79290   0.43253   0.01267  Uiso   1.00
C14    C     0.20710   0.33634   0.56747   0.01267  Uiso   1.00
C15    C     0.32661   0.16346   0.86840   0.01267  Uiso   1.00
C16    C     0.07634   0.64629   0.89999   0.01267  Uiso   1.00
C17    C     0.16048   0.03987   0.26092   0.01267  Uiso   1.00
C18    C     0.03987   0.53873   0.26092   0.01267  Uiso   1.00
C19    C     0.21938   0.72577   0.32501   0.01267  Uiso   1.00
C20    C     0.10098   0.67196   0.42641   0.01267  Uiso   1.00
C21    C     0.17666   0.38938   0.23200   0.01267  Uiso   1.00
C22    C     0.87068   0.83960   0.70344   0.01267  Uiso   1.00
C23    C     0.05129   0.51301   0.19858   0.01267  Uiso   1.00
C24    C     0.20196   0.17666   0.23200   0.01267  Uiso   1.00
C25    C     0.83952   0.96013   0.73908   0.01267  Uiso   1.00
C26    C     0.79804   0.82334   0.76800   0.01267  Uiso   1.00
C27    C     0.88971   0.48810   0.99000   0.01267  Uiso   1.00
C28    C     0.46127   0.83952   0.73908   0.01267  Uiso   1.00
C29    C     0.73367   0.73276   0.46478   0.01267  Uiso   1.00
C30    C     0.56578   0.73927   0.81336   0.01267  Uiso   1.00
C31    C     0.48699   0.76288   0.80142   0.01267  Uiso   1.00
C32    C     0.12159   0.39058   0.13609   0.01267  Uiso   1.00
C33    C     0.76288   0.94871   0.80142   0.01267  Uiso   1.00
C34    C     0.35847   0.67339   0.13160   0.01267  Uiso   1.00
C35    C     0.37738   0.07634   0.89999   0.01267  Uiso   1.00
C36    C     0.43422   0.26073   0.18664   0.01267  Uiso   1.00
C37    C     0.72577   0.72984   0.32501   0.01267  Uiso   1.00
C38    C     0.19935   0.89902   0.57359   0.01267  Uiso   1.00
C39    C     0.18734   0.78860   0.36266   0.01267  Uiso   1.00
C40    C     0.67196   0.80065   0.42641   0.01267  Uiso   1.00
C41    C     0.86707   0.60233   0.46322   0.01267  Uiso   1.00
C42    C     0.12305   0.94421   0.54641   0.01267  Uiso   1.00
C43    C     0.68536   0.80191   0.02060   0.01267  Uiso   1.00
C44    C     0.83960   0.58628   0.70344   0.01267  Uiso   1.00
C45    C     0.39058   0.35174   0.13609   0.01267  Uiso   1.00
C46    C     0.26724   0.93121   0.53522   0.01267  Uiso   1.00
C47    C     0.27423   0.27016   0.67499   0.01267  Uiso   1.00
C48    C     0.29443   0.22468   0.90824   0.01267  Uiso   1.00
C49    C     0.67339   0.83654   0.13160   0.01267  Uiso   1.00
C50    C     0.64826   0.87841   0.86391   0.01267  Uiso   1.00
C51    C     0.92366   0.35371   0.10001   0.01267  Uiso   1.00
C52    C     0.78860   0.66140   0.36266   0.01267  Uiso   1.00
C53    C     0.41822   0.60206   0.02972   0.01267  Uiso   1.00
C54    C     0.60942   0.64826   0.86391   0.01267  Uiso   1.00
C55    C     0.48810   0.63219   0.99000   0.01267  Uiso   1.00
C56    C     0.80065   0.10098   0.42641   0.01267  Uiso   1.00
C57    C     0.58628   0.87068   0.70344   0.01267  Uiso   1.00
C58    C     0.11029   0.51190   0.01000   0.01267  Uiso   1.00
C59    C     0.32804   0.19935   0.57359   0.01267  Uiso   1.00
C60    C     0.05000   0.58178   0.97028   0.01267  Uiso   1.00
C61    C     0.96013   0.46127   0.73908   0.01267  Uiso   1.00
C62    C     0.79707   0.17760   0.35978   0.01267  Uiso   1.00
C63    C     0.50787   0.31464   0.97940   0.01267  Uiso   1.00
C64    C     0.26073   0.11841   0.18664   0.01267  Uiso   1.00
C65    C     0.26633   0.26724   0.53522   0.01267  Uiso   1.00
C66    C     0.73276   0.06879   0.46478   0.01267  Uiso   1.00
C67    C     0.94421   0.38633   0.54641   0.01267  Uiso   1.00
C68    C     0.35371   0.62262   0.10001   0.01267  Uiso   1.00
C69    C     0.36781   0.11029   0.01000   0.01267  Uiso   1.00
C70    C     0.33445   0.20293   0.64022   0.01267  Uiso   1.00
C71    C     0.35174   0.12159   0.13609   0.01267  Uiso   1.00
C72    C     0.27016   0.78062   0.67499   0.01267  Uiso   1.00
C73    C     0.94871   0.48699   0.80142   0.01267  Uiso   1.00
C74    C     0.83654   0.35847   0.13160   0.01267  Uiso   1.00
C75    C     0.82240   0.33445   0.64022   0.01267  Uiso   1.00
C76    C     0.72984   0.21938   0.32501   0.01267  Uiso   1.00
C77    C     0.06738   0.86707   0.46322   0.01267  Uiso   1.00
C78    C     0.66366   0.11091   0.43253   0.01267  Uiso   1.00
C79    C     0.88909   0.20710   0.56747   0.01267  Uiso   1.00
C80    C     0.39794   0.05000   0.97028   0.01267  Uiso   1.00
C81    C     0.66140   0.18734   0.36266   0.01267  Uiso   1.00
C82    C     0.38633   0.12305   0.54641   0.01267  Uiso   1.00
C83    C     0.33860   0.81266   0.63734   0.01267  Uiso   1.00
C84    C     0.64153   0.32661   0.86840   0.01267  Uiso   1.00
C85    C     0.41372   0.12932   0.29656   0.01267  Uiso   1.00
C86    C     0.87695   0.05579   0.45359   0.01267  Uiso   1.00
C87    C     0.95000   0.41822   0.02972   0.01267  Uiso   1.00
C88    C     0.89902   0.32804   0.57359   0.01267  Uiso   1.00
C89    C     0.93262   0.13293   0.53678   0.01267  Uiso   1.00
C90    C     0.38938   0.20196   0.23200   0.01267  Uiso   1.00
C91    C     0.23712   0.05129   0.19858   0.01267  Uiso   1.00
C92    C     0.51301   0.23712   0.19858   0.01267  Uiso   1.00
C93    C     0.66555   0.79707   0.35978   0.01267  Uiso   1.00
C94    C     0.57265   0.29443   0.90824   0.01267  Uiso   1.00
C95    C     0.39767   0.93262   0.53678   0.01267  Uiso   1.00
C96    C     0.70557   0.77532   0.09176   0.01267  Uiso   1.00
C97    C     0.79290   0.66366   0.43253   0.01267  Uiso   1.00
C98    C     0.49213   0.68536   0.02060   0.01267  Uiso   1.00
C99    C     0.19809   0.50787   0.97940   0.01267  Uiso   1.00
C100   C     0.61062   0.79804   0.76800   0.01267  Uiso   1.00
C101   C     0.17760   0.66555   0.35978   0.01267  Uiso   1.00
C102   C     0.82334   0.61062   0.76800   0.01267  Uiso   1.00
C103   C     0.61367   0.87695   0.45359   0.01267  Uiso   1.00
C104   C     0.87841   0.60942   0.86391   0.01267  Uiso   1.00
C105   C     0.73927   0.88159   0.81336   0.01267  Uiso   1.00
C106   C     0.13293   0.39767   0.53678   0.01267  Uiso   1.00
C107   C     0.63219   0.88971   0.99000   0.01267  Uiso   1.00
C108   C     0.20293   0.82240   0.64022   0.01267  Uiso   1.00
C109   C     0.64629   0.37738   0.89999   0.01267  Uiso   1.00
C110   C     0.11841   0.43422   0.18664   0.01267  Uiso   1.00
C111   C     0.78062   0.27423   0.67499   0.01267  Uiso   1.00
C112   C     0.53873   0.16048   0.26092   0.01267  Uiso   1.00
C113   C     0.88159   0.56578   0.81336   0.01267  Uiso   1.00
C114   C     0.93121   0.26633   0.53522   0.01267  Uiso   1.00
C115   C     0.06879   0.73367   0.46478   0.01267  Uiso   1.00
C116   C     0.77532   0.42735   0.09176   0.01267  Uiso   1.00
C117   C     0.62262   0.92366   0.10001   0.01267  Uiso   1.00
C118   C     0.31464   0.19809   0.97940   0.01267  Uiso   1.00
C119   C     0.12932   0.16040   0.29656   0.01267  Uiso   1.00
C120   C     0.21140   0.33860   0.63734   0.01267  Uiso   1.00
N1     N     0.71178   0.27345   0.75227   0.01267  Uiso   1.00
N2     N     0.51567   0.88679   0.68670   0.01267  Uiso   1.00
N3     N     0.91084   0.51567   0.68670   0.01267  Uiso   1.00
N4     N     0.70633   0.31402   0.79313   0.01267  Uiso   1.00
N5     N     0.81348   0.29367   0.20687   0.01267  Uiso   1.00
N6     N     0.08916   0.48433   0.31330   0.01267  Uiso   1.00
N7     N     0.31402   0.18652   0.79313   0.01267  Uiso   1.00
N8     N     0.28822   0.72655   0.24773   0.01267  Uiso   1.00
N9     N     0.27345   0.26250   0.75227   0.01267  Uiso   1.00
N10    N     0.68598   0.81348   0.20687   0.01267  Uiso   1.00
N11    N     0.26250   0.71178   0.75227   0.01267  Uiso   1.00
N12    N     0.72655   0.73750   0.24773   0.01267  Uiso   1.00
N13    N     0.88679   0.91084   0.68670   0.01267  Uiso   1.00
N14    N     0.18652   0.70633   0.79313   0.01267  Uiso   1.00
N15    N     0.11321   0.08916   0.31330   0.01267  Uiso   1.00
N16    N     0.48433   0.11321   0.31330   0.01267  Uiso   1.00
N17    N     0.29367   0.68598   0.20687   0.01267  Uiso   1.00
N18    N     0.73750   0.28822   0.24773   0.01267  Uiso   1.00
O1     O     0.98799   0.13572   0.46535   0.01267  Uiso   1.00
O2     O     0.87252   0.00319   0.52604   0.01267  Uiso   1.00
O3     O     0.39163   0.08084   0.07717   0.01267  Uiso   1.00
O4     O     0.05454   0.92589   0.59552   0.01267  Uiso   1.00
O5     O     0.92589   0.42405   0.59552   0.01267  Uiso   1.00
O6     O     0.12748   0.99681   0.47396   0.01267  Uiso   1.00
O7     O     0.45036   0.39163   0.07717   0.01267  Uiso   1.00
O8     O     0.58906   0.01201   0.53465   0.01267  Uiso   1.00
O9     O     0.07411   0.57595   0.40448   0.01267  Uiso   1.00
O10    O     0.91582   0.06435   0.58529   0.01267  Uiso   1.00
O11    O     0.08084   0.45036   0.07717   0.01267  Uiso   1.00
O12    O     0.43454   0.91582   0.58529   0.01267  Uiso   1.00
O13    O     0.59825   0.87252   0.52604   0.01267  Uiso   1.00
O14    O     0.56546   0.08418   0.41471   0.01267  Uiso   1.00
O15    O     0.91916   0.54964   0.92283   0.01267  Uiso   1.00
O16    O     0.40175   0.12748   0.47396   0.01267  Uiso   1.00
O17    O     0.60837   0.91916   0.92283   0.01267  Uiso   1.00
O18    O     0.93565   0.56546   0.41471   0.01267  Uiso   1.00
O19    O     0.94546   0.07411   0.40448   0.01267  Uiso   1.00
O20    O     0.86428   0.58906   0.53465   0.01267  Uiso   1.00
O21    O     0.41094   0.98799   0.46535   0.01267  Uiso   1.00
O22    O     0.99681   0.40175   0.47396   0.01267  Uiso   1.00
O23    O     0.54964   0.60837   0.92283   0.01267  Uiso   1.00
O24    O     0.42405   0.05454   0.59552   0.01267  Uiso   1.00
O25    O     0.08418   0.93565   0.41471   0.01267  Uiso   1.00
O26    O     0.13572   0.41094   0.46535   0.01267  Uiso   1.00
O27    O     0.06435   0.43454   0.58529   0.01267  Uiso   1.00
O28    O     0.01201   0.86428   0.53465   0.01267  Uiso   1.00
O29    O     0.57595   0.94546   0.40448   0.01267  Uiso   1.00
O30    O     0.00319   0.59825   0.52604   0.01267  Uiso   1.00
