data_ja205976v_si_006_freeONLY
_audit_creation_date              2015-08-19
_audit_creation_method            'Materials Studio'
_symmetry_space_group_name_H-M    'P1'
_symmetry_Int_Tables_number       1
_symmetry_cell_setting            triclinic
loop_
_symmetry_equiv_pos_as_xyz
  x,y,z
_cell_length_a                    6.8423
_cell_length_b                    15.2763
_cell_length_c                    15.2763
_cell_angle_alpha                 62.1885
_cell_angle_beta                  81.4136
_cell_angle_gamma                 98.5864
loop_
_atom_site_label
_atom_site_type_symbol
_atom_site_fract_x
_atom_site_fract_y
_atom_site_fract_z
_atom_site_U_iso_or_equiv
_atom_site_adp_type
_atom_site_occupancy
Fe1    Fe    0.52190   0.41360   0.26670   0.01267  Uiso   1.00
Fe2    Fe    0.78860   0.26670   0.31970   0.01267  Uiso   1.00
Fe3    Fe    0.21140   0.73330   0.68030   0.01267  Uiso   1.00
Fe4    Fe    0.47810   0.58640   0.73330   0.01267  Uiso   1.00
Fe5    Fe    0.10830   0.31970   0.41360   0.01267  Uiso   1.00
Fe6    Fe    0.89170   0.68030   0.58640   0.01267  Uiso   1.00
H1     H     0.64330   0.44760   0.01970   0.01267  Uiso   1.00
H2     H     0.19570   0.53270   0.44760   0.01267  Uiso   1.00
H3     H     0.33700   0.98030   0.46730   0.01267  Uiso   1.00
H4     H     0.80430   0.46730   0.55240   0.01267  Uiso   1.00
H5     H     0.66300   0.01970   0.53270   0.01267  Uiso   1.00
H6     H     0.35670   0.55240   0.98030   0.01267  Uiso   1.00
C1     C     0.79380   0.00860   0.52460   0.01267  Uiso   1.00
C2     C     0.78520   0.46680   0.00860   0.01267  Uiso   1.00
C3     C     0.25530   0.60980   0.56260   0.01267  Uiso   1.00
C4     C     0.13290   0.56560   0.89840   0.01267  Uiso   1.00
C5     C     0.96870   0.10160   0.46400   0.01267  Uiso   1.00
C6     C     0.08810   0.46400   0.08110   0.01267  Uiso   1.00
C7     C     0.74470   0.39020   0.43740   0.01267  Uiso   1.00
C8     C     0.43270   0.46400   0.43440   0.01267  Uiso   1.00
C9     C     0.64550   0.82760   0.60980   0.01267  Uiso   1.00
C10    C     0.68160   0.47540   0.53320   0.01267  Uiso   1.00
C11    C     0.56730   0.53600   0.56560   0.01267  Uiso   1.00
C12    C     0.91190   0.53600   0.91890   0.01267  Uiso   1.00
C13    C     0.31840   0.52460   0.46680   0.01267  Uiso   1.00
C14    C     0.16920   0.08110   0.45490   0.01267  Uiso   1.00
C15    C     0.81790   0.56260   0.82760   0.01267  Uiso   1.00
C16    C     0.62410   0.45490   0.46400   0.01267  Uiso   1.00
C17    C     0.83080   0.91890   0.54510   0.01267  Uiso   1.00
C18    C     0.18210   0.43740   0.17240   0.01267  Uiso   1.00
C19    C     0.20620   0.99140   0.47540   0.01267  Uiso   1.00
C20    C     0.37590   0.54510   0.53600   0.01267  Uiso   1.00
C21    C     0.35450   0.17240   0.39020   0.01267  Uiso   1.00
C22    C     0.21480   0.53320   0.99140   0.01267  Uiso   1.00
C23    C     0.86710   0.43440   0.10160   0.01267  Uiso   1.00
C24    C     0.03130   0.89840   0.53600   0.01267  Uiso   1.00
O1     O     0.27060   0.63140   0.80730   0.01267  Uiso   1.00
O2     O     0.36080   0.43870   0.36860   0.01267  Uiso   1.00
O3     O     0.47980   0.85810   0.62440   0.01267  Uiso   1.00
O4     O     0.62170   0.51750   0.85810   0.01267  Uiso   1.00
O5     O     0.33130   0.26230   0.36010   0.01267  Uiso   1.00
O6     O     0.07790   0.80730   0.56130   0.01267  Uiso   1.00
O7     O     0.10420   0.62440   0.51750   0.01267  Uiso   1.00
O8     O     0.06900   0.37760   0.26230   0.01267  Uiso   1.00
O9     O     0.66870   0.73770   0.63990   0.01267  Uiso   1.00
O10    O     0.30860   0.63990   0.62240   0.01267  Uiso   1.00
O11    O     0.63920   0.56130   0.63140   0.01267  Uiso   1.00
O12    O     0.89580   0.37560   0.48250   0.01267  Uiso   1.00
O13    O     0.69140   0.36010   0.37760   0.01267  Uiso   1.00
O14    O     0.72940   0.36860   0.19270   0.01267  Uiso   1.00
O15    O     0.92210   0.19270   0.43870   0.01267  Uiso   1.00
O16    O     0.37830   0.48250   0.14190   0.01267  Uiso   1.00
O17    O     0.93100   0.62240   0.73770   0.01267  Uiso   1.00
O18    O     0.52020   0.14190   0.37560   0.01267  Uiso   1.00
