data_ja203898s_si_004_freeONLY
_audit_creation_date              2015-08-19
_audit_creation_method            'Materials Studio'
_symmetry_space_group_name_H-M    'P1'
_symmetry_Int_Tables_number       1
_symmetry_cell_setting            triclinic
loop_
_symmetry_equiv_pos_as_xyz
  x,y,z
_cell_length_a                    15.6998
_cell_length_b                    15.6998
_cell_length_c                    15.6998
_cell_angle_alpha                 71.9993
_cell_angle_beta                  71.9993
_cell_angle_gamma                 71.9993
loop_
_atom_site_label
_atom_site_type_symbol
_atom_site_fract_x
_atom_site_fract_y
_atom_site_fract_z
_atom_site_U_iso_or_equiv
_atom_site_adp_type
_atom_site_occupancy
Cu1    Cu    0.94595   0.51665   0.94445   0.01267  Uiso   1.00
Cu2    Cu    0.51665   0.94445   0.94595   0.01267  Uiso   1.00
Cu3    Cu    0.05405   0.48335   0.05555   0.01267  Uiso   1.00
Cu4    Cu    0.94445   0.94595   0.51665   0.01267  Uiso   1.00
Cu5    Cu    0.05555   0.05405   0.48335   0.01267  Uiso   1.00
Cu6    Cu    0.48335   0.05555   0.05405   0.01267  Uiso   1.00
H1     H     0.34480   0.12460   0.22820   0.01267  Uiso   1.00
H2     H     0.19890   0.59390   0.33080   0.01267  Uiso   1.00
H3     H     0.22820   0.34480   0.12460   0.01267  Uiso   1.00
H4     H     0.87870   0.24750   0.65450   0.01267  Uiso   1.00
H5     H     0.76060   0.12340   0.33740   0.01267  Uiso   1.00
H6     H     0.26130   0.96860   0.25070   0.01267  Uiso   1.00
H7     H     0.33740   0.76060   0.12340   0.01267  Uiso   1.00
H8     H     0.66260   0.23940   0.87660   0.01267  Uiso   1.00
H9     H     0.35290   0.71890   0.88530   0.01267  Uiso   1.00
H10    H     0.66920   0.80110   0.40610   0.01267  Uiso   1.00
H11    H     0.73870   0.03140   0.74930   0.01267  Uiso   1.00
H12    H     0.65520   0.87540   0.77180   0.01267  Uiso   1.00
H13    H     0.23940   0.87660   0.66260   0.01267  Uiso   1.00
H14    H     0.24750   0.65450   0.87870   0.01267  Uiso   1.00
H15    H     0.11470   0.64710   0.28110   0.01267  Uiso   1.00
H16    H     0.87660   0.66260   0.23940   0.01267  Uiso   1.00
H17    H     0.33080   0.19890   0.59390   0.01267  Uiso   1.00
H18    H     0.34380   0.18370   0.34860   0.01267  Uiso   1.00
H19    H     0.81620   0.91630   0.42110   0.01267  Uiso   1.00
H20    H     0.12340   0.33740   0.76060   0.01267  Uiso   1.00
H21    H     0.64710   0.28110   0.11470   0.01267  Uiso   1.00
H22    H     0.65450   0.87870   0.24750   0.01267  Uiso   1.00
H23    H     0.74930   0.73870   0.03140   0.01267  Uiso   1.00
H24    H     0.65140   0.65620   0.81630   0.01267  Uiso   1.00
H25    H     0.52930   0.75090   0.67660   0.01267  Uiso   1.00
H26    H     0.12460   0.22820   0.34480   0.01267  Uiso   1.00
H27    H     0.40610   0.66920   0.80110   0.01267  Uiso   1.00
H28    H     0.28110   0.11470   0.64710   0.01267  Uiso   1.00
H29    H     0.59390   0.33080   0.19890   0.01267  Uiso   1.00
H30    H     0.42110   0.81620   0.91630   0.01267  Uiso   1.00
H31    H     0.67660   0.52930   0.75090   0.01267  Uiso   1.00
H32    H     0.47070   0.24910   0.32340   0.01267  Uiso   1.00
H33    H     0.08370   0.57890   0.18380   0.01267  Uiso   1.00
H34    H     0.25070   0.26130   0.96860   0.01267  Uiso   1.00
H35    H     0.87540   0.77180   0.65520   0.01267  Uiso   1.00
H36    H     0.12130   0.75250   0.34550   0.01267  Uiso   1.00
H37    H     0.88530   0.35290   0.71890   0.01267  Uiso   1.00
H38    H     0.03140   0.74930   0.73870   0.01267  Uiso   1.00
H39    H     0.96860   0.25070   0.26130   0.01267  Uiso   1.00
H40    H     0.77180   0.65520   0.87540   0.01267  Uiso   1.00
H41    H     0.34550   0.12130   0.75250   0.01267  Uiso   1.00
H42    H     0.75250   0.34550   0.12130   0.01267  Uiso   1.00
H43    H     0.34860   0.34380   0.18370   0.01267  Uiso   1.00
H44    H     0.32340   0.47070   0.24910   0.01267  Uiso   1.00
H45    H     0.71890   0.88530   0.35290   0.01267  Uiso   1.00
H46    H     0.75090   0.67660   0.52930   0.01267  Uiso   1.00
H47    H     0.18380   0.08370   0.57890   0.01267  Uiso   1.00
H48    H     0.81630   0.65140   0.65620   0.01267  Uiso   1.00
H49    H     0.65620   0.81630   0.65140   0.01267  Uiso   1.00
H50    H     0.24910   0.32340   0.47070   0.01267  Uiso   1.00
H51    H     0.57890   0.18380   0.08370   0.01267  Uiso   1.00
H52    H     0.91630   0.42110   0.81620   0.01267  Uiso   1.00
H53    H     0.18370   0.34860   0.34380   0.01267  Uiso   1.00
H54    H     0.80110   0.40610   0.66920   0.01267  Uiso   1.00
C1     C     0.39140   0.18560   0.29370   0.01267  Uiso   1.00
C2     C     0.60860   0.81440   0.70630   0.01267  Uiso   1.00
C3     C     0.37960   0.92130   0.11220   0.01267  Uiso   1.00
C4     C     0.31080   0.87110   0.17390   0.01267  Uiso   1.00
C5     C     0.17390   0.31080   0.87110   0.01267  Uiso   1.00
C6     C     0.72320   0.53290   0.77570   0.01267  Uiso   1.00
C7     C     0.21050   0.82890   0.70230   0.01267  Uiso   1.00
C8     C     0.38560   0.72870   0.81940   0.01267  Uiso   1.00
C9     C     0.53360   0.22820   0.19980   0.01267  Uiso   1.00
C10    C     0.82390   0.12680   0.69200   0.01267  Uiso   1.00
C11    C     0.12890   0.82610   0.68920   0.01267  Uiso   1.00
C12    C     0.77570   0.72320   0.53290   0.01267  Uiso   1.00
C13    C     0.07610   0.62210   0.88660   0.01267  Uiso   1.00
C14    C     0.88660   0.07610   0.62210   0.01267  Uiso   1.00
C15    C     0.69200   0.82390   0.12680   0.01267  Uiso   1.00
C16    C     0.11340   0.92390   0.37790   0.01267  Uiso   1.00
C17    C     0.82610   0.68920   0.12890   0.01267  Uiso   1.00
C18    C     0.74670   0.23350   0.23040   0.01267  Uiso   1.00
C19    C     0.07870   0.88780   0.62040   0.01267  Uiso   1.00
C20    C     0.15040   0.22060   0.39470   0.01267  Uiso   1.00
C21    C     0.11220   0.37960   0.92130   0.01267  Uiso   1.00
C22    C     0.77940   0.60530   0.84960   0.01267  Uiso   1.00
C23    C     0.08590   0.75560   0.74780   0.01267  Uiso   1.00
C24    C     0.39470   0.15040   0.22060   0.01267  Uiso   1.00
C25    C     0.70630   0.60860   0.81440   0.01267  Uiso   1.00
C26    C     0.76960   0.25330   0.76650   0.01267  Uiso   1.00
C27    C     0.46710   0.22430   0.27680   0.01267  Uiso   1.00
C28    C     0.92130   0.11220   0.37960   0.01267  Uiso   1.00
C29    C     0.82890   0.70230   0.21050   0.01267  Uiso   1.00
C30    C     0.77180   0.80020   0.46640   0.01267  Uiso   1.00
C31    C     0.88780   0.62040   0.07870   0.01267  Uiso   1.00
C32    C     0.17610   0.87320   0.30800   0.01267  Uiso   1.00
C33    C     0.78950   0.17110   0.29770   0.01267  Uiso   1.00
C34    C     0.81440   0.70630   0.60860   0.01267  Uiso   1.00
C35    C     0.86360   0.47120   0.81340   0.01267  Uiso   1.00
C36    C     0.83280   0.21740   0.69660   0.01267  Uiso   1.00
C37    C     0.47120   0.81340   0.86360   0.01267  Uiso   1.00
C38    C     0.75560   0.74780   0.08590   0.01267  Uiso   1.00
C39    C     0.69660   0.83280   0.21740   0.01267  Uiso   1.00
C40    C     0.25220   0.91410   0.24440   0.01267  Uiso   1.00
C41    C     0.30800   0.17610   0.87320   0.01267  Uiso   1.00
C42    C     0.60530   0.84960   0.77940   0.01267  Uiso   1.00
C43    C     0.92390   0.37790   0.11340   0.01267  Uiso   1.00
C44    C     0.18560   0.29370   0.39140   0.01267  Uiso   1.00
C45    C     0.21740   0.69660   0.83280   0.01267  Uiso   1.00
C46    C     0.19980   0.53360   0.22820   0.01267  Uiso   1.00
C47    C     0.29370   0.39140   0.18560   0.01267  Uiso   1.00
C48    C     0.91410   0.24440   0.25220   0.01267  Uiso   1.00
C49    C     0.30340   0.16720   0.78260   0.01267  Uiso   1.00
C50    C     0.62040   0.07870   0.88780   0.01267  Uiso   1.00
C51    C     0.78260   0.30340   0.16720   0.01267  Uiso   1.00
C52    C     0.61440   0.27130   0.18060   0.01267  Uiso   1.00
C53    C     0.16720   0.78260   0.30340   0.01267  Uiso   1.00
C54    C     0.84960   0.77940   0.60530   0.01267  Uiso   1.00
C55    C     0.23350   0.23040   0.74670   0.01267  Uiso   1.00
C56    C     0.52880   0.18660   0.13640   0.01267  Uiso   1.00
C57    C     0.87320   0.30800   0.17610   0.01267  Uiso   1.00
C58    C     0.18060   0.61440   0.27130   0.01267  Uiso   1.00
C59    C     0.53290   0.77570   0.72320   0.01267  Uiso   1.00
C60    C     0.18660   0.13640   0.52880   0.01267  Uiso   1.00
C61    C     0.68920   0.12890   0.82610   0.01267  Uiso   1.00
C62    C     0.62210   0.88660   0.07610   0.01267  Uiso   1.00
C63    C     0.12680   0.69200   0.82390   0.01267  Uiso   1.00
C64    C     0.74780   0.08590   0.75560   0.01267  Uiso   1.00
C65    C     0.29770   0.78950   0.17110   0.01267  Uiso   1.00
C66    C     0.80020   0.46640   0.77180   0.01267  Uiso   1.00
C67    C     0.72870   0.81940   0.38560   0.01267  Uiso   1.00
C68    C     0.76650   0.76960   0.25330   0.01267  Uiso   1.00
C69    C     0.24440   0.25220   0.91410   0.01267  Uiso   1.00
C70    C     0.22060   0.39470   0.15040   0.01267  Uiso   1.00
C71    C     0.81940   0.38560   0.72870   0.01267  Uiso   1.00
C72    C     0.27130   0.18060   0.61440   0.01267  Uiso   1.00
C73    C     0.13640   0.52880   0.18660   0.01267  Uiso   1.00
C74    C     0.23040   0.74670   0.23350   0.01267  Uiso   1.00
C75    C     0.22820   0.19980   0.53360   0.01267  Uiso   1.00
C76    C     0.87110   0.17390   0.31080   0.01267  Uiso   1.00
C77    C     0.81340   0.86360   0.47120   0.01267  Uiso   1.00
C78    C     0.46640   0.77180   0.80020   0.01267  Uiso   1.00
C79    C     0.70230   0.21050   0.82890   0.01267  Uiso   1.00
C80    C     0.25330   0.76650   0.76960   0.01267  Uiso   1.00
C81    C     0.17110   0.29770   0.78950   0.01267  Uiso   1.00
C82    C     0.27680   0.46710   0.22430   0.01267  Uiso   1.00
C83    C     0.22430   0.27680   0.46710   0.01267  Uiso   1.00
C84    C     0.37790   0.11340   0.92390   0.01267  Uiso   1.00
N1     N     0.45840   0.14850   0.14200   0.01267  Uiso   1.00
N2     N     0.14850   0.14200   0.45840   0.01267  Uiso   1.00
N3     N     0.85150   0.85800   0.54160   0.01267  Uiso   1.00
N4     N     0.54160   0.85150   0.85800   0.01267  Uiso   1.00
N5     N     0.14200   0.45840   0.14850   0.01267  Uiso   1.00
N6     N     0.85800   0.54160   0.85150   0.01267  Uiso   1.00
O1     O     0.98680   0.38950   0.13370   0.01267  Uiso   1.00
O2     O     0.86530   0.60300   0.01900   0.01267  Uiso   1.00
O3     O     0.86630   0.01320   0.61050   0.01267  Uiso   1.00
O4     O     0.61050   0.86630   0.01320   0.01267  Uiso   1.00
O5     O     0.11070   0.58030   0.95770   0.01267  Uiso   1.00
O6     O     0.42180   0.88880   0.03890   0.01267  Uiso   1.00
O7     O     0.95770   0.11070   0.58030   0.01267  Uiso   1.00
O8     O     0.96110   0.57820   0.11120   0.01267  Uiso   1.00
O9     O     0.88930   0.41970   0.04230   0.01267  Uiso   1.00
O10    O     0.79290   0.76600   0.33220   0.01267  Uiso   1.00
O11    O     0.57820   0.11120   0.96110   0.01267  Uiso   1.00
O12    O     0.01900   0.86530   0.60300   0.01267  Uiso   1.00
O13    O     0.39700   0.98100   0.13470   0.01267  Uiso   1.00
O14    O     0.33220   0.79290   0.76600   0.01267  Uiso   1.00
O15    O     0.88880   0.03890   0.42180   0.01267  Uiso   1.00
O16    O     0.13370   0.98680   0.38950   0.01267  Uiso   1.00
O17    O     0.04230   0.88930   0.41970   0.01267  Uiso   1.00
O18    O     0.41970   0.04230   0.88930   0.01267  Uiso   1.00
O19    O     0.23400   0.66780   0.20710   0.01267  Uiso   1.00
O20    O     0.13470   0.39700   0.98100   0.01267  Uiso   1.00
O21    O     0.60300   0.01900   0.86530   0.01267  Uiso   1.00
O22    O     0.58030   0.95770   0.11070   0.01267  Uiso   1.00
O23    O     0.01320   0.61050   0.86630   0.01267  Uiso   1.00
O24    O     0.38950   0.13370   0.98680   0.01267  Uiso   1.00
O25    O     0.98100   0.13470   0.39700   0.01267  Uiso   1.00
O26    O     0.76600   0.33220   0.79290   0.01267  Uiso   1.00
O27    O     0.66780   0.20710   0.23400   0.01267  Uiso   1.00
O28    O     0.03890   0.42180   0.88880   0.01267  Uiso   1.00
O29    O     0.20710   0.23400   0.66780   0.01267  Uiso   1.00
O30    O     0.11120   0.96110   0.57820   0.01267  Uiso   1.00
