data_ja205976v_si_004_freeONLY
_audit_creation_date              2015-08-19
_audit_creation_method            'Materials Studio'
_symmetry_space_group_name_H-M    'P1'
_symmetry_Int_Tables_number       1
_symmetry_cell_setting            triclinic
loop_
_symmetry_equiv_pos_as_xyz
  x,y,z
_cell_length_a                    6.9666
_cell_length_b                    14.9145
_cell_length_c                    14.9145
_cell_angle_alpha                 62.3780
_cell_angle_beta                  81.0426
_cell_angle_gamma                 98.9574
loop_
_atom_site_label
_atom_site_type_symbol
_atom_site_fract_x
_atom_site_fract_y
_atom_site_fract_z
_atom_site_U_iso_or_equiv
_atom_site_adp_type
_atom_site_occupancy
Fe1    Fe    0.79508   0.25865   0.31651   0.01267  Uiso   1.00
Fe2    Fe    0.20492   0.74135   0.68349   0.01267  Uiso   1.00
Fe3    Fe    0.88841   0.68349   0.57516   0.01267  Uiso   1.00
Fe4    Fe    0.11159   0.31651   0.42484   0.01267  Uiso   1.00
Fe5    Fe    0.53643   0.42484   0.25865   0.01267  Uiso   1.00
Fe6    Fe    0.46357   0.57516   0.74135   0.01267  Uiso   1.00
H1     H     0.81590   0.46690   0.54570   0.01267  Uiso   1.00
H2     H     0.63840   0.45430   0.01260   0.01267  Uiso   1.00
H3     H     0.34900   0.98740   0.46690   0.01267  Uiso   1.00
H4     H     0.36160   0.54570   0.98740   0.01267  Uiso   1.00
H5     H     0.18410   0.53310   0.45430   0.01267  Uiso   1.00
H6     H     0.65100   0.01260   0.53310   0.01267  Uiso   1.00
C1     C     0.15750   0.08660   0.44810   0.01267  Uiso   1.00
C2     C     0.86150   0.43320   0.10040   0.01267  Uiso   1.00
C3     C     0.07090   0.46530   0.08660   0.01267  Uiso   1.00
C4     C     0.20830   0.53180   0.99000   0.01267  Uiso   1.00
C5     C     0.67650   0.47820   0.53180   0.01267  Uiso   1.00
C6     C     0.96190   0.10040   0.46640   0.01267  Uiso   1.00
C7     C     0.34440   0.17890   0.38890   0.01267  Uiso   1.00
C8     C     0.03810   0.89960   0.53360   0.01267  Uiso   1.00
C9     C     0.26670   0.61110   0.56780   0.01267  Uiso   1.00
C10    C     0.80170   0.01000   0.52180   0.01267  Uiso   1.00
C11    C     0.73330   0.38890   0.43220   0.01267  Uiso   1.00
C12    C     0.84250   0.91340   0.55190   0.01267  Uiso   1.00
C13    C     0.83450   0.56780   0.82110   0.01267  Uiso   1.00
C14    C     0.57170   0.53360   0.56680   0.01267  Uiso   1.00
C15    C     0.39440   0.55190   0.53470   0.01267  Uiso   1.00
C16    C     0.79170   0.46820   0.01000   0.01267  Uiso   1.00
C17    C     0.32350   0.52180   0.46820   0.01267  Uiso   1.00
C18    C     0.92910   0.53470   0.91340   0.01267  Uiso   1.00
C19    C     0.65560   0.82110   0.61110   0.01267  Uiso   1.00
C20    C     0.19830   0.99000   0.47820   0.01267  Uiso   1.00
C21    C     0.42830   0.46640   0.43320   0.01267  Uiso   1.00
C22    C     0.16550   0.43220   0.17890   0.01267  Uiso   1.00
C23    C     0.60560   0.44810   0.46530   0.01267  Uiso   1.00
C24    C     0.13850   0.56680   0.89960   0.01267  Uiso   1.00
O1     O     0.64240   0.53860   0.84320   0.01267  Uiso   1.00
O2     O     0.51440   0.15680   0.38180   0.01267  Uiso   1.00
O3     O     0.76340   0.55170   0.22900   0.01267  Uiso   1.00
O4     O     0.78830   0.78070   0.44830   0.01267  Uiso   1.00
O5     O     0.89620   0.38180   0.46140   0.01267  Uiso   1.00
O6     O     0.83620   0.15530   0.26020   0.01267  Uiso   1.00
O7     O     0.27490   0.63030   0.80290   0.01267  Uiso   1.00
O8     O     0.66820   0.34130   0.38670   0.01267  Uiso   1.00
O9     O     0.31910   0.41550   0.84470   0.01267  Uiso   1.00
O10    O     0.48560   0.84320   0.61820   0.01267  Uiso   1.00
O11    O     0.16380   0.84470   0.73980   0.01267  Uiso   1.00
O12    O     0.35540   0.43320   0.36970   0.01267  Uiso   1.00
O13    O     0.09640   0.26020   0.58450   0.01267  Uiso   1.00
O14    O     0.99240   0.22900   0.21930   0.01267  Uiso   1.00
O15    O     0.90360   0.73980   0.41550   0.01267  Uiso   1.00
O16    O     0.72510   0.36970   0.19710   0.01267  Uiso   1.00
O17    O     0.67310   0.72800   0.65870   0.01267  Uiso   1.00
O18    O     0.05490   0.38670   0.27200   0.01267  Uiso   1.00
O19    O     0.94510   0.61330   0.72800   0.01267  Uiso   1.00
O20    O     0.68090   0.58450   0.15530   0.01267  Uiso   1.00
O21    O     0.23660   0.44830   0.77100   0.01267  Uiso   1.00
O22    O     0.64460   0.56680   0.63030   0.01267  Uiso   1.00
O23    O     0.35760   0.46140   0.15680   0.01267  Uiso   1.00
O24    O     0.33180   0.65870   0.61330   0.01267  Uiso   1.00
O25    O     0.00760   0.77100   0.78070   0.01267  Uiso   1.00
O26    O     0.21170   0.21930   0.55170   0.01267  Uiso   1.00
O27    O     0.32690   0.27200   0.34130   0.01267  Uiso   1.00
O28    O     0.07780   0.80290   0.56680   0.01267  Uiso   1.00
O29    O     0.10380   0.61820   0.53860   0.01267  Uiso   1.00
O30    O     0.92220   0.19710   0.43320   0.01267  Uiso   1.00
