data_ja206917z_si_001_freeONLY
_audit_creation_date              2015-08-19
_audit_creation_method            'Materials Studio'
_symmetry_space_group_name_H-M    'P1'
_symmetry_Int_Tables_number       1
_symmetry_cell_setting            triclinic
loop_
_symmetry_equiv_pos_as_xyz
  x,y,z
_cell_length_a                    16.0339
_cell_length_b                    19.4110
_cell_length_c                    19.4110
_cell_angle_alpha                 120.0000
_cell_angle_beta                  90.0000
_cell_angle_gamma                 90.0000
loop_
_atom_site_label
_atom_site_type_symbol
_atom_site_fract_x
_atom_site_fract_y
_atom_site_fract_z
_atom_site_U_iso_or_equiv
_atom_site_adp_type
_atom_site_occupancy
Mn1    Mn    0.75000   0.48521   0.51479   0.01267  Uiso   1.00
Mn2    Mn    0.25000   0.51479   0.48521   0.01267  Uiso   1.00
Mn3    Mn    0.91667   0.51479   0.02958   0.01267  Uiso   1.00
Mn4    Mn    0.58333   0.97042   0.48521   0.01267  Uiso   1.00
Mn5    Mn    0.08333   0.02958   0.51479   0.01267  Uiso   1.00
Mn6    Mn    0.41667   0.48521   0.97042   0.01267  Uiso   1.00
Cr1    Cr    0.32515   0.64000   0.80893   0.01267  Uiso   1.00
Cr2    Cr    0.34151   0.36000   0.16893   0.01267  Uiso   1.00
Cr3    Cr    0.84151   0.64000   0.83107   0.01267  Uiso   1.00
Cr4    Cr    0.82515   0.36000   0.19107   0.01267  Uiso   1.00
Cr5    Cr    0.50818   0.16893   0.80893   0.01267  Uiso   1.00
Cr6    Cr    0.67485   0.80893   0.64000   0.01267  Uiso   1.00
Cr7    Cr    0.17485   0.19107   0.36000   0.01267  Uiso   1.00
Cr8    Cr    0.65849   0.16893   0.36000   0.01267  Uiso   1.00
Cr9    Cr    0.15849   0.83107   0.64000   0.01267  Uiso   1.00
Cr10   Cr    0.00818   0.83107   0.19107   0.01267  Uiso   1.00
Cr11   Cr    0.99182   0.19107   0.83107   0.01267  Uiso   1.00
Cr12   Cr    0.49182   0.80893   0.16893   0.01267  Uiso   1.00
C1     C     0.99120   0.93660   0.13650   0.01267  Uiso   1.00
C2     C     0.50230   0.86210   0.32910   0.01267  Uiso   1.00
C3     C     0.13157   0.86080   0.79290   0.01267  Uiso   1.00
C4     C     0.00230   0.13790   0.67090   0.01267  Uiso   1.00
C5     C     0.49770   0.32910   0.86210   0.01267  Uiso   1.00
C6     C     0.53510   0.13920   0.93210   0.01267  Uiso   1.00
C7     C     0.56720   0.07920   0.40820   0.01267  Uiso   1.00
C8     C     0.91200   0.69660   0.12080   0.01267  Uiso   1.00
C9     C     0.84770   0.55230   0.90680   0.01267  Uiso   1.00
C10    C     0.83103   0.53300   0.67090   0.01267  Uiso   1.00
C11    C     0.83563   0.46700   0.13790   0.01267  Uiso   1.00
C12    C     0.31897   0.55230   0.64550   0.01267  Uiso   1.00
C13    C     0.40053   0.67100   0.07920   0.01267  Uiso   1.00
C14    C     0.65787   0.86350   0.80010   0.01267  Uiso   1.00
C15    C     0.43280   0.40820   0.07920   0.01267  Uiso   1.00
C16    C     0.33103   0.46700   0.32910   0.01267  Uiso   1.00
C17    C     0.90053   0.32900   0.92080   0.01267  Uiso   1.00
C18    C     0.96490   0.06790   0.86080   0.01267  Uiso   1.00
C19    C     0.26613   0.32900   0.40820   0.01267  Uiso   1.00
C20    C     0.32453   0.19990   0.06340   0.01267  Uiso   1.00
C21    C     0.68103   0.64550   0.55230   0.01267  Uiso   1.00
C22    C     0.03510   0.86080   0.06790   0.01267  Uiso   1.00
C23    C     0.16897   0.67090   0.53300   0.01267  Uiso   1.00
C24    C     0.41200   0.30340   0.87920   0.01267  Uiso   1.00
C25    C     0.76613   0.67100   0.59180   0.01267  Uiso   1.00
C26    C     0.06720   0.92080   0.59180   0.01267  Uiso   1.00
C27    C     0.16437   0.13790   0.46700   0.01267  Uiso   1.00
C28    C     0.67547   0.06340   0.19990   0.01267  Uiso   1.00
C29    C     0.15230   0.90680   0.55230   0.01267  Uiso   1.00
C30    C     0.86843   0.79290   0.86080   0.01267  Uiso   1.00
C31    C     0.50880   0.86350   0.06340   0.01267  Uiso   1.00
C32    C     0.81897   0.44770   0.35450   0.01267  Uiso   1.00
C33    C     0.92133   0.42420   0.12080   0.01267  Uiso   1.00
C34    C     0.07867   0.12080   0.42420   0.01267  Uiso   1.00
C35    C     0.17547   0.93660   0.80010   0.01267  Uiso   1.00
C36    C     0.36843   0.20710   0.13920   0.01267  Uiso   1.00
C37    C     0.74533   0.57580   0.69660   0.01267  Uiso   1.00
C38    C     0.59947   0.07920   0.67100   0.01267  Uiso   1.00
C39    C     0.73387   0.40820   0.32900   0.01267  Uiso   1.00
C40    C     0.84213   0.19990   0.13650   0.01267  Uiso   1.00
C41    C     0.18103   0.35450   0.44770   0.01267  Uiso   1.00
C42    C     0.98563   0.35450   0.90680   0.01267  Uiso   1.00
C43    C     0.70177   0.93210   0.79290   0.01267  Uiso   1.00
C44    C     0.46490   0.93210   0.13920   0.01267  Uiso   1.00
C45    C     0.65230   0.09320   0.44770   0.01267  Uiso   1.00
C46    C     0.15787   0.13650   0.19990   0.01267  Uiso   1.00
C47    C     0.00880   0.13650   0.93660   0.01267  Uiso   1.00
C48    C     0.75467   0.30340   0.42420   0.01267  Uiso   1.00
C49    C     0.93280   0.59180   0.92080   0.01267  Uiso   1.00
C50    C     0.01437   0.90680   0.35450   0.01267  Uiso   1.00
C51    C     0.58800   0.87920   0.30340   0.01267  Uiso   1.00
C52    C     0.23387   0.59180   0.67100   0.01267  Uiso   1.00
C53    C     0.08800   0.12080   0.69660   0.01267  Uiso   1.00
C54    C     0.82453   0.80010   0.93660   0.01267  Uiso   1.00
C55    C     0.29823   0.79290   0.93210   0.01267  Uiso   1.00
C56    C     0.48563   0.64550   0.09320   0.01267  Uiso   1.00
C57    C     0.25467   0.69660   0.57580   0.01267  Uiso   1.00
C58    C     0.34213   0.80010   0.86350   0.01267  Uiso   1.00
C59    C     0.42133   0.57580   0.87920   0.01267  Uiso   1.00
C60    C     0.24533   0.42420   0.30340   0.01267  Uiso   1.00
C61    C     0.66437   0.86210   0.53300   0.01267  Uiso   1.00
C62    C     0.33563   0.53300   0.86210   0.01267  Uiso   1.00
C63    C     0.63157   0.13920   0.20710   0.01267  Uiso   1.00
C64    C     0.57867   0.87920   0.57580   0.01267  Uiso   1.00
C65    C     0.09947   0.92080   0.32900   0.01267  Uiso   1.00
C66    C     0.99770   0.67090   0.13790   0.01267  Uiso   1.00
C67    C     0.49120   0.06340   0.86350   0.01267  Uiso   1.00
C68    C     0.34770   0.44770   0.09320   0.01267  Uiso   1.00
C69    C     0.66897   0.32910   0.46700   0.01267  Uiso   1.00
C70    C     0.20177   0.06790   0.20710   0.01267  Uiso   1.00
C71    C     0.51437   0.09320   0.64550   0.01267  Uiso   1.00
C72    C     0.79823   0.20710   0.06790   0.01267  Uiso   1.00
O1     O     0.79710   0.56460   0.86318   0.01267  Uiso   1.00
O2     O     0.51040   0.40028   0.88498   0.01267  Uiso   1.00
O3     O     0.82293   0.51530   0.11502   0.01267  Uiso   1.00
O4     O     0.11707   0.72770   0.55230   0.01267  Uiso   1.00
O5     O     0.61707   0.27230   0.44770   0.01267  Uiso   1.00
O6     O     0.32293   0.48470   0.88498   0.01267  Uiso   1.00
O7     O     0.15627   0.59972   0.48470   0.01267  Uiso   1.00
O8     O     0.45040   0.82460   0.27230   0.01267  Uiso   1.00
O9     O     0.98960   0.11502   0.59972   0.01267  Uiso   1.00
O10    O     0.21907   0.08750   0.27910   0.01267  Uiso   1.00
O11    O     0.51600   0.03790   0.41670   0.01267  Uiso   1.00
O12    O     0.84663   0.13440   0.13130   0.01267  Uiso   1.00
O13    O     0.15337   0.13130   0.13440   0.01267  Uiso   1.00
O14    O     0.86957   0.43540   0.29858   0.01267  Uiso   1.00
O15    O     0.38293   0.44770   0.27230   0.01267  Uiso   1.00
O16    O     0.94760   0.08750   0.80840   0.01267  Uiso   1.00
O17    O     0.28483   0.85100   0.99590   0.01267  Uiso   1.00
O18    O     0.71627   0.82460   0.55230   0.01267  Uiso   1.00
O19    O     0.67997   0.00310   0.13440   0.01267  Uiso   1.00
O20    O     0.40530   0.23022   0.85726   0.01267  Uiso   1.00
O21    O     0.36523   0.73350   0.80463   0.01267  Uiso   1.00
O22    O     0.52357   0.91129   0.55640   0.01267  Uiso   1.00
O23    O     0.17707   0.11502   0.51530   0.01267  Uiso   1.00
O24    O     0.03623   0.29858   0.86318   0.01267  Uiso   1.00
O25    O     0.20290   0.86318   0.56460   0.01267  Uiso   1.00
O26    O     0.04850   0.85510   0.00410   0.01267  Uiso   1.00
O27    O     0.48400   0.41670   0.03790   0.01267  Uiso   1.00
O28    O     0.32003   0.13440   0.00310   0.01267  Uiso   1.00
O29    O     0.19023   0.44360   0.35489   0.01267  Uiso   1.00
O30    O     0.05640   0.88597   0.63430   0.01267  Uiso   1.00
O31    O     0.66860   0.06265   0.48910   0.01267  Uiso   1.00
O32    O     0.99807   0.93735   0.42645   0.01267  Uiso   1.00
O33    O     0.49807   0.06265   0.57355   0.01267  Uiso   1.00
O34    O     0.50193   0.57355   0.06265   0.01267  Uiso   1.00
O35    O     0.17997   0.99690   0.86560   0.01267  Uiso   1.00
O36    O     0.55240   0.19160   0.91250   0.01267  Uiso   1.00
O37    O     0.11817   0.85510   0.85100   0.01267  Uiso   1.00
O38    O     0.71907   0.91250   0.72090   0.01267  Uiso   1.00
O39    O     0.44360   0.36570   0.11403   0.01267  Uiso   1.00
O40    O     0.00193   0.42645   0.93735   0.01267  Uiso   1.00
O41    O     0.16860   0.93735   0.51090   0.01267  Uiso   1.00
O42    O     0.85690   0.64511   0.08871   0.01267  Uiso   1.00
O43    O     0.45150   0.99590   0.14490   0.01267  Uiso   1.00
O44    O     0.69023   0.55640   0.64511   0.01267  Uiso   1.00
O45    O     0.48960   0.88498   0.40028   0.01267  Uiso   1.00
O46    O     0.66473   0.57355   0.51090   0.01267  Uiso   1.00
O47    O     0.13477   0.19537   0.26650   0.01267  Uiso   1.00
O48    O     0.69857   0.07113   0.26650   0.01267  Uiso   1.00
O49    O     0.90530   0.76978   0.14274   0.01267  Uiso   1.00
O50    O     0.96377   0.86318   0.29858   0.01267  Uiso   1.00
O51    O     0.18267   0.58330   0.62120   0.01267  Uiso   1.00
O52    O     0.73863   0.62704   0.76978   0.01267  Uiso   1.00
O53    O     0.26137   0.76978   0.62704   0.01267  Uiso   1.00
O54    O     0.83527   0.48910   0.42645   0.01267  Uiso   1.00
O55    O     0.05240   0.80840   0.08750   0.01267  Uiso   1.00
O56    O     0.30977   0.64511   0.55640   0.01267  Uiso   1.00
O57    O     0.15067   0.96210   0.37880   0.01267  Uiso   1.00
O58    O     0.21517   0.00410   0.14900   0.01267  Uiso   1.00
O59    O     0.72307   0.36570   0.25167   0.01267  Uiso   1.00
O60    O     0.84373   0.48470   0.59972   0.01267  Uiso   1.00
O61    O     0.04960   0.72770   0.17540   0.01267  Uiso   1.00
O62    O     0.98670   0.99690   0.13130   0.01267  Uiso   1.00
O63    O     0.09470   0.14274   0.76978   0.01267  Uiso   1.00
O64    O     0.13043   0.29858   0.43540   0.01267  Uiso   1.00
O65    O     0.83140   0.51090   0.93735   0.01267  Uiso   1.00
O66    O     0.64310   0.91129   0.35489   0.01267  Uiso   1.00
O67    O     0.46810   0.07113   0.80463   0.01267  Uiso   1.00
O68    O     0.88293   0.55230   0.72770   0.01267  Uiso   1.00
O69    O     0.53623   0.70142   0.13682   0.01267  Uiso   1.00
O70    O     0.29710   0.43540   0.13682   0.01267  Uiso   1.00
O71    O     0.46377   0.13682   0.70142   0.01267  Uiso   1.00
O72    O     0.84933   0.37880   0.96210   0.01267  Uiso   1.00
O73    O     0.77693   0.74833   0.63430   0.01267  Uiso   1.00
O74    O     0.61027   0.11403   0.74833   0.01267  Uiso   1.00
O75    O     0.61427   0.19160   0.27910   0.01267  Uiso   1.00
O76    O     0.98400   0.58330   0.96210   0.01267  Uiso   1.00
O77    O     0.38573   0.27910   0.19160   0.01267  Uiso   1.00
O78    O     0.67707   0.88498   0.48470   0.01267  Uiso   1.00
O79    O     0.02357   0.08871   0.44360   0.01267  Uiso   1.00
O80    O     0.11427   0.80840   0.72090   0.01267  Uiso   1.00
O81    O     0.34933   0.62120   0.03790   0.01267  Uiso   1.00
O82    O     0.01600   0.96210   0.58330   0.01267  Uiso   1.00
O83    O     0.57197   0.85726   0.62704   0.01267  Uiso   1.00
O84    O     0.47643   0.55640   0.91129   0.01267  Uiso   1.00
O85    O     0.54960   0.27230   0.82460   0.01267  Uiso   1.00
O86    O     0.27693   0.25167   0.36570   0.01267  Uiso   1.00
O87    O     0.14310   0.08871   0.64511   0.01267  Uiso   1.00
O88    O     0.16473   0.42645   0.48910   0.01267  Uiso   1.00
O89    O     0.53190   0.80463   0.07113   0.01267  Uiso   1.00
O90    O     0.22307   0.63430   0.74833   0.01267  Uiso   1.00
O91    O     0.80977   0.35489   0.44360   0.01267  Uiso   1.00
O92    O     0.55640   0.11403   0.36570   0.01267  Uiso   1.00
O93    O     0.82003   0.86560   0.99690   0.01267  Uiso   1.00
O94    O     0.78093   0.27910   0.08750   0.01267  Uiso   1.00
O95    O     0.70290   0.13682   0.43540   0.01267  Uiso   1.00
O96    O     0.28373   0.55230   0.82460   0.01267  Uiso   1.00
O97    O     0.48670   0.00310   0.86870   0.01267  Uiso   1.00
O98    O     0.71517   0.99590   0.85100   0.01267  Uiso   1.00
O99    O     0.33140   0.48910   0.06265   0.01267  Uiso   1.00
O100   O     0.34373   0.51530   0.40028   0.01267  Uiso   1.00
O101   O     0.03190   0.19537   0.92887   0.01267  Uiso   1.00
O102   O     0.11027   0.88597   0.25167   0.01267  Uiso   1.00
O103   O     0.01330   0.13130   0.99690   0.01267  Uiso   1.00
O104   O     0.30143   0.26650   0.07113   0.01267  Uiso   1.00
O105   O     0.42803   0.62704   0.85726   0.01267  Uiso   1.00
O106   O     0.19857   0.92887   0.73350   0.01267  Uiso   1.00
O107   O     0.78483   0.14900   0.00410   0.01267  Uiso   1.00
O108   O     0.80143   0.73350   0.92887   0.01267  Uiso   1.00
O109   O     0.51330   0.86870   0.00310   0.01267  Uiso   1.00
O110   O     0.65067   0.03790   0.62120   0.01267  Uiso   1.00
O111   O     0.34663   0.86560   0.86870   0.01267  Uiso   1.00
O112   O     0.65627   0.40028   0.51530   0.01267  Uiso   1.00
O113   O     0.95150   0.00410   0.85510   0.01267  Uiso   1.00
O114   O     0.88183   0.85100   0.85510   0.01267  Uiso   1.00
O115   O     0.38973   0.74833   0.11403   0.01267  Uiso   1.00
O116   O     0.88573   0.72090   0.80840   0.01267  Uiso   1.00
O117   O     0.95040   0.17540   0.72770   0.01267  Uiso   1.00
O118   O     0.38183   0.14900   0.14490   0.01267  Uiso   1.00
O119   O     0.61817   0.14490   0.14900   0.01267  Uiso   1.00
O120   O     0.97643   0.44360   0.08871   0.01267  Uiso   1.00
O121   O     0.35690   0.35489   0.91129   0.01267  Uiso   1.00
O122   O     0.86523   0.26650   0.19537   0.01267  Uiso   1.00
O123   O     0.63477   0.80463   0.73350   0.01267  Uiso   1.00
O124   O     0.78373   0.44770   0.17540   0.01267  Uiso   1.00
O125   O     0.54850   0.14490   0.99590   0.01267  Uiso   1.00
O126   O     0.36957   0.56460   0.70142   0.01267  Uiso   1.00
O127   O     0.28093   0.72090   0.91250   0.01267  Uiso   1.00
O128   O     0.76137   0.23022   0.37296   0.01267  Uiso   1.00
O129   O     0.21627   0.17540   0.44770   0.01267  Uiso   1.00
O130   O     0.94360   0.63430   0.88597   0.01267  Uiso   1.00
O131   O     0.88973   0.25167   0.88597   0.01267  Uiso   1.00
O132   O     0.01040   0.59972   0.11502   0.01267  Uiso   1.00
O133   O     0.23863   0.37296   0.23022   0.01267  Uiso   1.00
O134   O     0.92803   0.37296   0.14274   0.01267  Uiso   1.00
O135   O     0.44760   0.91250   0.19160   0.01267  Uiso   1.00
O136   O     0.59470   0.85726   0.23022   0.01267  Uiso   1.00
O137   O     0.33527   0.51090   0.57355   0.01267  Uiso   1.00
O138   O     0.81733   0.62120   0.58330   0.01267  Uiso   1.00
O139   O     0.63043   0.70142   0.56460   0.01267  Uiso   1.00
O140   O     0.65337   0.86870   0.86560   0.01267  Uiso   1.00
O141   O     0.96810   0.92887   0.19537   0.01267  Uiso   1.00
O142   O     0.31733   0.37880   0.41670   0.01267  Uiso   1.00
O143   O     0.07197   0.14274   0.37296   0.01267  Uiso   1.00
O144   O     0.68267   0.41670   0.37880   0.01267  Uiso   1.00
