data_ja308995t_si_002_freeONLY
_audit_creation_date              2015-08-19
_audit_creation_method            'Materials Studio'
_symmetry_space_group_name_H-M    'P1'
_symmetry_Int_Tables_number       1
_symmetry_cell_setting            triclinic
loop_
_symmetry_equiv_pos_as_xyz
  x,y,z
_cell_length_a                    4.7982
_cell_length_b                    14.6546
_cell_length_c                    33.0454
_cell_angle_alpha                 90.0000
_cell_angle_beta                  90.0000
_cell_angle_gamma                 92.6760
loop_
_atom_site_label
_atom_site_type_symbol
_atom_site_fract_x
_atom_site_fract_y
_atom_site_fract_z
_atom_site_U_iso_or_equiv
_atom_site_adp_type
_atom_site_occupancy
Zn1    Zn    0.79783   0.41020   0.47170   0.01267  Uiso   1.00
Zn2    Zn    0.79783   0.41020   0.02830   0.01267  Uiso   1.00
Zn3    Zn    0.20217   0.58980   0.97170   0.01267  Uiso   1.00
Zn4    Zn    0.20217   0.58980   0.52830   0.01267  Uiso   1.00
H1     H     0.82252   0.86785   0.15117   0.01267  Uiso   1.00
H2     H     0.68747   0.36073   0.37363   0.01267  Uiso   1.00
H3     H     0.84605   0.90738   0.65622   0.01267  Uiso   1.00
H4     H     0.27718   0.45358   0.61553   0.01267  Uiso   1.00
H5     H     0.67300   0.61223   0.17922   0.01267  Uiso   1.00
H6     H     0.66790   0.21133   0.84367   0.01267  Uiso   1.00
H7     H     0.72282   0.54642   0.11553   0.01267  Uiso   1.00
H8     H     0.60895   0.27657   0.59272   0.01267  Uiso   1.00
H9     H     0.65785   0.01267   0.15122   0.01267  Uiso   1.00
H10    H     0.39105   0.72343   0.40728   0.01267  Uiso   1.00
H11    H     0.60895   0.27657   0.90728   0.01267  Uiso   1.00
H12    H     0.27718   0.45358   0.88447   0.01267  Uiso   1.00
H13    H     0.72282   0.54642   0.38447   0.01267  Uiso   1.00
H14    H     0.94865   0.34295   0.75000   0.01267  Uiso   1.00
H15    H     0.20792   0.72547   0.68303   0.01267  Uiso   1.00
H16    H     0.67300   0.61223   0.32078   0.01267  Uiso   1.00
H17    H     0.56685   0.77770   0.75000   0.01267  Uiso   1.00
H18    H     0.33210   0.78867   0.34367   0.01267  Uiso   1.00
H19    H     0.84605   0.90738   0.84378   0.01267  Uiso   1.00
H20    H     0.15395   0.09262   0.34378   0.01267  Uiso   1.00
H21    H     0.33210   0.78867   0.15633   0.01267  Uiso   1.00
H22    H     0.95990   0.82190   0.59960   0.01267  Uiso   1.00
H23    H     0.31253   0.63927   0.62637   0.01267  Uiso   1.00
H24    H     0.65785   0.01267   0.34878   0.01267  Uiso   1.00
H25    H     0.43315   0.22230   0.25000   0.01267  Uiso   1.00
H26    H     0.39105   0.72343   0.09272   0.01267  Uiso   1.00
H27    H     0.05135   0.65705   0.25000   0.01267  Uiso   1.00
H28    H     0.68747   0.36073   0.12637   0.01267  Uiso   1.00
H29    H     0.34215   0.98733   0.65122   0.01267  Uiso   1.00
H30    H     0.79208   0.27453   0.18303   0.01267  Uiso   1.00
H31    H     0.82252   0.86785   0.34883   0.01267  Uiso   1.00
H32    H     0.95990   0.82190   0.90040   0.01267  Uiso   1.00
H33    H     0.32700   0.38777   0.67922   0.01267  Uiso   1.00
H34    H     0.32700   0.38777   0.82078   0.01267  Uiso   1.00
H35    H     0.20792   0.72547   0.81697   0.01267  Uiso   1.00
H36    H     0.66790   0.21133   0.65633   0.01267  Uiso   1.00
H37    H     0.04010   0.17810   0.40040   0.01267  Uiso   1.00
H38    H     0.79208   0.27453   0.31697   0.01267  Uiso   1.00
H39    H     0.34215   0.98733   0.84878   0.01267  Uiso   1.00
H40    H     0.17748   0.13215   0.84883   0.01267  Uiso   1.00
H41    H     0.15395   0.09262   0.15622   0.01267  Uiso   1.00
H42    H     0.04010   0.17810   0.09960   0.01267  Uiso   1.00
H43    H     0.17748   0.13215   0.65117   0.01267  Uiso   1.00
H44    H     0.31253   0.63927   0.87363   0.01267  Uiso   1.00
C1     C     0.69315   0.98490   0.25000   0.01267  Uiso   1.00
C2     C     0.08337   0.59315   0.44515   0.01267  Uiso   1.00
C3     C     0.73383   0.85302   0.85042   0.01267  Uiso   1.00
C4     C     0.93880   0.37170   0.59693   0.01267  Uiso   1.00
C5     C     0.50405   0.16160   0.25000   0.01267  Uiso   1.00
C6     C     0.54775   0.11970   0.21263   0.01267  Uiso   1.00
C7     C     0.20635   0.10470   0.75000   0.01267  Uiso   1.00
C8     C     0.98255   0.71800   0.25000   0.01267  Uiso   1.00
C9     C     0.51320   0.82665   0.67520   0.01267  Uiso   1.00
C10    C     0.06120   0.62830   0.40307   0.01267  Uiso   1.00
C11    C     0.91663   0.40685   0.55485   0.01267  Uiso   1.00
C12    C     0.27618   0.33398   0.42945   0.01267  Uiso   1.00
C13    C     0.84345   0.85060   0.28687   0.01267  Uiso   1.00
C14    C     0.20915   0.73813   0.14802   0.01267  Uiso   1.00
C15    C     0.84345   0.85060   0.21313   0.01267  Uiso   1.00
C16    C     0.06093   0.23970   0.78745   0.01267  Uiso   1.00
C17    C     0.79085   0.26187   0.85198   0.01267  Uiso   1.00
C18    C     0.64263   0.02955   0.28688   0.01267  Uiso   1.00
C19    C     0.36090   0.74583   0.83445   0.01267  Uiso   1.00
C20    C     0.35498   0.27815   0.39393   0.01267  Uiso   1.00
C21    C     0.35737   0.97045   0.71312   0.01267  Uiso   1.00
C22    C     0.30883   0.01620   0.82310   0.01267  Uiso   1.00
C23    C     0.79202   0.89660   0.17695   0.01267  Uiso   1.00
C24    C     0.49595   0.83840   0.75000   0.01267  Uiso   1.00
C25    C     0.42177   0.69505   0.63127   0.01267  Uiso   1.00
C26    C     0.64502   0.72185   0.89393   0.01267  Uiso   1.00
C27    C     0.26617   0.14698   0.35042   0.01267  Uiso   1.00
C28    C     0.72382   0.66602   0.92945   0.01267  Uiso   1.00
C29    C     0.54775   0.11970   0.28737   0.01267  Uiso   1.00
C30    C     0.73383   0.85302   0.64958   0.01267  Uiso   1.00
C31    C     0.69117   0.98380   0.17690   0.01267  Uiso   1.00
C32    C     0.80063   0.80163   0.61590   0.01267  Uiso   1.00
C33    C     0.08337   0.59315   0.05485   0.01267  Uiso   1.00
C34    C     0.14558   0.40530   0.62358   0.01267  Uiso   1.00
C35    C     0.45225   0.88030   0.71263   0.01267  Uiso   1.00
C36    C     0.35737   0.97045   0.78688   0.01267  Uiso   1.00
C37    C     0.93880   0.37170   0.90307   0.01267  Uiso   1.00
C38    C     0.85442   0.59470   0.12358   0.01267  Uiso   1.00
C39    C     0.14558   0.40530   0.87642   0.01267  Uiso   1.00
C40    C     0.51320   0.82665   0.82480   0.01267  Uiso   1.00
C41    C     0.64502   0.72185   0.60607   0.01267  Uiso   1.00
C42    C     0.48680   0.17335   0.32480   0.01267  Uiso   1.00
C43    C     0.20915   0.73813   0.35198   0.01267  Uiso   1.00
C44    C     0.15655   0.14940   0.78687   0.01267  Uiso   1.00
C45    C     0.17587   0.36615   0.83830   0.01267  Uiso   1.00
C46    C     0.24280   0.69907   0.11015   0.01267  Uiso   1.00
C47    C     0.99377   0.70895   0.32585   0.01267  Uiso   1.00
C48    C     0.17587   0.36615   0.66170   0.01267  Uiso   1.00
C49    C     0.75720   0.30093   0.61015   0.01267  Uiso   1.00
C50    C     0.48680   0.17335   0.17520   0.01267  Uiso   1.00
C51    C     0.64263   0.02955   0.21312   0.01267  Uiso   1.00
C52    C     0.26617   0.14698   0.14958   0.01267  Uiso   1.00
C53    C     0.42177   0.69505   0.86873   0.01267  Uiso   1.00
C54    C     0.99377   0.70895   0.17415   0.01267  Uiso   1.00
C55    C     0.85442   0.59470   0.37642   0.01267  Uiso   1.00
C56    C     0.63910   0.25417   0.33445   0.01267  Uiso   1.00
C57    C     0.20798   0.10340   0.67695   0.01267  Uiso   1.00
C58    C     0.93907   0.76030   0.21255   0.01267  Uiso   1.00
C59    C     0.20798   0.10340   0.82305   0.01267  Uiso   1.00
C60    C     0.79365   0.89530   0.25000   0.01267  Uiso   1.00
C61    C     0.82413   0.63385   0.16170   0.01267  Uiso   1.00
C62    C     0.36090   0.74583   0.66555   0.01267  Uiso   1.00
C63    C     0.72382   0.66602   0.57055   0.01267  Uiso   1.00
C64    C     0.35498   0.27815   0.10607   0.01267  Uiso   1.00
C65    C     0.45225   0.88030   0.78737   0.01267  Uiso   1.00
C66    C     0.06120   0.62830   0.09693   0.01267  Uiso   1.00
C67    C     0.00623   0.29105   0.67415   0.01267  Uiso   1.00
C68    C     0.82413   0.63385   0.33830   0.01267  Uiso   1.00
C69    C     0.27618   0.33398   0.07055   0.01267  Uiso   1.00
C70    C     0.63910   0.25417   0.16555   0.01267  Uiso   1.00
C71    C     0.91663   0.40685   0.94515   0.01267  Uiso   1.00
C72    C     0.75720   0.30093   0.88985   0.01267  Uiso   1.00
C73    C     0.30685   0.01510   0.75000   0.01267  Uiso   1.00
C74    C     0.79085   0.26187   0.64802   0.01267  Uiso   1.00
C75    C     0.19937   0.19837   0.38410   0.01267  Uiso   1.00
C76    C     0.19937   0.19837   0.11590   0.01267  Uiso   1.00
C77    C     0.69117   0.98380   0.32310   0.01267  Uiso   1.00
C78    C     0.80063   0.80163   0.88410   0.01267  Uiso   1.00
C79    C     0.79202   0.89660   0.32305   0.01267  Uiso   1.00
C80    C     0.06093   0.23970   0.71255   0.01267  Uiso   1.00
C81    C     0.57823   0.30495   0.13127   0.01267  Uiso   1.00
C82    C     0.57823   0.30495   0.36873   0.01267  Uiso   1.00
C83    C     0.24280   0.69907   0.38985   0.01267  Uiso   1.00
C84    C     0.93907   0.76030   0.28745   0.01267  Uiso   1.00
C85    C     0.01745   0.28200   0.75000   0.01267  Uiso   1.00
C86    C     0.00623   0.29105   0.82585   0.01267  Uiso   1.00
C87    C     0.15655   0.14940   0.71313   0.01267  Uiso   1.00
C88    C     0.30883   0.01620   0.67690   0.01267  Uiso   1.00
O1     O     0.24920   0.61517   0.02860   0.01267  Uiso   1.00
O2     O     0.07558   0.46068   0.96312   0.01267  Uiso   1.00
O3     O     0.42268   0.39498   0.44507   0.01267  Uiso   1.00
O4     O     0.92442   0.53932   0.03688   0.01267  Uiso   1.00
O5     O     0.24920   0.61517   0.47140   0.01267  Uiso   1.00
O6     O     0.42268   0.39498   0.05493   0.01267  Uiso   1.00
O7     O     0.75080   0.38483   0.97140   0.01267  Uiso   1.00
O8     O     0.95083   0.66982   0.94590   0.01267  Uiso   1.00
O9     O     0.04917   0.33018   0.44590   0.01267  Uiso   1.00
O10    O     0.07558   0.46068   0.53688   0.01267  Uiso   1.00
O11    O     0.95083   0.66982   0.55410   0.01267  Uiso   1.00
O12    O     0.04917   0.33018   0.05410   0.01267  Uiso   1.00
O13    O     0.75080   0.38483   0.52860   0.01267  Uiso   1.00
O14    O     0.57732   0.60502   0.94507   0.01267  Uiso   1.00
O15    O     0.57732   0.60502   0.55493   0.01267  Uiso   1.00
O16    O     0.92442   0.53932   0.46312   0.01267  Uiso   1.00
