data_ja305196u_si_003_freeONLY
_audit_creation_date              2015-08-19
_audit_creation_method            'Materials Studio'
_symmetry_space_group_name_H-M    'P1'
_symmetry_Int_Tables_number       1
_symmetry_cell_setting            triclinic
loop_
_symmetry_equiv_pos_as_xyz
  x,y,z
_cell_length_a                    7.2829
_cell_length_b                    7.2829
_cell_length_c                    8.1691
_cell_angle_alpha                 90.0000
_cell_angle_beta                  90.0000
_cell_angle_gamma                 120.0000
loop_
_atom_site_label
_atom_site_type_symbol
_atom_site_fract_x
_atom_site_fract_y
_atom_site_fract_z
_atom_site_U_iso_or_equiv
_atom_site_adp_type
_atom_site_occupancy
Zn1    Zn    0.66667   0.33334   0.75000   0.01267  Uiso   1.00
Zn2    Zn    0.33333   0.66666   0.25000   0.01267  Uiso   1.00
H1     H     0.00000   0.56540   0.00000   0.01267  Uiso   1.00
H2     H     0.00000   0.43460   0.50000   0.01267  Uiso   1.00
H3     H     0.56540   0.00000   0.00000   0.01267  Uiso   1.00
H4     H     0.43460   0.43460   0.00000   0.01267  Uiso   1.00
H5     H     0.56540   0.56540   0.50000   0.01267  Uiso   1.00
H6     H     0.43460   0.00000   0.50000   0.01267  Uiso   1.00
C1     C     0.56280   0.00000   0.50000   0.01267  Uiso   1.00
C2     C     0.00000   0.56280   0.50000   0.01267  Uiso   1.00
C3     C     0.43720   0.43720   0.50000   0.01267  Uiso   1.00
C4     C     0.43720   0.00000   0.00000   0.01267  Uiso   1.00
C5     C     0.00000   0.43720   0.00000   0.01267  Uiso   1.00
C6     C     0.56280   0.56280   0.00000   0.01267  Uiso   1.00
O1     O     0.11030   0.41550   0.10570   0.01267  Uiso   1.00
O2     O     0.58450   0.88970   0.39430   0.01267  Uiso   1.00
O3     O     0.41550   0.30520   0.60570   0.01267  Uiso   1.00
O4     O     0.11030   0.69480   0.39430   0.01267  Uiso   1.00
O5     O     0.88970   0.30520   0.89430   0.01267  Uiso   1.00
O6     O     0.58450   0.69480   0.10570   0.01267  Uiso   1.00
O7     O     0.30520   0.88970   0.10570   0.01267  Uiso   1.00
O8     O     0.88970   0.58450   0.60570   0.01267  Uiso   1.00
O9     O     0.69480   0.58450   0.89430   0.01267  Uiso   1.00
O10    O     0.41550   0.11030   0.89430   0.01267  Uiso   1.00
O11    O     0.30520   0.41550   0.39430   0.01267  Uiso   1.00
O12    O     0.69480   0.11030   0.60570   0.01267  Uiso   1.00
