data_ja406030p_si_002_clean
_audit_creation_date              2015-10-30
_audit_creation_method            'Materials Studio'
_symmetry_space_group_name_H-M    'P63/MMC'
_symmetry_Int_Tables_number       194
_symmetry_cell_setting            hexagonal
loop_
_symmetry_equiv_pos_as_xyz
  x,y,z
  -y,x-y,z
  -x+y,-x,z
  -x,-y,z+1/2
  y,-x+y,z+1/2
  x-y,x,z+1/2
  y,x,-z
  x-y,-y,-z
  -x,-x+y,-z
  -y,-x,-z+1/2
  -x+y,y,-z+1/2
  x,x-y,-z+1/2
  -x,-y,-z
  y,-x+y,-z
  x-y,x,-z
  x,y,-z+1/2
  -y,x-y,-z+1/2
  -x+y,-x,-z+1/2
  -y,-x,z
  -x+y,y,z
  x,x-y,z
  y,x,z+1/2
  x-y,-y,z+1/2
  -x,-x+y,z+1/2
_cell_length_a                    19.2095
_cell_length_b                    19.2095
_cell_length_c                    36.0245
_cell_angle_alpha                 90.0000
_cell_angle_beta                  90.0000
_cell_angle_gamma                 120.0000
loop_
_atom_site_label
_atom_site_type_symbol
_atom_site_fract_x
_atom_site_fract_y
_atom_site_fract_z
_atom_site_U_iso_or_equiv
_atom_site_adp_type
_atom_site_occupancy
H3     H     0.92300   0.28470   0.41950   0.01267  Uiso   1.00
H4     H     0.32570   0.46750   0.15250   0.01267  Uiso   1.00
H5     H     0.44560   0.35440   0.90750   0.01267  Uiso   1.00
C1     C     0.74930   0.12800   0.07020   0.01267  Uiso   1.00
C6     C     0.62670   0.13260   0.64070   0.01267  Uiso   1.00
C7     C     0.90290   0.54610   0.47648   0.01267  Uiso   1.00
C8     C     0.43000   0.15310   0.04055   0.01267  Uiso   1.00
C14    C     0.49340   0.10250   0.60473   0.01267  Uiso   1.00
O1     O     0.11378   0.48361   0.00836   0.01267  Uiso   1.00
O5     O     0.59385   0.03796   0.04259   0.01267  Uiso   1.00
O8     O     0.34079   0.54282   0.28975   0.01267  Uiso   1.00
Zn1    Zn    0.52333   0.04666   0.96536   0.01267  Uiso   1.00
Br4    Br    0.85788   0.71576   0.12820   0.01267  Uiso   1.00
Cr1    Cr    0.27580   0.55160   0.25000   0.01267  Uiso   1.00
H2     H     0.47200   0.23600   0.49970   0.01267  Uiso   1.00
C2     C     0.44748   0.22374   0.47621   0.01267  Uiso   1.00
C3     C     0.40605   0.59395   0.19650   0.01267  Uiso   1.00
C12    C     0.82440   0.17560   0.41450   0.01267  Uiso   1.00
C64    C     0.42590   0.85180   0.34158   0.01267  Uiso   1.00
N1     N     0.45535   0.91070   0.08733   0.01267  Uiso   1.00
O17    O     0.33333   0.66667   0.25000   0.01267  Uiso   1.00
loop_
_geom_bond_atom_site_label_1
_geom_bond_atom_site_label_2
_geom_bond_distance
_geom_bond_site_symmetry_2
_ccdc_geom_bond_type
H3     C1      0.940   10_665 S
H4     C6      0.941   24_664 S
H5     C14     0.941   12_556 S
C1     H3      0.940   10_665 S
C1     C12     1.379   10_665 A
C1     C8      1.367   20_655 A
C6     H4      0.941   24_655 S
C6     C14     1.390   20_655 A
C6     C64     1.349   8_666 A
C7     C8      1.496   10_665 S
C7     O1      1.251   4_665 A
C7     O5      1.259   17_655 A
C8     C7      1.496   10_665 S
C8     C2      1.365   12    A
C8     C1      1.367   20_655 A
C14    H5      0.941   12_556 S
C14    C6      1.390   20_655 A
C14    N1      1.295   4_665 A
O1     Zn1     2.031   7_556 S
O1     C7      1.251   4_664 A
O5     C7      1.259   18_665 A
O5     Zn1     2.033   8_556 S
O8     Cr1     1.962   .     S
O8     C3      1.245   10_665 A
Zn1    N1      2.026   8_666 S
Zn1    O5      2.033   13_656 S
Zn1    O5      2.033   8_556 S
Zn1    O1      2.031   15_656 S
Zn1    O1      2.031   7_556 S
Br4    C12     1.899   12    S
Cr1    O8      1.962   11    S
Cr1    O8      1.962   16    S
Cr1    O8      1.962   20    S
Cr1    O17     1.914   .     S
H2     C2      0.939   .     S
C2     C8      1.365   16    A
C2     C8      1.365   12    A
C3     C64     1.523   12_565 S
C3     O8      1.245   16    A
C3     O8      1.245   10_665 A
C12    C1      1.379   16    A
C12    C1      1.379   10_665 A
C12    Br4     1.899   12    S
C64    C6      1.349   13_666 A
C64    C6      1.349   8_566 A
C64    C3      1.523   12_565 S
N1     C14     1.295   4_664 A
N1     C14     1.295   23_564 A
N1     Zn1     2.026   8_566 S
O17    Cr1     1.914   3_565 S
O17    Cr1     1.914   2_665 S
