data_ja406844r_si_002_freeONLY
_audit_creation_date              2015-08-19
_audit_creation_method            'Materials Studio'
_symmetry_space_group_name_H-M    'P1'
_symmetry_Int_Tables_number       1
_symmetry_cell_setting            triclinic
loop_
_symmetry_equiv_pos_as_xyz
  x,y,z
_cell_length_a                    16.5813
_cell_length_b                    16.5813
_cell_length_c                    40.8681
_cell_angle_alpha                 78.2947
_cell_angle_beta                  78.2947
_cell_angle_gamma                 89.9980
loop_
_atom_site_label
_atom_site_type_symbol
_atom_site_fract_x
_atom_site_fract_y
_atom_site_fract_z
_atom_site_U_iso_or_equiv
_atom_site_adp_type
_atom_site_occupancy
Zr1    Zr    0.09388   0.34388   0.31224   0.01267  Uiso   1.00
Zr2    Zr    0.01848   0.48152   0.25000   0.01267  Uiso   1.00
Zr3    Zr    0.23152   0.26848   0.25000   0.01267  Uiso   1.00
Zr4    Zr    0.76848   0.51848   0.75000   0.01267  Uiso   1.00
Zr5    Zr    0.98152   0.51848   0.75000   0.01267  Uiso   1.00
Zr6    Zr    0.98152   0.73152   0.75000   0.01267  Uiso   1.00
Zr7    Zr    0.15612   0.40612   0.18776   0.01267  Uiso   1.00
Zr8    Zr    0.90612   0.65612   0.68776   0.01267  Uiso   1.00
Zr9    Zr    0.84388   0.59388   0.81224   0.01267  Uiso   1.00
Zr10   Zr    0.76848   0.73152   0.75000   0.01267  Uiso   1.00
Zr11   Zr    0.01848   0.26848   0.25000   0.01267  Uiso   1.00
Zr12   Zr    0.23152   0.48152   0.25000   0.01267  Uiso   1.00
H1     H     0.68070   0.42070   0.66520   0.01267  Uiso   1.00
H2     H     0.88830   0.28880   0.93820   0.01267  Uiso   1.00
H3     H     0.20750   0.36860   0.39480   0.01267  Uiso   1.00
H4     H     0.41410   0.65410   0.16520   0.01267  Uiso   1.00
H5     H     0.01330   0.01540   0.96920   0.01267  Uiso   1.00
H6     H     0.79250   0.76340   0.60520   0.01267  Uiso   1.00
H7     H     0.51750   0.01540   0.96920   0.01267  Uiso   1.00
H8     H     0.35140   0.86630   0.12100   0.01267  Uiso   1.00
H9     H     0.79250   0.63140   0.60520   0.01267  Uiso   1.00
H10    H     0.51540   0.01750   0.46920   0.01267  Uiso   1.00
H11    H     0.27300   0.17350   0.43820   0.01267  Uiso   1.00
H12    H     0.21490   0.03010   0.46920   0.01267  Uiso   1.00
H13    H     0.48250   0.98460   0.03080   0.01267  Uiso   1.00
H14    H     0.81590   0.50070   0.46920   0.01267  Uiso   1.00
H15    H     0.31930   0.08590   0.33480   0.01267  Uiso   1.00
H16    H     0.26340   0.60230   0.10520   0.01267  Uiso   1.00
H17    H     0.48730   0.47240   0.37900   0.01267  Uiso   1.00
H18    H     0.31930   0.57930   0.33480   0.01267  Uiso   1.00
H19    H     0.57140   0.50000   0.50000   0.01267  Uiso   1.00
H20    H     0.07930   0.81930   0.83480   0.01267  Uiso   1.00
H21    H     0.78510   0.96990   0.53080   0.01267  Uiso   1.00
H22    H     0.27300   0.38830   0.43820   0.01267  Uiso   1.00
H23    H     0.36630   0.52760   0.62100   0.01267  Uiso   1.00
H24    H     0.42860   0.50000   0.50000   0.01267  Uiso   1.00
H25    H     0.61740   0.39910   0.62120   0.01267  Uiso   1.00
H26    H     0.26140   0.97970   0.62120   0.01267  Uiso   1.00
H27    H     0.78880   0.17350   0.43820   0.01267  Uiso   1.00
H28    H     0.10230   0.63140   0.60520   0.01267  Uiso   1.00
H29    H     0.99930   0.28510   0.03080   0.01267  Uiso   1.00
H30    H     0.99930   0.68410   0.03080   0.01267  Uiso   1.00
H31    H     0.64860   0.98730   0.87900   0.01267  Uiso   1.00
H32    H     0.86860   0.39770   0.89480   0.01267  Uiso   1.00
H33    H     0.51540   0.51330   0.46920   0.01267  Uiso   1.00
H34    H     0.02760   0.86630   0.12100   0.01267  Uiso   1.00
H35    H     0.88830   0.77300   0.93820   0.01267  Uiso   1.00
H36    H     0.92070   0.18070   0.16520   0.01267  Uiso   1.00
H37    H     0.67350   0.77300   0.93820   0.01267  Uiso   1.00
H38    H     0.63370   0.14860   0.37900   0.01267  Uiso   1.00
H39    H     0.36630   0.85140   0.62100   0.01267  Uiso   1.00
H40    H     0.20750   0.23660   0.39480   0.01267  Uiso   1.00
H41    H     0.41410   0.18070   0.16520   0.01267  Uiso   1.00
H42    H     0.58590   0.81930   0.83480   0.01267  Uiso   1.00
H43    H     0.84590   0.08590   0.33480   0.01267  Uiso   1.00
H44    H     0.38260   0.60090   0.37880   0.01267  Uiso   1.00
H45    H     0.38260   0.02030   0.37880   0.01267  Uiso   1.00
H46    H     0.15410   0.42070   0.66520   0.01267  Uiso   1.00
H47    H     0.98670   0.98460   0.03080   0.01267  Uiso   1.00
H48    H     0.11170   0.22700   0.06180   0.01267  Uiso   1.00
H49    H     0.00070   0.71490   0.96920   0.01267  Uiso   1.00
H50    H     0.73860   0.60090   0.37880   0.01267  Uiso   1.00
H51    H     0.92070   0.65410   0.16520   0.01267  Uiso   1.00
H52    H     0.10230   0.76340   0.60520   0.01267  Uiso   1.00
H53    H     0.48460   0.98250   0.53080   0.01267  Uiso   1.00
H54    H     0.81590   0.03010   0.46920   0.01267  Uiso   1.00
H55    H     0.10090   0.23860   0.87880   0.01267  Uiso   1.00
H56    H     0.89770   0.36860   0.39480   0.01267  Uiso   1.00
H57    H     0.89910   0.11740   0.12120   0.01267  Uiso   1.00
H58    H     0.51270   0.52760   0.62100   0.01267  Uiso   1.00
H59    H     0.52030   0.23860   0.87880   0.01267  Uiso   1.00
H60    H     0.18410   0.96990   0.53080   0.01267  Uiso   1.00
H61    H     0.50000   0.07140   0.00000   0.01267  Uiso   1.00
H62    H     0.47970   0.11740   0.12120   0.01267  Uiso   1.00
H63    H     0.26140   0.39910   0.62120   0.01267  Uiso   1.00
H64    H     0.15410   0.91410   0.66520   0.01267  Uiso   1.00
H65    H     0.53010   0.31590   0.96920   0.01267  Uiso   1.00
H66    H     0.53010   0.71490   0.96920   0.01267  Uiso   1.00
H67    H     0.68070   0.91410   0.66520   0.01267  Uiso   1.00
H68    H     0.97240   0.98730   0.87900   0.01267  Uiso   1.00
H69    H     0.00000   0.07140   0.00000   0.01267  Uiso   1.00
H70    H     0.26340   0.29250   0.10520   0.01267  Uiso   1.00
H71    H     0.35140   0.01270   0.12100   0.01267  Uiso   1.00
H72    H     0.11170   0.71120   0.06180   0.01267  Uiso   1.00
H73    H     0.10090   0.88260   0.87880   0.01267  Uiso   1.00
H74    H     0.57140   0.00000   0.50000   0.01267  Uiso   1.00
H75    H     0.32650   0.22700   0.06180   0.01267  Uiso   1.00
H76    H     0.02760   0.01270   0.12100   0.01267  Uiso   1.00
H77    H     0.50000   0.92860   0.00000   0.01267  Uiso   1.00
H78    H     0.32650   0.71120   0.06180   0.01267  Uiso   1.00
H79    H     0.89770   0.23660   0.39480   0.01267  Uiso   1.00
H80    H     0.63370   0.47240   0.37900   0.01267  Uiso   1.00
H81    H     0.48460   0.48670   0.53080   0.01267  Uiso   1.00
H82    H     0.13140   0.60230   0.10520   0.01267  Uiso   1.00
H83    H     0.73660   0.39770   0.89480   0.01267  Uiso   1.00
H84    H     0.72700   0.61170   0.56180   0.01267  Uiso   1.00
H85    H     0.97240   0.13370   0.87900   0.01267  Uiso   1.00
H86    H     0.21120   0.61170   0.56180   0.01267  Uiso   1.00
H87    H     0.52030   0.88260   0.87880   0.01267  Uiso   1.00
H88    H     0.13140   0.29250   0.10520   0.01267  Uiso   1.00
H89    H     0.46990   0.68410   0.03080   0.01267  Uiso   1.00
H90    H     0.78510   0.49930   0.53080   0.01267  Uiso   1.00
H91    H     0.61740   0.97970   0.62120   0.01267  Uiso   1.00
H92    H     0.78880   0.38830   0.43820   0.01267  Uiso   1.00
H93    H     0.84590   0.57930   0.33480   0.01267  Uiso   1.00
H94    H     0.51270   0.85140   0.62100   0.01267  Uiso   1.00
H95    H     0.58590   0.34590   0.83480   0.01267  Uiso   1.00
H96    H     0.00000   0.92860   0.00000   0.01267  Uiso   1.00
H97    H     0.00070   0.31590   0.96920   0.01267  Uiso   1.00
H98    H     0.07930   0.34590   0.83480   0.01267  Uiso   1.00
H99    H     0.89910   0.76140   0.12120   0.01267  Uiso   1.00
H100   H     0.86860   0.70750   0.89480   0.01267  Uiso   1.00
H101   H     0.21490   0.50070   0.46920   0.01267  Uiso   1.00
H102   H     0.67350   0.28880   0.93820   0.01267  Uiso   1.00
H103   H     0.18410   0.49930   0.53080   0.01267  Uiso   1.00
H104   H     0.72700   0.82650   0.56180   0.01267  Uiso   1.00
H105   H     0.64860   0.13370   0.87900   0.01267  Uiso   1.00
H106   H     0.46990   0.28510   0.03080   0.01267  Uiso   1.00
H107   H     0.73660   0.70750   0.89480   0.01267  Uiso   1.00
H108   H     0.73860   0.02030   0.37880   0.01267  Uiso   1.00
H109   H     0.47970   0.76140   0.12120   0.01267  Uiso   1.00
H110   H     0.42860   0.00000   0.50000   0.01267  Uiso   1.00
H111   H     0.48730   0.14860   0.37900   0.01267  Uiso   1.00
H112   H     0.21120   0.82650   0.56180   0.01267  Uiso   1.00
C1     C     0.92719   0.78269   0.91722   0.01267  Uiso   1.00
C2     C     0.02715   0.24265   0.13910   0.01267  Uiso   1.00
C3     C     0.40768   0.74838   0.08744   0.01267  Uiso   1.00
C4     C     0.95674   0.72144   0.83252   0.01267  Uiso   1.00
C5     C     0.75162   0.09232   0.41256   0.01267  Uiso   1.00
C6     C     0.24346   0.41556   0.39148   0.01267  Uiso   1.00
C7     C     0.00232   0.17822   0.93856   0.01267  Uiso   1.00
C8     C     0.74580   0.98340   0.51680   0.01267  Uiso   1.00
C9     C     0.52768   0.18778   0.97244   0.01267  Uiso   1.00
C10    C     0.69296   0.36506   0.89148   0.01267  Uiso   1.00
C11    C     0.39739   0.50089   0.57122   0.01267  Uiso   1.00
C12    C     0.61678   0.94088   0.56144   0.01267  Uiso   1.00
C13    C     0.38322   0.50232   0.43856   0.01267  Uiso   1.00
C14    C     0.53139   0.50089   0.57122   0.01267  Uiso   1.00
C15    C     0.30943   0.10333   0.35594   0.01267  Uiso   1.00
C16    C     0.00232   0.88322   0.93856   0.01267  Uiso   1.00
C17    C     0.04326   0.55396   0.16748   0.01267  Uiso   1.00
C18    C     0.62088   0.09118   0.89704   0.01267  Uiso   1.00
C19    C     0.83463   0.10333   0.35594   0.01267  Uiso   1.00
C20    C     0.94701   0.15201   0.11798   0.01267  Uiso   1.00
C21    C     0.00089   0.89739   0.07122   0.01267  Uiso   1.00
C22    C     0.95927   0.66537   0.14406   0.01267  Uiso   1.00
C23    C     0.07281   0.21731   0.08278   0.01267  Uiso   1.00
C24    C     0.19991   0.84441   0.58278   0.01267  Uiso   1.00
C25    C     0.92719   0.30009   0.91722   0.01267  Uiso   1.00
C26    C     0.00089   0.03139   0.07122   0.01267  Uiso   1.00
C27    C     0.33582   0.09232   0.41256   0.01267  Uiso   1.00
C28    C     0.31222   0.50012   0.52756   0.01267  Uiso   1.00
C29    C     0.91556   0.74346   0.89148   0.01267  Uiso   1.00
C30    C     0.95927   0.19057   0.14406   0.01267  Uiso   1.00
C31    C     0.01792   0.98822   0.10296   0.01267  Uiso   1.00
C32    C     0.16537   0.89667   0.64406   0.01267  Uiso   1.00
C33    C     0.00020   0.26260   0.98320   0.01267  Uiso   1.00
C34    C     0.99768   0.82178   0.06144   0.01267  Uiso   1.00
C35    C     0.43501   0.15201   0.11798   0.01267  Uiso   1.00
C36    C     0.65559   0.78269   0.91722   0.01267  Uiso   1.00
C37    C     0.48340   0.24580   0.01680   0.01267  Uiso   1.00
C38    C     0.31222   0.97232   0.52756   0.01267  Uiso   1.00
C39    C     0.44088   0.11678   0.06144   0.01267  Uiso   1.00
C40    C     0.99768   0.11678   0.06144   0.01267  Uiso   1.00
C41    C     0.05396   0.54326   0.66748   0.01267  Uiso   1.00
C42    C     0.48822   0.51792   0.60296   0.01267  Uiso   1.00
C43    C     0.13494   0.80704   0.60852   0.01267  Uiso   1.00
C44    C     0.60261   0.49911   0.42878   0.01267  Uiso   1.00
C45    C     0.60261   0.07211   0.42878   0.01267  Uiso   1.00
C46    C     0.86506   0.41556   0.39148   0.01267  Uiso   1.00
C47    C     0.74580   0.49980   0.51680   0.01267  Uiso   1.00
C48    C     0.52768   0.83978   0.97244   0.01267  Uiso   1.00
C49    C     0.74265   0.83375   0.63910   0.01267  Uiso   1.00
C50    C     0.46861   0.49911   0.42878   0.01267  Uiso   1.00
C51    C     0.99512   0.25162   0.91256   0.01267  Uiso   1.00
C52    C     0.48822   0.87912   0.60296   0.01267  Uiso   1.00
C53    C     0.55912   0.88322   0.93856   0.01267  Uiso   1.00
C54    C     0.32178   0.49768   0.56144   0.01267  Uiso   1.00
C55    C     0.28926   0.55396   0.16748   0.01267  Uiso   1.00
C56    C     0.34799   0.06499   0.38202   0.01267  Uiso   1.00
C57    C     0.08444   0.25654   0.10852   0.01267  Uiso   1.00
C58    C     0.13494   0.58444   0.60852   0.01267  Uiso   1.00
C59    C     0.71731   0.84441   0.58278   0.01267  Uiso   1.00
C60    C     0.33978   0.49988   0.47244   0.01267  Uiso   1.00
C61    C     0.99911   0.10261   0.92878   0.01267  Uiso   1.00
C62    C     0.66625   0.75735   0.86090   0.01267  Uiso   1.00
C63    C     0.56499   0.84799   0.88202   0.01267  Uiso   1.00
C64    C     0.00012   0.81222   0.02756   0.01267  Uiso   1.00
C65    C     0.05299   0.26999   0.88202   0.01267  Uiso   1.00
C66    C     0.74265   0.52715   0.63910   0.01267  Uiso   1.00
C67    C     0.02715   0.61825   0.13910   0.01267  Uiso   1.00
C68    C     0.33582   0.49512   0.41256   0.01267  Uiso   1.00
C69    C     0.68778   0.49988   0.47244   0.01267  Uiso   1.00
C70    C     0.04073   0.33463   0.85594   0.01267  Uiso   1.00
C71    C     0.56499   0.26999   0.88202   0.01267  Uiso   1.00
C72    C     0.22144   0.45674   0.33252   0.01267  Uiso   1.00
C73    C     0.00012   0.16022   0.02756   0.01267  Uiso   1.00
C74    C     0.23001   0.44701   0.61798   0.01267  Uiso   1.00
C75    C     0.99980   0.24580   0.01680   0.01267  Uiso   1.00
C76    C     0.66418   0.50488   0.58744   0.01267  Uiso   1.00
C77    C     0.83463   0.54073   0.35594   0.01267  Uiso   1.00
C78    C     0.07281   0.69991   0.08278   0.01267  Uiso   1.00
C79    C     0.77856   0.78926   0.66748   0.01267  Uiso   1.00
C80    C     0.40882   0.87912   0.60296   0.01267  Uiso   1.00
C81    C     0.77856   0.54326   0.66748   0.01267  Uiso   1.00
C82    C     0.98208   0.01178   0.89704   0.01267  Uiso   1.00
C83    C     0.80009   0.15559   0.41722   0.01267  Uiso   1.00
C84    C     0.75654   0.80704   0.60852   0.01267  Uiso   1.00
C85    C     0.39667   0.19057   0.14406   0.01267  Uiso   1.00
C86    C     0.65201   0.93501   0.61798   0.01267  Uiso   1.00
C87    C     0.75654   0.58444   0.60852   0.01267  Uiso   1.00
C88    C     0.67822   0.05912   0.43856   0.01267  Uiso   1.00
C89    C     0.23740   0.49980   0.51680   0.01267  Uiso   1.00
C90    C     0.57211   0.10261   0.92878   0.01267  Uiso   1.00
C91    C     0.30704   0.25654   0.10852   0.01267  Uiso   1.00
C92    C     0.39739   0.92789   0.57122   0.01267  Uiso   1.00
C93    C     0.94604   0.45674   0.33252   0.01267  Uiso   1.00
C94    C     0.66022   0.97232   0.52756   0.01267  Uiso   1.00
C95    C     0.25735   0.47285   0.36090   0.01267  Uiso   1.00
C96    C     0.95674   0.44604   0.83252   0.01267  Uiso   1.00
C97    C     0.51660   0.75420   0.98320   0.01267  Uiso   1.00
C98    C     0.99988   0.83978   0.97244   0.01267  Uiso   1.00
C99    C     0.55912   0.17822   0.93856   0.01267  Uiso   1.00
C100   C     0.05396   0.78926   0.66748   0.01267  Uiso   1.00
C101   C     0.32178   0.94088   0.56144   0.01267  Uiso   1.00
C102   C     0.66022   0.50012   0.52756   0.01267  Uiso   1.00
C103   C     0.33375   0.24265   0.13910   0.01267  Uiso   1.00
C104   C     0.65559   0.30009   0.91722   0.01267  Uiso   1.00
C105   C     0.71074   0.44604   0.83252   0.01267  Uiso   1.00
C106   C     0.08444   0.63494   0.10852   0.01267  Uiso   1.00
C107   C     0.30704   0.63494   0.10852   0.01267  Uiso   1.00
C108   C     0.91556   0.36506   0.89148   0.01267  Uiso   1.00
C109   C     0.25735   0.16625   0.36090   0.01267  Uiso   1.00
C110   C     0.23740   0.98340   0.51680   0.01267  Uiso   1.00
C111   C     0.04073   0.80943   0.85594   0.01267  Uiso   1.00
C112   C     0.67822   0.50232   0.43856   0.01267  Uiso   1.00
C113   C     0.34441   0.69991   0.08278   0.01267  Uiso   1.00
C114   C     0.00488   0.16418   0.08744   0.01267  Uiso   1.00
C115   C     0.86506   0.19296   0.39148   0.01267  Uiso   1.00
C116   C     0.28269   0.15559   0.41722   0.01267  Uiso   1.00
C117   C     0.43501   0.73001   0.11798   0.01267  Uiso   1.00
C118   C     0.76260   0.01660   0.48320   0.01267  Uiso   1.00
C119   C     0.34799   0.55299   0.38202   0.01267  Uiso   1.00
C120   C     0.61678   0.49768   0.56144   0.01267  Uiso   1.00
C121   C     0.40768   0.16418   0.08744   0.01267  Uiso   1.00
C122   C     0.66418   0.90768   0.58744   0.01267  Uiso   1.00
C123   C     0.01792   0.90882   0.10296   0.01267  Uiso   1.00
C124   C     0.60333   0.33463   0.85594   0.01267  Uiso   1.00
C125   C     0.00488   0.74838   0.08744   0.01267  Uiso   1.00
C126   C     0.97285   0.75735   0.86090   0.01267  Uiso   1.00
C127   C     0.99911   0.96861   0.92878   0.01267  Uiso   1.00
C128   C     0.71731   0.57281   0.58278   0.01267  Uiso   1.00
C129   C     0.47232   0.16022   0.02756   0.01267  Uiso   1.00
C130   C     0.68778   0.02768   0.47244   0.01267  Uiso   1.00
C131   C     0.11825   0.52715   0.63910   0.01267  Uiso   1.00
C132   C     0.46861   0.07211   0.42878   0.01267  Uiso   1.00
C133   C     0.98208   0.09118   0.89704   0.01267  Uiso   1.00
C134   C     0.53139   0.92789   0.57122   0.01267  Uiso   1.00
C135   C     0.59232   0.83582   0.91256   0.01267  Uiso   1.00
C136   C     0.37912   0.90882   0.10296   0.01267  Uiso   1.00
C137   C     0.48340   0.73740   0.01680   0.01267  Uiso   1.00
C138   C     0.28926   0.27856   0.16748   0.01267  Uiso   1.00
C139   C     0.94604   0.21074   0.33252   0.01267  Uiso   1.00
C140   C     0.94701   0.73001   0.11798   0.01267  Uiso   1.00
C141   C     0.40882   0.51792   0.60296   0.01267  Uiso   1.00
C142   C     0.38322   0.05912   0.43856   0.01267  Uiso   1.00
C143   C     0.42789   0.03139   0.07122   0.01267  Uiso   1.00
C144   C     0.99512   0.83582   0.91256   0.01267  Uiso   1.00
C145   C     0.19991   0.57281   0.58278   0.01267  Uiso   1.00
C146   C     0.05299   0.84799   0.88202   0.01267  Uiso   1.00
C147   C     0.80009   0.42719   0.41722   0.01267  Uiso   1.00
C148   C     0.71074   0.72144   0.83252   0.01267  Uiso   1.00
C149   C     0.23001   0.93501   0.61798   0.01267  Uiso   1.00
C150   C     0.51178   0.48208   0.39704   0.01267  Uiso   1.00
C151   C     0.33978   0.02768   0.47244   0.01267  Uiso   1.00
C152   C     0.33375   0.61825   0.13910   0.01267  Uiso   1.00
C153   C     0.57211   0.96861   0.92878   0.01267  Uiso   1.00
C154   C     0.76260   0.50020   0.48320   0.01267  Uiso   1.00
C155   C     0.28269   0.42719   0.41722   0.01267  Uiso   1.00
C156   C     0.24838   0.50488   0.58744   0.01267  Uiso   1.00
C157   C     0.76999   0.55299   0.38202   0.01267  Uiso   1.00
C158   C     0.99988   0.18778   0.97244   0.01267  Uiso   1.00
C159   C     0.11825   0.83375   0.63910   0.01267  Uiso   1.00
C160   C     0.25420   0.01660   0.48320   0.01267  Uiso   1.00
C161   C     0.69296   0.74346   0.89148   0.01267  Uiso   1.00
C162   C     0.69057   0.89667   0.64406   0.01267  Uiso   1.00
C163   C     0.60333   0.80943   0.85594   0.01267  Uiso   1.00
C164   C     0.88175   0.16625   0.36090   0.01267  Uiso   1.00
C165   C     0.97285   0.38175   0.86090   0.01267  Uiso   1.00
C166   C     0.51178   0.12088   0.39704   0.01267  Uiso   1.00
C167   C     0.39667   0.66537   0.14406   0.01267  Uiso   1.00
C168   C     0.69057   0.45927   0.64406   0.01267  Uiso   1.00
C169   C     0.04326   0.27856   0.16748   0.01267  Uiso   1.00
C170   C     0.24838   0.90768   0.58744   0.01267  Uiso   1.00
C171   C     0.24346   0.19296   0.39148   0.01267  Uiso   1.00
C172   C     0.22144   0.21074   0.33252   0.01267  Uiso   1.00
C173   C     0.66625   0.38175   0.86090   0.01267  Uiso   1.00
C174   C     0.76999   0.06499   0.38202   0.01267  Uiso   1.00
C175   C     0.00020   0.75420   0.98320   0.01267  Uiso   1.00
C176   C     0.59118   0.12088   0.39704   0.01267  Uiso   1.00
C177   C     0.62088   0.01178   0.89704   0.01267  Uiso   1.00
C178   C     0.51660   0.26260   0.98320   0.01267  Uiso   1.00
C179   C     0.75162   0.49512   0.41256   0.01267  Uiso   1.00
C180   C     0.59118   0.48208   0.39704   0.01267  Uiso   1.00
C181   C     0.25420   0.50020   0.48320   0.01267  Uiso   1.00
C182   C     0.16537   0.45927   0.64406   0.01267  Uiso   1.00
C183   C     0.88175   0.47285   0.36090   0.01267  Uiso   1.00
C184   C     0.99980   0.73740   0.01680   0.01267  Uiso   1.00
C185   C     0.59232   0.25162   0.91256   0.01267  Uiso   1.00
C186   C     0.65201   0.44701   0.61798   0.01267  Uiso   1.00
C187   C     0.30943   0.54073   0.35594   0.01267  Uiso   1.00
C188   C     0.34441   0.21731   0.08278   0.01267  Uiso   1.00
C189   C     0.37912   0.98822   0.10296   0.01267  Uiso   1.00
C190   C     0.44088   0.82178   0.06144   0.01267  Uiso   1.00
C191   C     0.47232   0.81222   0.02756   0.01267  Uiso   1.00
C192   C     0.42789   0.89739   0.07122   0.01267  Uiso   1.00
N1     N     0.50000   0.12440  -0.00000   0.01267  Uiso   1.00
N2     N     0.50000   0.87560   0.00000   0.01267  Uiso   1.00
N3     N     0.00000   0.12440  -0.00000   0.01267  Uiso   1.00
N4     N     0.62440   0.50000   0.50000   0.01267  Uiso   1.00
N5     N     0.99415   0.97405   0.05190   0.01267  Uiso   1.00
N6     N     0.47405   0.95395   0.55190   0.01267  Uiso   1.00
N7     N     0.45395   0.97405   0.05190   0.01267  Uiso   1.00
N8     N     0.37560   0.00000   0.50000   0.01267  Uiso   1.00
N9     N     0.62440   0.00000   0.50000   0.01267  Uiso   1.00
N10    N     0.54605   0.02595   0.94810   0.01267  Uiso   1.00
N11    N     0.00585   0.02595   0.94810   0.01267  Uiso   1.00
N12    N     0.37560   0.50000   0.50000   0.01267  Uiso   1.00
N13    N     0.52595   0.04605   0.44810   0.01267  Uiso   1.00
N14    N     0.47405   0.49415   0.55190   0.01267  Uiso   1.00
N15    N     0.00000   0.87560   0.00000   0.01267  Uiso   1.00
N16    N     0.52595   0.50585   0.44810   0.01267  Uiso   1.00
O1     O     0.83970   0.59233   0.65886   0.01267  Uiso   1.00
O2     O     0.26450   0.39221   0.21558   0.01267  Uiso   1.00
O3     O     0.86150   0.70172   0.77700   0.01267  Uiso   1.00
O4     O     0.90767   0.66030   0.84114   0.01267  Uiso   1.00
O5     O     0.79828   0.63850   0.72300   0.01267  Uiso   1.00
O6     O     0.74517   0.79269   0.69762   0.01267  Uiso   1.00
O7     O     0.89221   0.76450   0.71558   0.01267  Uiso   1.00
O8     O     0.83970   0.74881   0.65886   0.01267  Uiso   1.00
O9     O     0.99856   0.25119   0.34114   0.01267  Uiso   1.00
O10    O     0.10779   0.48008   0.28442   0.01267  Uiso   1.00
O11    O     0.05721   0.50969   0.69762   0.01267  Uiso   1.00
O12    O     0.88817   0.27754   0.24812   0.01267  Uiso   1.00
O13    O     0.13850   0.47872   0.22300   0.01267  Uiso   1.00
O14    O     0.75119   0.66030   0.84114   0.01267  Uiso   1.00
O15    O     0.02128   0.36150   0.27700   0.01267  Uiso   1.00
O16    O     0.13850   0.29828   0.22300   0.01267  Uiso   1.00
O17    O     0.01992   0.39221   0.21558   0.01267  Uiso   1.00
O18    O     0.36371   0.27754   0.24812   0.01267  Uiso   1.00
O19    O     0.09233   0.33970   0.15886   0.01267  Uiso   1.00
O20    O     0.70731   0.75483   0.80238   0.01267  Uiso   1.00
O21    O     0.00969   0.55721   0.19762   0.01267  Uiso   1.00
O22    O     0.24881   0.33970   0.15886   0.01267  Uiso   1.00
O23    O     0.99031   0.44279   0.80238   0.01267  Uiso   1.00
O24    O     0.89221   0.51992   0.71558   0.01267  Uiso   1.00
O25    O     0.29269   0.55721   0.19762   0.01267  Uiso   1.00
O26    O     0.05721   0.79269   0.69762   0.01267  Uiso   1.00
O27    O     0.10779   0.23550   0.28442   0.01267  Uiso   1.00
O28    O     0.86150   0.52128   0.77700   0.01267  Uiso   1.00
O29    O     0.25483   0.20731   0.30238   0.01267  Uiso   1.00
O30    O     0.29269   0.24517   0.19762   0.01267  Uiso   1.00
O31    O     0.02566   0.61183   0.25188   0.01267  Uiso   1.00
O32    O     0.94279   0.20731   0.30238   0.01267  Uiso   1.00
O33    O     0.11183   0.72246   0.75188   0.01267  Uiso   1.00
O34    O     0.63629   0.72246   0.75188   0.01267  Uiso   1.00
O35    O     0.16030   0.40767   0.34114   0.01267  Uiso   1.00
O36    O     0.00144   0.59233   0.65886   0.01267  Uiso   1.00
O37    O     0.74517   0.50969   0.69762   0.01267  Uiso   1.00
O38    O     0.11183   0.52566   0.75188   0.01267  Uiso   1.00
O39    O     0.25483   0.49031   0.30238   0.01267  Uiso   1.00
O40    O     0.90767   0.49856   0.84114   0.01267  Uiso   1.00
O41    O     0.97872   0.63850   0.72300   0.01267  Uiso   1.00
O42    O     0.73550   0.60779   0.78442   0.01267  Uiso   1.00
O43    O     0.99856   0.40767   0.34114   0.01267  Uiso   1.00
O44    O     0.02566   0.13629   0.25188   0.01267  Uiso   1.00
O45    O     0.22246   0.13629   0.25188   0.01267  Uiso   1.00
O46    O     0.97434   0.38817   0.74812   0.01267  Uiso   1.00
O47    O     0.00969   0.24517   0.19762   0.01267  Uiso   1.00
O48    O     0.09233   0.50144   0.15886   0.01267  Uiso   1.00
O49    O     0.24881   0.50144   0.15886   0.01267  Uiso   1.00
O50    O     0.75119   0.49856   0.84114   0.01267  Uiso   1.00
O51    O     0.88817   0.47434   0.24812   0.01267  Uiso   1.00
O52    O     0.98008   0.60779   0.78442   0.01267  Uiso   1.00
O53    O     0.20172   0.36150   0.27700   0.01267  Uiso   1.00
O54    O     0.77754   0.86371   0.74812   0.01267  Uiso   1.00
O55    O     0.16030   0.25119   0.34114   0.01267  Uiso   1.00
O56    O     0.99031   0.75483   0.80238   0.01267  Uiso   1.00
O57    O     0.97434   0.86371   0.74812   0.01267  Uiso   1.00
O58    O     0.94279   0.49031   0.30238   0.01267  Uiso   1.00
O59    O     0.70731   0.44279   0.80238   0.01267  Uiso   1.00
O60    O     0.00144   0.74881   0.65886   0.01267  Uiso   1.00
