data_ja406030p_si_004_freeONLY
_audit_creation_date              2015-08-19
_audit_creation_method            'Materials Studio'
_symmetry_space_group_name_H-M    'P1'
_symmetry_Int_Tables_number       1
_symmetry_cell_setting            triclinic
loop_
_symmetry_equiv_pos_as_xyz
  x,y,z
_cell_length_a                    18.9479
_cell_length_b                    18.9479
_cell_length_c                    35.9127
_cell_angle_alpha                 90.0000
_cell_angle_beta                  90.0000
_cell_angle_gamma                 120.0000
loop_
_atom_site_label
_atom_site_type_symbol
_atom_site_fract_x
_atom_site_fract_y
_atom_site_fract_z
_atom_site_U_iso_or_equiv
_atom_site_adp_type
_atom_site_occupancy
Zn1    Zn    0.04939   0.52470   0.03360   0.01267  Uiso   1.00
Zn2    Zn    0.04939   0.52470   0.46640   0.01267  Uiso   1.00
Zn3    Zn    0.52469   0.47530   0.96640   0.01267  Uiso   1.00
Zn4    Zn    0.52469   0.47530   0.53360   0.01267  Uiso   1.00
Zn5    Zn    0.47531   0.95062   0.03360   0.01267  Uiso   1.00
Zn6    Zn    0.95061   0.47530   0.53360   0.01267  Uiso   1.00
Zn7    Zn    0.47531   0.52470   0.03360   0.01267  Uiso   1.00
Zn8    Zn    0.52469   0.04938   0.53360   0.01267  Uiso   1.00
Zn9    Zn    0.47531   0.52470   0.46640   0.01267  Uiso   1.00
Zn10   Zn    0.47531   0.95062   0.46640   0.01267  Uiso   1.00
Zn11   Zn    0.95061   0.47530   0.96640   0.01267  Uiso   1.00
Zn12   Zn    0.52469   0.04938   0.96640   0.01267  Uiso   1.00
Cr1    Cr    0.55008   0.27504   0.75000   0.01267  Uiso   1.00
Cr2    Cr    0.44992   0.72496   0.25000   0.01267  Uiso   1.00
Cr3    Cr    0.27504   0.72496   0.25000   0.01267  Uiso   1.00
Cr4    Cr    0.72496   0.27504   0.75000   0.01267  Uiso   1.00
Cr5    Cr    0.27504   0.55008   0.25000   0.01267  Uiso   1.00
Cr6    Cr    0.72496   0.44992   0.75000   0.01267  Uiso   1.00
H1     H     0.16810   0.83190   0.61570   0.01267  Uiso   1.00
H2     H     0.47460   0.23730   0.00300   0.01267  Uiso   1.00
H3     H     0.35050   0.90530   0.40870   0.01267  Uiso   1.00
H4     H     0.46670   0.14320   0.65180   0.01267  Uiso   1.00
H5     H     0.67650   0.14320   0.84820   0.01267  Uiso   1.00
H6     H     0.67650   0.14320   0.65180   0.01267  Uiso   1.00
H7     H     0.16810   0.83190   0.88430   0.01267  Uiso   1.00
H8     H     0.08470   0.70410   0.59010   0.01267  Uiso   1.00
H9     H     0.66380   0.83190   0.88430   0.01267  Uiso   1.00
H10    H     0.83190   0.66380   0.38430   0.01267  Uiso   1.00
H11    H     0.16810   0.33620   0.61570   0.01267  Uiso   1.00
H12    H     0.46670   0.14320   0.84820   0.01267  Uiso   1.00
H13    H     0.76270   0.23730   0.49700   0.01267  Uiso   1.00
H14    H     0.09470   0.64950   0.40870   0.01267  Uiso   1.00
H15    H     0.08470   0.38060   0.90990   0.01267  Uiso   1.00
H16    H     0.08470   0.70410   0.90990   0.01267  Uiso   1.00
H17    H     0.55480   0.90530   0.09130   0.01267  Uiso   1.00
H18    H     0.14320   0.46670   0.15180   0.01267  Uiso   1.00
H19    H     0.55480   0.90530   0.40870   0.01267  Uiso   1.00
H20    H     0.09470   0.64950   0.09130   0.01267  Uiso   1.00
H21    H     0.76270   0.23730   0.00300   0.01267  Uiso   1.00
H22    H     0.83190   0.66380   0.11570   0.01267  Uiso   1.00
H23    H     0.44520   0.35050   0.59130   0.01267  Uiso   1.00
H24    H     0.90530   0.55480   0.59130   0.01267  Uiso   1.00
H25    H     0.64950   0.55480   0.90870   0.01267  Uiso   1.00
H26    H     0.64950   0.09470   0.59130   0.01267  Uiso   1.00
H27    H     0.16810   0.33620   0.88430   0.01267  Uiso   1.00
H28    H     0.44520   0.09470   0.59130   0.01267  Uiso   1.00
H29    H     0.46670   0.32350   0.84820   0.01267  Uiso   1.00
H30    H     0.35050   0.90530   0.09130   0.01267  Uiso   1.00
H31    H     0.64950   0.55480   0.59130   0.01267  Uiso   1.00
H32    H     0.47460   0.23730   0.49700   0.01267  Uiso   1.00
H33    H     0.85680   0.32350   0.65180   0.01267  Uiso   1.00
H34    H     0.29590   0.38060   0.90990   0.01267  Uiso   1.00
H35    H     0.70410   0.61940   0.09010   0.01267  Uiso   1.00
H36    H     0.23730   0.76270   0.99700   0.01267  Uiso   1.00
H37    H     0.32350   0.85680   0.34820   0.01267  Uiso   1.00
H38    H     0.67650   0.53330   0.84820   0.01267  Uiso   1.00
H39    H     0.76270   0.52540   0.49700   0.01267  Uiso   1.00
H40    H     0.23730   0.76270   0.50300   0.01267  Uiso   1.00
H41    H     0.91530   0.29590   0.09010   0.01267  Uiso   1.00
H42    H     0.90530   0.35050   0.59130   0.01267  Uiso   1.00
H43    H     0.83190   0.16810   0.38430   0.01267  Uiso   1.00
H44    H     0.70410   0.08470   0.40990   0.01267  Uiso   1.00
H45    H     0.91530   0.61940   0.40990   0.01267  Uiso   1.00
H46    H     0.09470   0.44520   0.40870   0.01267  Uiso   1.00
H47    H     0.38060   0.29590   0.09010   0.01267  Uiso   1.00
H48    H     0.29590   0.91530   0.90990   0.01267  Uiso   1.00
H49    H     0.61940   0.91530   0.90990   0.01267  Uiso   1.00
H50    H     0.32350   0.46670   0.34820   0.01267  Uiso   1.00
H51    H     0.53330   0.85680   0.34820   0.01267  Uiso   1.00
H52    H     0.53330   0.67650   0.34820   0.01267  Uiso   1.00
H53    H     0.14320   0.67650   0.34820   0.01267  Uiso   1.00
H54    H     0.66380   0.83190   0.61570   0.01267  Uiso   1.00
H55    H     0.38060   0.08470   0.09010   0.01267  Uiso   1.00
H56    H     0.33620   0.16810   0.11570   0.01267  Uiso   1.00
H57    H     0.85680   0.53330   0.65180   0.01267  Uiso   1.00
H58    H     0.35050   0.44520   0.09130   0.01267  Uiso   1.00
H59    H     0.35050   0.44520   0.40870   0.01267  Uiso   1.00
H60    H     0.52540   0.76270   0.50300   0.01267  Uiso   1.00
H61    H     0.33620   0.16810   0.38430   0.01267  Uiso   1.00
H62    H     0.38060   0.08470   0.40990   0.01267  Uiso   1.00
H63    H     0.55480   0.64950   0.40870   0.01267  Uiso   1.00
H64    H     0.44520   0.09470   0.90870   0.01267  Uiso   1.00
H65    H     0.14320   0.67650   0.15180   0.01267  Uiso   1.00
H66    H     0.46670   0.32350   0.65180   0.01267  Uiso   1.00
H67    H     0.53330   0.67650   0.15180   0.01267  Uiso   1.00
H68    H     0.53330   0.85680   0.15180   0.01267  Uiso   1.00
H69    H     0.32350   0.46670   0.15180   0.01267  Uiso   1.00
H70    H     0.52540   0.76270   0.99700   0.01267  Uiso   1.00
H71    H     0.29590   0.38060   0.59010   0.01267  Uiso   1.00
H72    H     0.38060   0.29590   0.40990   0.01267  Uiso   1.00
H73    H     0.09470   0.44520   0.09130   0.01267  Uiso   1.00
H74    H     0.61940   0.70410   0.90990   0.01267  Uiso   1.00
H75    H     0.91530   0.61940   0.09010   0.01267  Uiso   1.00
H76    H     0.70410   0.08470   0.09010   0.01267  Uiso   1.00
H77    H     0.83190   0.16810   0.11570   0.01267  Uiso   1.00
H78    H     0.14320   0.46670   0.34820   0.01267  Uiso   1.00
H79    H     0.08470   0.38060   0.59010   0.01267  Uiso   1.00
H80    H     0.90530   0.55480   0.90870   0.01267  Uiso   1.00
H81    H     0.44520   0.35050   0.90870   0.01267  Uiso   1.00
H82    H     0.23730   0.47460   0.99700   0.01267  Uiso   1.00
H83    H     0.61940   0.91530   0.59010   0.01267  Uiso   1.00
H84    H     0.91530   0.29590   0.40990   0.01267  Uiso   1.00
H85    H     0.85680   0.53330   0.84820   0.01267  Uiso   1.00
H86    H     0.76270   0.52540   0.00300   0.01267  Uiso   1.00
H87    H     0.55480   0.64950   0.09130   0.01267  Uiso   1.00
H88    H     0.90530   0.35050   0.90870   0.01267  Uiso   1.00
H89    H     0.85680   0.32350   0.84820   0.01267  Uiso   1.00
H90    H     0.32350   0.85680   0.15180   0.01267  Uiso   1.00
H91    H     0.67650   0.53330   0.65180   0.01267  Uiso   1.00
H92    H     0.61940   0.70410   0.59010   0.01267  Uiso   1.00
H93    H     0.70410   0.61940   0.40990   0.01267  Uiso   1.00
H94    H     0.23730   0.47460   0.50300   0.01267  Uiso   1.00
H95    H     0.64950   0.09470   0.90870   0.01267  Uiso   1.00
H96    H     0.29590   0.91530   0.59010   0.01267  Uiso   1.00
C1     C     0.45390   0.35810   0.02595   0.01267  Uiso   1.00
C2     C     0.59247   0.18494   0.80366   0.01267  Uiso   1.00
C3     C     0.89470   0.50620   0.89625   0.01267  Uiso   1.00
C4     C     0.27800   0.84860   0.95638   0.01267  Uiso   1.00
C5     C     0.42638   0.85276   0.15805   0.01267  Uiso   1.00
C6     C     0.72200   0.57060   0.04362   0.01267  Uiso   1.00
C7     C     0.74200   0.60890   0.42239   0.01267  Uiso   1.00
C8     C     0.50590   0.37230   0.86015   0.01267  Uiso   1.00
C9     C     0.55170   0.77585   0.97343   0.01267  Uiso   1.00
C10    C     0.86690   0.60890   0.42239   0.01267  Uiso   1.00
C11    C     0.09580   0.64190   0.52595   0.01267  Uiso   1.00
C12    C     0.57060   0.72200   0.95638   0.01267  Uiso   1.00
C13    C     0.40753   0.81506   0.19634   0.01267  Uiso   1.00
C14    C     0.81506   0.40753   0.69634   0.01267  Uiso   1.00
C15    C     0.37230   0.50590   0.13985   0.01267  Uiso   1.00
C16    C     0.25800   0.86690   0.92239   0.01267  Uiso   1.00
C17    C     0.10530   0.61150   0.39625   0.01267  Uiso   1.00
C18    C     0.15140   0.72200   0.54362   0.01267  Uiso   1.00
C19    C     0.86640   0.37230   0.86015   0.01267  Uiso   1.00
C20    C     0.62770   0.49410   0.86015   0.01267  Uiso   1.00
C21    C     0.50620   0.89470   0.10375   0.01267  Uiso   1.00
C22    C     0.57362   0.14724   0.65805   0.01267  Uiso   1.00
C23    C     0.38850   0.89470   0.10375   0.01267  Uiso   1.00
C24    C     0.84860   0.27800   0.04362   0.01267  Uiso   1.00
C25    C     0.18400   0.36800   0.59370   0.01267  Uiso   1.00
C26    C     0.77585   0.22415   0.47343   0.01267  Uiso   1.00
C27    C     0.13360   0.50590   0.36015   0.01267  Uiso   1.00
C28    C     0.15140   0.42940   0.95638   0.01267  Uiso   1.00
C29    C     0.35810   0.45390   0.52595   0.01267  Uiso   1.00
C30    C     0.50590   0.13360   0.63985   0.01267  Uiso   1.00
C31    C     0.57362   0.42638   0.84195   0.01267  Uiso   1.00
C32    C     0.13360   0.50590   0.13985   0.01267  Uiso   1.00
C33    C     0.77585   0.22415   0.02657   0.01267  Uiso   1.00
C34    C     0.22415   0.44830   0.52657   0.01267  Uiso   1.00
C35    C     0.49380   0.38850   0.89625   0.01267  Uiso   1.00
C36    C     0.13310   0.39110   0.57761   0.01267  Uiso   1.00
C37    C     0.84860   0.27800   0.45638   0.01267  Uiso   1.00
C38    C     0.38850   0.89470   0.39625   0.01267  Uiso   1.00
C39    C     0.86640   0.49410   0.86015   0.01267  Uiso   1.00
C40    C     0.15140   0.72200   0.95638   0.01267  Uiso   1.00
C41    C     0.54610   0.64190   0.97405   0.01267  Uiso   1.00
C42    C     0.50620   0.89470   0.39625   0.01267  Uiso   1.00
C43    C     0.57060   0.72200   0.54362   0.01267  Uiso   1.00
C44    C     0.89470   0.38850   0.60375   0.01267  Uiso   1.00
C45    C     0.49380   0.10530   0.89625   0.01267  Uiso   1.00
C46    C     0.10530   0.61150   0.10375   0.01267  Uiso   1.00
C47    C     0.35810   0.45390   0.97405   0.01267  Uiso   1.00
C48    C     0.62770   0.13360   0.86015   0.01267  Uiso   1.00
C49    C     0.37230   0.50590   0.36015   0.01267  Uiso   1.00
C50    C     0.40753   0.81506   0.30366   0.01267  Uiso   1.00
C51    C     0.25800   0.86690   0.57761   0.01267  Uiso   1.00
C52    C     0.86690   0.60890   0.07761   0.01267  Uiso   1.00
C53    C     0.59247   0.18494   0.69634   0.01267  Uiso   1.00
C54    C     0.13310   0.74200   0.57761   0.01267  Uiso   1.00
C55    C     0.27800   0.84860   0.54362   0.01267  Uiso   1.00
C56    C     0.74200   0.60890   0.07761   0.01267  Uiso   1.00
C57    C     0.72200   0.57060   0.45638   0.01267  Uiso   1.00
C58    C     0.25800   0.39110   0.92239   0.01267  Uiso   1.00
C59    C     0.42638   0.85276   0.34195   0.01267  Uiso   1.00
C60    C     0.50620   0.61150   0.10375   0.01267  Uiso   1.00
C61    C     0.86640   0.37230   0.63985   0.01267  Uiso   1.00
C62    C     0.45390   0.35810   0.47405   0.01267  Uiso   1.00
C63    C     0.74200   0.13310   0.07761   0.01267  Uiso   1.00
C64    C     0.90420   0.35810   0.47405   0.01267  Uiso   1.00
C65    C     0.49380   0.10530   0.60375   0.01267  Uiso   1.00
C66    C     0.81506   0.40753   0.80366   0.01267  Uiso   1.00
C67    C     0.42940   0.27800   0.04362   0.01267  Uiso   1.00
C68    C     0.55170   0.77585   0.52657   0.01267  Uiso   1.00
C69    C     0.85276   0.42638   0.65805   0.01267  Uiso   1.00
C70    C     0.54610   0.90420   0.52595   0.01267  Uiso   1.00
C71    C     0.45390   0.09580   0.02595   0.01267  Uiso   1.00
C72    C     0.57362   0.42638   0.65805   0.01267  Uiso   1.00
C73    C     0.18400   0.36800   0.90630   0.01267  Uiso   1.00
C74    C     0.49410   0.86640   0.36015   0.01267  Uiso   1.00
C75    C     0.57060   0.84860   0.95638   0.01267  Uiso   1.00
C76    C     0.60890   0.86690   0.92239   0.01267  Uiso   1.00
C77    C     0.84860   0.57060   0.04362   0.01267  Uiso   1.00
C78    C     0.60890   0.86690   0.57761   0.01267  Uiso   1.00
C79    C     0.86640   0.49410   0.63985   0.01267  Uiso   1.00
C80    C     0.77585   0.55170   0.02657   0.01267  Uiso   1.00
C81    C     0.18494   0.59247   0.30366   0.01267  Uiso   1.00
C82    C     0.81600   0.18400   0.40630   0.01267  Uiso   1.00
C83    C     0.54610   0.90420   0.97405   0.01267  Uiso   1.00
C84    C     0.72200   0.15140   0.45638   0.01267  Uiso   1.00
C85    C     0.64190   0.54610   0.47405   0.01267  Uiso   1.00
C86    C     0.64190   0.09580   0.47405   0.01267  Uiso   1.00
C87    C     0.42638   0.57362   0.34195   0.01267  Uiso   1.00
C88    C     0.90420   0.54610   0.47405   0.01267  Uiso   1.00
C89    C     0.18400   0.81600   0.59370   0.01267  Uiso   1.00
C90    C     0.35810   0.90420   0.52595   0.01267  Uiso   1.00
C91    C     0.89470   0.50620   0.60375   0.01267  Uiso   1.00
C92    C     0.61150   0.10530   0.60375   0.01267  Uiso   1.00
C93    C     0.40753   0.59247   0.30366   0.01267  Uiso   1.00
C94    C     0.49410   0.62770   0.13985   0.01267  Uiso   1.00
C95    C     0.61150   0.10530   0.89625   0.01267  Uiso   1.00
C96    C     0.59247   0.40753   0.80366   0.01267  Uiso   1.00
C97    C     0.42940   0.15140   0.04362   0.01267  Uiso   1.00
C98    C     0.14724   0.57362   0.15805   0.01267  Uiso   1.00
C99    C     0.10530   0.49380   0.39625   0.01267  Uiso   1.00
C100   C     0.25800   0.39110   0.57761   0.01267  Uiso   1.00
C101   C     0.39110   0.13310   0.07761   0.01267  Uiso   1.00
C102   C     0.62770   0.49410   0.63985   0.01267  Uiso   1.00
C103   C     0.62770   0.13360   0.63985   0.01267  Uiso   1.00
C104   C     0.44830   0.22415   0.47343   0.01267  Uiso   1.00
C105   C     0.09580   0.45390   0.97405   0.01267  Uiso   1.00
C106   C     0.13360   0.62770   0.36015   0.01267  Uiso   1.00
C107   C     0.09580   0.64190   0.97405   0.01267  Uiso   1.00
C108   C     0.54610   0.64190   0.52595   0.01267  Uiso   1.00
C109   C     0.37230   0.86640   0.36015   0.01267  Uiso   1.00
C110   C     0.27800   0.42940   0.54362   0.01267  Uiso   1.00
C111   C     0.81600   0.63200   0.09370   0.01267  Uiso   1.00
C112   C     0.38850   0.49380   0.10375   0.01267  Uiso   1.00
C113   C     0.86690   0.25800   0.07761   0.01267  Uiso   1.00
C114   C     0.39110   0.25800   0.07761   0.01267  Uiso   1.00
C115   C     0.39110   0.25800   0.42239   0.01267  Uiso   1.00
C116   C     0.27800   0.42940   0.95638   0.01267  Uiso   1.00
C117   C     0.86690   0.25800   0.42239   0.01267  Uiso   1.00
C118   C     0.38850   0.49380   0.39625   0.01267  Uiso   1.00
C119   C     0.81600   0.63200   0.40630   0.01267  Uiso   1.00
C120   C     0.37230   0.86640   0.13985   0.01267  Uiso   1.00
C121   C     0.57362   0.14724   0.84195   0.01267  Uiso   1.00
C122   C     0.36800   0.18400   0.09370   0.01267  Uiso   1.00
C123   C     0.13360   0.62770   0.13985   0.01267  Uiso   1.00
C124   C     0.15140   0.42940   0.54362   0.01267  Uiso   1.00
C125   C     0.89470   0.38850   0.89625   0.01267  Uiso   1.00
C126   C     0.44830   0.22415   0.02657   0.01267  Uiso   1.00
C127   C     0.39110   0.13310   0.42239   0.01267  Uiso   1.00
C128   C     0.77585   0.55170   0.47343   0.01267  Uiso   1.00
C129   C     0.18400   0.81600   0.90630   0.01267  Uiso   1.00
C130   C     0.09580   0.45390   0.52595   0.01267  Uiso   1.00
C131   C     0.10530   0.49380   0.10375   0.01267  Uiso   1.00
C132   C     0.14724   0.57362   0.34195   0.01267  Uiso   1.00
C133   C     0.63200   0.81600   0.90630   0.01267  Uiso   1.00
C134   C     0.42940   0.15140   0.45638   0.01267  Uiso   1.00
C135   C     0.13310   0.74200   0.92239   0.01267  Uiso   1.00
C136   C     0.49410   0.62770   0.36015   0.01267  Uiso   1.00
C137   C     0.40753   0.59247   0.19634   0.01267  Uiso   1.00
C138   C     0.22415   0.44830   0.97343   0.01267  Uiso   1.00
C139   C     0.50590   0.37230   0.63985   0.01267  Uiso   1.00
C140   C     0.49380   0.38850   0.60375   0.01267  Uiso   1.00
C141   C     0.59247   0.40753   0.69634   0.01267  Uiso   1.00
C142   C     0.90420   0.54610   0.02595   0.01267  Uiso   1.00
C143   C     0.60890   0.74200   0.92239   0.01267  Uiso   1.00
C144   C     0.63200   0.81600   0.59370   0.01267  Uiso   1.00
C145   C     0.42638   0.57362   0.15805   0.01267  Uiso   1.00
C146   C     0.13310   0.39110   0.92239   0.01267  Uiso   1.00
C147   C     0.64190   0.09580   0.02595   0.01267  Uiso   1.00
C148   C     0.35810   0.90420   0.97405   0.01267  Uiso   1.00
C149   C     0.64190   0.54610   0.02595   0.01267  Uiso   1.00
C150   C     0.72200   0.15140   0.04362   0.01267  Uiso   1.00
C151   C     0.22415   0.77585   0.52657   0.01267  Uiso   1.00
C152   C     0.81600   0.18400   0.09370   0.01267  Uiso   1.00
C153   C     0.18494   0.59247   0.19634   0.01267  Uiso   1.00
C154   C     0.50620   0.61150   0.39625   0.01267  Uiso   1.00
C155   C     0.84860   0.57060   0.45638   0.01267  Uiso   1.00
C156   C     0.50590   0.13360   0.86015   0.01267  Uiso   1.00
C157   C     0.36800   0.18400   0.40630   0.01267  Uiso   1.00
C158   C     0.60890   0.74200   0.57761   0.01267  Uiso   1.00
C159   C     0.49410   0.86640   0.13985   0.01267  Uiso   1.00
C160   C     0.61150   0.50620   0.89625   0.01267  Uiso   1.00
C161   C     0.85276   0.42638   0.84195   0.01267  Uiso   1.00
C162   C     0.45390   0.09580   0.47405   0.01267  Uiso   1.00
C163   C     0.57060   0.84860   0.54362   0.01267  Uiso   1.00
C164   C     0.61150   0.50620   0.60375   0.01267  Uiso   1.00
C165   C     0.42940   0.27800   0.45638   0.01267  Uiso   1.00
C166   C     0.90420   0.35810   0.02595   0.01267  Uiso   1.00
C167   C     0.74200   0.13310   0.42239   0.01267  Uiso   1.00
C168   C     0.22415   0.77585   0.97343   0.01267  Uiso   1.00
N1     N     0.09262   0.54631   0.41412   0.01267  Uiso   1.00
N2     N     0.45369   0.90738   0.08588   0.01267  Uiso   1.00
N3     N     0.54631   0.09262   0.58588   0.01267  Uiso   1.00
N4     N     0.54631   0.09262   0.91412   0.01267  Uiso   1.00
N5     N     0.54631   0.45369   0.91412   0.01267  Uiso   1.00
N6     N     0.45369   0.90738   0.41412   0.01267  Uiso   1.00
N7     N     0.09262   0.54631   0.08588   0.01267  Uiso   1.00
N8     N     0.54631   0.45369   0.58588   0.01267  Uiso   1.00
N9     N     0.45369   0.54631   0.41412   0.01267  Uiso   1.00
N10    N     0.90738   0.45369   0.91412   0.01267  Uiso   1.00
N11    N     0.45369   0.54631   0.08588   0.01267  Uiso   1.00
N12    N     0.90738   0.45369   0.58588   0.01267  Uiso   1.00
O1     O     0.59180   0.03530   0.45613   0.01267  Uiso   1.00
O2     O     0.45933   0.79994   0.21026   0.01267  Uiso   1.00
O3     O     0.48277   0.11362   0.50637   0.01267  Uiso   1.00
O4     O     0.96470   0.55650   0.04387   0.01267  Uiso   1.00
O5     O     0.44350   0.40820   0.45613   0.01267  Uiso   1.00
O6     O     0.65939   0.20006   0.71026   0.01267  Uiso   1.00
O7     O     0.63085   0.11362   0.50637   0.01267  Uiso   1.00
O8     O     0.11362   0.63085   0.00637   0.01267  Uiso   1.00
O9     O     0.48277   0.36915   0.50637   0.01267  Uiso   1.00
O10    O     0.36915   0.88638   0.49363   0.01267  Uiso   1.00
O11    O     0.21280   0.78720   0.25000   0.01267  Uiso   1.00
O12    O     0.65939   0.45933   0.71026   0.01267  Uiso   1.00
O13    O     0.45933   0.79994   0.28974   0.01267  Uiso   1.00
O14    O     0.88638   0.36915   0.50637   0.01267  Uiso   1.00
O15    O     0.33333   0.66666   0.25000   0.01267  Uiso   1.00
O16    O     0.88638   0.36915   0.99363   0.01267  Uiso   1.00
O17    O     0.79994   0.34061   0.71026   0.01267  Uiso   1.00
O18    O     0.88638   0.51723   0.50637   0.01267  Uiso   1.00
O19    O     0.44350   0.40820   0.04387   0.01267  Uiso   1.00
O20    O     0.55650   0.59180   0.95613   0.01267  Uiso   1.00
O21    O     0.96470   0.55650   0.45613   0.01267  Uiso   1.00
O22    O     0.78720   0.21280   0.75000   0.01267  Uiso   1.00
O23    O     0.79994   0.34061   0.78974   0.01267  Uiso   1.00
O24    O     0.59180   0.03530   0.04387   0.01267  Uiso   1.00
O25    O     0.79994   0.45933   0.71026   0.01267  Uiso   1.00
O26    O     0.65939   0.45933   0.78974   0.01267  Uiso   1.00
O27    O     0.66667   0.33334   0.75000   0.01267  Uiso   1.00
O28    O     0.55650   0.59180   0.54387   0.01267  Uiso   1.00
O29    O     0.03530   0.44350   0.54387   0.01267  Uiso   1.00
O30    O     0.11362   0.63085   0.49363   0.01267  Uiso   1.00
O31    O     0.63085   0.51723   0.99363   0.01267  Uiso   1.00
O32    O     0.59180   0.55650   0.04387   0.01267  Uiso   1.00
O33    O     0.11362   0.48277   0.00637   0.01267  Uiso   1.00
O34    O     0.55650   0.96470   0.54387   0.01267  Uiso   1.00
O35    O     0.79994   0.45933   0.78974   0.01267  Uiso   1.00
O36    O     0.03530   0.59180   0.54387   0.01267  Uiso   1.00
O37    O     0.36915   0.88638   0.00637   0.01267  Uiso   1.00
O38    O     0.20006   0.65939   0.28974   0.01267  Uiso   1.00
O39    O     0.51723   0.88638   0.00637   0.01267  Uiso   1.00
O40    O     0.54067   0.20006   0.71026   0.01267  Uiso   1.00
O41    O     0.44350   0.03530   0.04387   0.01267  Uiso   1.00
O42    O     0.96470   0.40820   0.04387   0.01267  Uiso   1.00
O43    O     0.45933   0.65939   0.21026   0.01267  Uiso   1.00
O44    O     0.54067   0.34061   0.78974   0.01267  Uiso   1.00
O45    O     0.20006   0.54067   0.28974   0.01267  Uiso   1.00
O46    O     0.40820   0.96470   0.54387   0.01267  Uiso   1.00
O47    O     0.36915   0.48277   0.00637   0.01267  Uiso   1.00
O48    O     0.03530   0.44350   0.95613   0.01267  Uiso   1.00
O49    O     0.34061   0.79994   0.21026   0.01267  Uiso   1.00
O50    O     0.51723   0.63085   0.49363   0.01267  Uiso   1.00
O51    O     0.55650   0.96470   0.95613   0.01267  Uiso   1.00
O52    O     0.03530   0.59180   0.95613   0.01267  Uiso   1.00
O53    O     0.42560   0.21280   0.75000   0.01267  Uiso   1.00
O54    O     0.40820   0.44350   0.95613   0.01267  Uiso   1.00
O55    O     0.88638   0.51723   0.99363   0.01267  Uiso   1.00
O56    O     0.65939   0.20006   0.78974   0.01267  Uiso   1.00
O57    O     0.63085   0.11362   0.99363   0.01267  Uiso   1.00
O58    O     0.51723   0.63085   0.00637   0.01267  Uiso   1.00
O59    O     0.34061   0.54067   0.21026   0.01267  Uiso   1.00
O60    O     0.34061   0.79994   0.28974   0.01267  Uiso   1.00
O61    O     0.48277   0.36915   0.99363   0.01267  Uiso   1.00
O62    O     0.40820   0.96470   0.95613   0.01267  Uiso   1.00
O63    O     0.36915   0.48277   0.49363   0.01267  Uiso   1.00
O64    O     0.48277   0.11362   0.99363   0.01267  Uiso   1.00
O65    O     0.20006   0.54067   0.21026   0.01267  Uiso   1.00
O66    O     0.63085   0.51723   0.50637   0.01267  Uiso   1.00
O67    O     0.45933   0.65939   0.28974   0.01267  Uiso   1.00
O68    O     0.96470   0.40820   0.45613   0.01267  Uiso   1.00
O69    O     0.44350   0.03530   0.45613   0.01267  Uiso   1.00
O70    O     0.51723   0.88638   0.49363   0.01267  Uiso   1.00
O71    O     0.20006   0.65939   0.21026   0.01267  Uiso   1.00
O72    O     0.57440   0.78720   0.25000   0.01267  Uiso   1.00
O73    O     0.21280   0.42560   0.25000   0.01267  Uiso   1.00
O74    O     0.11362   0.48277   0.49363   0.01267  Uiso   1.00
O75    O     0.59180   0.55650   0.45613   0.01267  Uiso   1.00
O76    O     0.54067   0.34061   0.71026   0.01267  Uiso   1.00
O77    O     0.54067   0.20006   0.78974   0.01267  Uiso   1.00
O78    O     0.78720   0.57440   0.75000   0.01267  Uiso   1.00
O79    O     0.34061   0.54067   0.28974   0.01267  Uiso   1.00
O80    O     0.40820   0.44350   0.54387   0.01267  Uiso   1.00
