data_image0
_cell_length_a       16.703
_cell_length_b       11.725
_cell_length_c       9.533
_cell_angle_alpha    90
_cell_angle_beta     114.85
_cell_angle_gamma    90

_symmetry_space_group_name_H-M    "P 1"
_symmetry_int_tables_number       1

loop_
  _symmetry_equiv_pos_as_xyz
  'x, y, z'

loop_
  _atom_site_label
  _atom_site_occupancy
  _atom_site_fract_x
  _atom_site_fract_y
  _atom_site_fract_z
  _atom_site_thermal_displace_type
  _atom_site_B_iso_or_equiv
  _atom_site_type_symbol
  C1       1.0000 0.92020  0.20960  0.80020  Biso   1.000  C
  H1       1.0000 0.89970  0.16310  0.71310  Biso   1.000  H
  C2       1.0000 0.83370  0.36120  0.63320  Biso   1.000  C
  H2       1.0000 0.83080  0.30960  0.55300  Biso   1.000  H
  H3       1.0000 0.85450  0.43410  0.61690  Biso   1.000  H
  H4       1.0000 0.77610  0.36950  0.63130  Biso   1.000  H
  C3       1.0000 0.91800  0.38960  0.91420  Biso   1.000  C
  H5       1.0000 0.87590  0.38140  0.95770  Biso   1.000  H
  H6       1.0000 0.91860  0.46730  0.88290  Biso   1.000  H
  H7       1.0000 0.97560  0.36920  0.99010  Biso   1.000  H
  C4       1.0000 0.11996  0.07590  0.34450  Biso   1.000  C
  C5       1.0000 0.23819  0.16010  0.58270  Biso   1.000  C
  H8       1.0000 0.22960  0.09980  0.63820  Biso   1.000  H
  C6       1.0000 0.18706  0.16670  0.42320  Biso   1.000  C
  C7       1.0000 0.19914  0.25890  0.34130  Biso   1.000  C
  N1       1.0000 0.89410  0.31610  0.78240  Biso   1.000  N
  O1       1.0000 0.08939  0.07380  0.19820  Biso   1.000  O
  O2       1.0000 0.90024  0.00756  0.07620  Biso   1.000  O
  O3       1.0000 0.96951  0.16724  0.92290  Biso   1.000  O
  O4       1.0000 0.15100  0.27660  0.18770  Biso   1.000  O
  H9       1.0000 0.12370  0.21840  0.14790  Biso   1.000  H
  C8       1.0000 0.42020  0.70960  0.80020  Biso   1.000  C
  H10      1.0000 0.39970  0.66310  0.71310  Biso   1.000  H
  C9       1.0000 0.33370  0.86120  0.63320  Biso   1.000  C
  H11      1.0000 0.33080  0.80960  0.55300  Biso   1.000  H
  H12      1.0000 0.35450  0.93410  0.61690  Biso   1.000  H
  H13      1.0000 0.27610  0.86950  0.63130  Biso   1.000  H
  C10      1.0000 0.41800  0.88960  0.91420  Biso   1.000  C
  H14      1.0000 0.37590  0.88140  0.95770  Biso   1.000  H
  H15      1.0000 0.41860  0.96730  0.88290  Biso   1.000  H
  H16      1.0000 0.47560  0.86920  0.99010  Biso   1.000  H
  C11      1.0000 0.61996  0.57590  0.34450  Biso   1.000  C
  C12      1.0000 0.73819  0.66010  0.58270  Biso   1.000  C
  H17      1.0000 0.72960  0.59980  0.63820  Biso   1.000  H
  C13      1.0000 0.68706  0.66670  0.42320  Biso   1.000  C
  C14      1.0000 0.69914  0.75890  0.34130  Biso   1.000  C
  N2       1.0000 0.39410  0.81610  0.78240  Biso   1.000  N
  O5       1.0000 0.58939  0.57380  0.19820  Biso   1.000  O
  O6       1.0000 0.40024  0.50756  0.07620  Biso   1.000  O
  O7       1.0000 0.46951  0.66724  0.92290  Biso   1.000  O
  O8       1.0000 0.65100  0.77660  0.18770  Biso   1.000  O
  H18      1.0000 0.62370  0.71840  0.14790  Biso   1.000  H
  C15      1.0000 0.07980  0.20960  0.69980  Biso   1.000  C
  H19      1.0000 0.10030  0.16310  0.78690  Biso   1.000  H
  C16      1.0000 0.16630  0.36120  0.86680  Biso   1.000  C
  H20      1.0000 0.16920  0.30960  0.94700  Biso   1.000  H
  H21      1.0000 0.14550  0.43410  0.88310  Biso   1.000  H
  H22      1.0000 0.22390  0.36950  0.86870  Biso   1.000  H
  C17      1.0000 0.08200  0.38960  0.58580  Biso   1.000  C
  H23      1.0000 0.12410  0.38140  0.54230  Biso   1.000  H
  H24      1.0000 0.08140  0.46730  0.61710  Biso   1.000  H
  H25      1.0000 0.02440  0.36920  0.50990  Biso   1.000  H
  C18      1.0000 0.88004  0.07590  0.15550  Biso   1.000  C
  C19      1.0000 0.76181  0.16010  0.91730  Biso   1.000  C
  H26      1.0000 0.77040  0.09980  0.86180  Biso   1.000  H
  C20      1.0000 0.81294  0.16670  0.07680  Biso   1.000  C
  C21      1.0000 0.80086  0.25890  0.15870  Biso   1.000  C
  N3       1.0000 0.10590  0.31610  0.71760  Biso   1.000  N
  O9       1.0000 0.91061  0.07380  0.30180  Biso   1.000  O
  O10      1.0000 0.09976  0.00756  0.42380  Biso   1.000  O
  O11      1.0000 0.03049  0.16724  0.57710  Biso   1.000  O
  O12      1.0000 0.84900  0.27660  0.31230  Biso   1.000  O
  H27      1.0000 0.87630  0.21840  0.35210  Biso   1.000  H
  C22      1.0000 0.57980  0.70960  0.69980  Biso   1.000  C
  H28      1.0000 0.60030  0.66310  0.78690  Biso   1.000  H
  C23      1.0000 0.66630  0.86120  0.86680  Biso   1.000  C
  H29      1.0000 0.66920  0.80960  0.94700  Biso   1.000  H
  H30      1.0000 0.64550  0.93410  0.88310  Biso   1.000  H
  H31      1.0000 0.72390  0.86950  0.86870  Biso   1.000  H
  C24      1.0000 0.58200  0.88960  0.58580  Biso   1.000  C
  H32      1.0000 0.62410  0.88140  0.54230  Biso   1.000  H
  H33      1.0000 0.58140  0.96730  0.61710  Biso   1.000  H
  H34      1.0000 0.52440  0.86920  0.50990  Biso   1.000  H
  C25      1.0000 0.38004  0.57590  0.15550  Biso   1.000  C
  C26      1.0000 0.26181  0.66010  0.91730  Biso   1.000  C
  H35      1.0000 0.27040  0.59980  0.86180  Biso   1.000  H
  C27      1.0000 0.31294  0.66670  0.07680  Biso   1.000  C
  C28      1.0000 0.30086  0.75890  0.15870  Biso   1.000  C
  N4       1.0000 0.60590  0.81610  0.71760  Biso   1.000  N
  O13      1.0000 0.41061  0.57380  0.30180  Biso   1.000  O
  O14      1.0000 0.59976  0.50756  0.42380  Biso   1.000  O
  O15      1.0000 0.53049  0.66724  0.57710  Biso   1.000  O
  O16      1.0000 0.34900  0.77660  0.31230  Biso   1.000  O
  H36      1.0000 0.37630  0.71840  0.35210  Biso   1.000  H
  C29      1.0000 0.07980  0.79040  0.19980  Biso   1.000  C
  H37      1.0000 0.10030  0.83690  0.28690  Biso   1.000  H
  C30      1.0000 0.16630  0.63880  0.36680  Biso   1.000  C
  H38      1.0000 0.16920  0.69040  0.44700  Biso   1.000  H
  H39      1.0000 0.14550  0.56590  0.38310  Biso   1.000  H
  H40      1.0000 0.22390  0.63050  0.36870  Biso   1.000  H
  C31      1.0000 0.08200  0.61040  0.08580  Biso   1.000  C
  H41      1.0000 0.12410  0.61860  0.04230  Biso   1.000  H
  H42      1.0000 0.08140  0.53270  0.11710  Biso   1.000  H
  H43      1.0000 0.02440  0.63080  0.00990  Biso   1.000  H
  C32      1.0000 0.88004  0.92410  0.65550  Biso   1.000  C
  C33      1.0000 0.76181  0.83990  0.41730  Biso   1.000  C
  H44      1.0000 0.77040  0.90020  0.36180  Biso   1.000  H
  C34      1.0000 0.81294  0.83330  0.57680  Biso   1.000  C
  C35      1.0000 0.80086  0.74110  0.65870  Biso   1.000  C
  N5       1.0000 0.10590  0.68390  0.21760  Biso   1.000  N
  O17      1.0000 0.91061  0.92620  0.80180  Biso   1.000  O
  O18      1.0000 0.09976  0.99244  0.92380  Biso   1.000  O
  O19      1.0000 0.03049  0.83276  0.07710  Biso   1.000  O
  O20      1.0000 0.84900  0.72340  0.81230  Biso   1.000  O
  H45      1.0000 0.87630  0.78160  0.85210  Biso   1.000  H
  C36      1.0000 0.57980  0.29040  0.19980  Biso   1.000  C
  H46      1.0000 0.60030  0.33690  0.28690  Biso   1.000  H
  C37      1.0000 0.66630  0.13880  0.36680  Biso   1.000  C
  H47      1.0000 0.66920  0.19040  0.44700  Biso   1.000  H
  H48      1.0000 0.64550  0.06590  0.38310  Biso   1.000  H
  H49      1.0000 0.72390  0.13050  0.36870  Biso   1.000  H
  C38      1.0000 0.58200  0.11040  0.08580  Biso   1.000  C
  H50      1.0000 0.62410  0.11860  0.04230  Biso   1.000  H
  H51      1.0000 0.58140  0.03270  0.11710  Biso   1.000  H
  H52      1.0000 0.52440  0.13080  0.00990  Biso   1.000  H
  C39      1.0000 0.38004  0.42410  0.65550  Biso   1.000  C
  C40      1.0000 0.26181  0.33990  0.41730  Biso   1.000  C
  H53      1.0000 0.27040  0.40020  0.36180  Biso   1.000  H
  C41      1.0000 0.31294  0.33330  0.57680  Biso   1.000  C
  C42      1.0000 0.30086  0.24110  0.65870  Biso   1.000  C
  N6       1.0000 0.60590  0.18390  0.21760  Biso   1.000  N
  O21      1.0000 0.41061  0.42620  0.80180  Biso   1.000  O
  O22      1.0000 0.59976  0.49244  0.92380  Biso   1.000  O
  O23      1.0000 0.53049  0.33276  0.07710  Biso   1.000  O
  O24      1.0000 0.34900  0.22340  0.81230  Biso   1.000  O
  H54      1.0000 0.37630  0.28160  0.85210  Biso   1.000  H
  C43      1.0000 0.92020  0.79040  0.30020  Biso   1.000  C
  H55      1.0000 0.89970  0.83690  0.21310  Biso   1.000  H
  C44      1.0000 0.83370  0.63880  0.13320  Biso   1.000  C
  H56      1.0000 0.83080  0.69040  0.05300  Biso   1.000  H
  H57      1.0000 0.85450  0.56590  0.11690  Biso   1.000  H
  H58      1.0000 0.77610  0.63050  0.13130  Biso   1.000  H
  C45      1.0000 0.91800  0.61040  0.41420  Biso   1.000  C
  H59      1.0000 0.87590  0.61860  0.45770  Biso   1.000  H
  H60      1.0000 0.91860  0.53270  0.38290  Biso   1.000  H
  H61      1.0000 0.97560  0.63080  0.49010  Biso   1.000  H
  C46      1.0000 0.11996  0.92410  0.84450  Biso   1.000  C
  C47      1.0000 0.23819  0.83990  0.08270  Biso   1.000  C
  H62      1.0000 0.22960  0.90020  0.13820  Biso   1.000  H
  C48      1.0000 0.18706  0.83330  0.92320  Biso   1.000  C
  C49      1.0000 0.19914  0.74110  0.84130  Biso   1.000  C
  N7       1.0000 0.89410  0.68390  0.28240  Biso   1.000  N
  O25      1.0000 0.08939  0.92620  0.69820  Biso   1.000  O
  O26      1.0000 0.90024  0.99244  0.57620  Biso   1.000  O
  O27      1.0000 0.96951  0.83276  0.42290  Biso   1.000  O
  O28      1.0000 0.15100  0.72340  0.68770  Biso   1.000  O
  H63      1.0000 0.12370  0.78160  0.64790  Biso   1.000  H
  C50      1.0000 0.42020  0.29040  0.30020  Biso   1.000  C
  H64      1.0000 0.39970  0.33690  0.21310  Biso   1.000  H
  C51      1.0000 0.33370  0.13880  0.13320  Biso   1.000  C
  H65      1.0000 0.33080  0.19040  0.05300  Biso   1.000  H
  H66      1.0000 0.35450  0.06590  0.11690  Biso   1.000  H
  H67      1.0000 0.27610  0.13050  0.13130  Biso   1.000  H
  C52      1.0000 0.41800  0.11040  0.41420  Biso   1.000  C
  H68      1.0000 0.37590  0.11860  0.45770  Biso   1.000  H
  H69      1.0000 0.41860  0.03270  0.38290  Biso   1.000  H
  H70      1.0000 0.47560  0.13080  0.49010  Biso   1.000  H
  C53      1.0000 0.61996  0.42410  0.84450  Biso   1.000  C
  C54      1.0000 0.73819  0.33990  0.08270  Biso   1.000  C
  H71      1.0000 0.72960  0.40020  0.13820  Biso   1.000  H
  C55      1.0000 0.68706  0.33330  0.92320  Biso   1.000  C
  C56      1.0000 0.69914  0.24110  0.84130  Biso   1.000  C
  N8       1.0000 0.39410  0.18390  0.28240  Biso   1.000  N
  O29      1.0000 0.58939  0.42620  0.69820  Biso   1.000  O
  O30      1.0000 0.40024  0.49244  0.57620  Biso   1.000  O
  O31      1.0000 0.46951  0.33276  0.42290  Biso   1.000  O
  O32      1.0000 0.65100  0.22340  0.68770  Biso   1.000  O
  H72      1.0000 0.62370  0.28160  0.64790  Biso   1.000  H
  Mg1      1.0000 0.00000  0.00000  0.00000  Biso   1.000  Mg
  Mg2      1.0000 0.50000  0.50000  0.00000  Biso   1.000  Mg
  Mg3      1.0000 0.00000  0.00000  0.50000  Biso   1.000  Mg
  Mg4      1.0000 0.50000  0.50000  0.50000  Biso   1.000  Mg
