data_ja4012707_si_004_freeONLY
_audit_creation_date              2015-08-19
_audit_creation_method            'Materials Studio'
_symmetry_space_group_name_H-M    'P1'
_symmetry_Int_Tables_number       1
_symmetry_cell_setting            triclinic
loop_
_symmetry_equiv_pos_as_xyz
  x,y,z
_cell_length_a                    8.2169
_cell_length_b                    8.2169
_cell_length_c                    13.1705
_cell_angle_alpha                 90.0000
_cell_angle_beta                  90.0000
_cell_angle_gamma                 120.0000
loop_
_atom_site_label
_atom_site_type_symbol
_atom_site_fract_x
_atom_site_fract_y
_atom_site_fract_z
_atom_site_U_iso_or_equiv
_atom_site_adp_type
_atom_site_occupancy
Zn1    Zn    0.66667   0.33334   0.41697   0.01267  Uiso   1.00
Zn2    Zn    0.33333   0.66666   0.91697   0.01267  Uiso   1.00
Zn3    Zn    0.66667   0.33334   0.08303   0.01267  Uiso   1.00
Zn4    Zn    0.33333   0.66666   0.58303   0.01267  Uiso   1.00
C1     C     0.54000   0.46000   0.01500   0.01267  Uiso   1.00
C2     C     0.92000   0.46000   0.48500   0.01267  Uiso   1.00
C3     C     0.46000   0.54000   0.51500   0.01267  Uiso   1.00
C4     C     0.46000   0.92000   0.98500   0.01267  Uiso   1.00
C5     C     0.66667   0.33334   0.20500   0.01267  Uiso   1.00
C6     C     0.54000   0.08000   0.01500   0.01267  Uiso   1.00
C7     C     0.08000   0.54000   0.98500   0.01267  Uiso   1.00
C8     C     0.46000   0.54000   0.98500   0.01267  Uiso   1.00
C9     C     0.54000   0.08000   0.48500   0.01267  Uiso   1.00
C10    C     0.66667   0.33334   0.29500   0.01267  Uiso   1.00
C11    C     0.92000   0.46000   0.01500   0.01267  Uiso   1.00
C12    C     0.33333   0.66666   0.70500   0.01267  Uiso   1.00
C13    C     0.33333   0.66666   0.79500   0.01267  Uiso   1.00
C14    C     0.08000   0.54000   0.51500   0.01267  Uiso   1.00
C15    C     0.46000   0.92000   0.51500   0.01267  Uiso   1.00
C16    C     0.54000   0.46000   0.48500   0.01267  Uiso   1.00
