data_ja411887c_si_002_freeONLY
_audit_creation_date              2015-08-19
_audit_creation_method            'Materials Studio'
_symmetry_space_group_name_H-M    'P1'
_symmetry_Int_Tables_number       1
_symmetry_cell_setting            triclinic
loop_
_symmetry_equiv_pos_as_xyz
  x,y,z
_cell_length_a                    24.9996
_cell_length_b                    24.9996
_cell_length_c                    24.9996
_cell_angle_alpha                 109.4710
_cell_angle_beta                  109.4710
_cell_angle_gamma                 109.4710
loop_
_atom_site_label
_atom_site_type_symbol
_atom_site_fract_x
_atom_site_fract_y
_atom_site_fract_z
_atom_site_U_iso_or_equiv
_atom_site_adp_type
_atom_site_occupancy
Zn1    Zn    0.92798   0.42101   0.18061   0.01267  Uiso   1.00
Zn2    Zn    0.81939   0.74040   0.24737   0.01267  Uiso   1.00
Zn3    Zn    0.50697   0.75960   0.57899   0.01267  Uiso   1.00
Zn4    Zn    0.75960   0.07899   0.00697   0.01267  Uiso   1.00
Zn5    Zn    0.99303   0.57202   0.25263   0.01267  Uiso   1.00
Zn6    Zn    0.00000   0.50000   0.33826   0.01267  Uiso   1.00
Zn7    Zn    0.83826   0.00000   0.00000   0.01267  Uiso   1.00
Zn8    Zn    0.57202   0.75263   0.49303   0.01267  Uiso   1.00
Zn9    Zn    0.42101   0.68061   0.42798   0.01267  Uiso   1.00
Zn10   Zn    0.07899   0.50697   0.25960   0.01267  Uiso   1.00
Zn11   Zn    0.68061   0.92798   0.92101   0.01267  Uiso   1.00
Zn12   Zn    0.74040   0.74737   0.31939   0.01267  Uiso   1.00
Zn13   Zn    0.66174   0.66174   0.16174   0.01267  Uiso   1.00
Zn14   Zn    0.50000   0.83826   0.50000   0.01267  Uiso   1.00
Zn15   Zn    0.75263   0.99303   0.07202   0.01267  Uiso   1.00
Zn16   Zn    0.74737   0.81939   0.24040   0.01267  Uiso   1.00
H1     H     0.51290   0.06250   0.37860   0.01267  Uiso   1.00
H2     H     0.54070   0.74640   0.88930   0.01267  Uiso   1.00
H3     H     0.40660   0.43130   0.74070   0.01267  Uiso   1.00
H4     H     0.94860   0.35840   0.58900   0.01267  Uiso   1.00
H5     H     0.62140   0.18390   0.63430   0.01267  Uiso   1.00
H6     H     0.64480   0.48510   0.02110   0.01267  Uiso   1.00
H7     H     0.38930   0.54070   0.24640   0.01267  Uiso   1.00
H8     H     0.35710   0.65140   0.61070   0.01267  Uiso   1.00
H9     H     0.27630   0.07830   0.34780   0.01267  Uiso   1.00
H10    H     0.85520   0.87630   0.84030   0.01267  Uiso   1.00
H11    H     0.33890   0.30180   0.10570   0.01267  Uiso   1.00
H12    H     0.43130   0.24070   0.90660   0.01267  Uiso   1.00
H13    H     0.48510   0.52110   0.14480   0.01267  Uiso   1.00
H14    H     0.67020   0.84370   0.75110   0.01267  Uiso   1.00
H15    H     0.89430   0.69610   0.73320   0.01267  Uiso   1.00
H16    H     0.16140   0.31090   0.92890   0.01267  Uiso   1.00
H17    H     0.67350   0.82980   0.08090   0.01267  Uiso   1.00
H18    H     0.18910   0.85050   0.11800   0.01267  Uiso   1.00
H19    H     0.90740   0.65630   0.32650   0.01267  Uiso   1.00
H20    H     0.18390   0.13430   0.12140   0.01267  Uiso   1.00
H21    H     0.59020   0.23060   0.64160   0.01267  Uiso   1.00
H22    H     0.90980   0.55140   0.64040   0.01267  Uiso   1.00
H23    H     0.83410   0.52470   0.59340   0.01267  Uiso   1.00
H24    H     0.60570   0.33890   0.80180   0.01267  Uiso   1.00
H25    H     0.65140   0.11070   0.85710   0.01267  Uiso   1.00
H26    H     0.14040   0.90980   0.05140   0.01267  Uiso   1.00
H27    H     0.52110   0.64480   0.98510   0.01267  Uiso   1.00
H28    H     0.66590   0.25930   0.69060   0.01267  Uiso   1.00
H29    H     0.35960   0.41100   0.76940   0.01267  Uiso   1.00
H30    H     0.06870   0.97530   0.80940   0.01267  Uiso   1.00
H31    H     0.30200   0.22370   0.07150   0.01267  Uiso   1.00
H32    H     0.97530   0.30940   0.56870   0.01267  Uiso   1.00
H33    H     0.15970   0.53600   0.51490   0.01267  Uiso   1.00
H34    H     0.06250   0.87860   0.01290   0.01267  Uiso   1.00
H35    H     0.61800   0.18910   0.35050   0.01267  Uiso   1.00
H36    H     0.52470   0.09340   0.33410   0.01267  Uiso   1.00
H37    H     0.08900   0.94860   0.85840   0.01267  Uiso   1.00
H38    H     0.25110   0.67020   0.34370   0.01267  Uiso   1.00
H39    H     0.53600   0.01490   0.65970   0.01267  Uiso   1.00
H40    H     0.84780   0.27630   0.57830   0.01267  Uiso   1.00
H41    H     0.23320   0.89430   0.19610   0.01267  Uiso   1.00
H42    H     0.07110   0.88200   0.73250   0.01267  Uiso   1.00
H43    H     0.84860   0.70570   0.45930   0.01267  Uiso   1.00
H44    H     0.91910   0.24890   0.09260   0.01267  Uiso   1.00
H45    H     0.82650   0.90740   0.15630   0.01267  Uiso   1.00
H46    H     0.33860   0.26750   0.14950   0.01267  Uiso   1.00
H47    H     0.70570   0.95930   0.34860   0.01267  Uiso   1.00
H48    H     0.69610   0.23320   0.39430   0.01267  Uiso   1.00
H49    H     0.14290   0.75360   0.29430   0.01267  Uiso   1.00
H50    H     0.95930   0.84860   0.20570   0.01267  Uiso   1.00
H51    H     0.65630   0.82650   0.40740   0.01267  Uiso   1.00
H52    H     0.30180   0.60570   0.83890   0.01267  Uiso   1.00
H53    H     0.46290   0.16110   0.76680   0.01267  Uiso   1.00
H54    H     0.31090   0.42890   0.66140   0.01267  Uiso   1.00
H55    H     0.26940   0.35960   0.91100   0.01267  Uiso   1.00
H56    H     0.55140   0.14040   0.40980   0.01267  Uiso   1.00
H57    H     0.07830   0.84780   0.77630   0.01267  Uiso   1.00
H58    H     0.35840   0.08900   0.44860   0.01267  Uiso   1.00
H59    H     0.34030   0.85520   0.37630   0.01267  Uiso   1.00
H60    H     0.26950   0.42170   0.69800   0.01267  Uiso   1.00
H61    H     0.16110   0.26680   0.96290   0.01267  Uiso   1.00
H62    H     0.64950   0.33860   0.76750   0.01267  Uiso   1.00
H63    H     0.74640   0.38930   0.04070   0.01267  Uiso   1.00
H64    H     0.26750   0.64950   0.83860   0.01267  Uiso   1.00
H65    H     0.75360   0.79430   0.64290   0.01267  Uiso   1.00
H66    H     0.42890   0.16140   0.81090   0.01267  Uiso   1.00
H67    H     0.80390   0.19820   0.53710   0.01267  Uiso   1.00
H68    H     0.88200   0.23250   0.57110   0.01267  Uiso   1.00
H69    H     0.97890   0.96400   0.12370   0.01267  Uiso   1.00
H70    H     0.04960   0.98710   0.86570   0.01267  Uiso   1.00
H71    H     0.57150   0.30200   0.72370   0.01267  Uiso   1.00
H72    H     0.42170   0.19800   0.76950   0.01267  Uiso   1.00
H73    H     0.03710   0.80390   0.69820   0.01267  Uiso   1.00
H74    H     0.30940   0.06870   0.47530   0.01267  Uiso   1.00
H75    H     0.43750   0.45040   0.81610   0.01267  Uiso   1.00
H76    H     0.23050   0.92850   0.15220   0.01267  Uiso   1.00
H77    H     0.79430   0.14290   0.25360   0.01267  Uiso   1.00
H78    H     0.19820   0.03710   0.30390   0.01267  Uiso   1.00
H79    H     0.87630   0.34030   0.35520   0.01267  Uiso   1.00
H80    H     0.09340   0.83410   0.02470   0.01267  Uiso   1.00
H81    H     0.87860   0.51290   0.56250   0.01267  Uiso   1.00
H82    H     0.25930   0.19060   0.16590   0.01267  Uiso   1.00
H83    H     0.31610   0.43750   0.95040   0.01267  Uiso   1.00
H84    H     0.14160   0.59020   0.73060   0.01267  Uiso   1.00
H85    H     0.41100   0.26940   0.85960   0.01267  Uiso   1.00
H86    H     0.62370   0.97890   0.46400   0.01267  Uiso   1.00
H87    H     0.96400   0.62370   0.47890   0.01267  Uiso   1.00
H88    H     0.24070   0.40660   0.93130   0.01267  Uiso   1.00
H89    H     0.84370   0.25110   0.17020   0.01267  Uiso   1.00
H90    H     0.59260   0.91910   0.74890   0.01267  Uiso   1.00
H91    H     0.45040   0.31610   0.93750   0.01267  Uiso   1.00
H92    H     0.11070   0.35710   0.15140   0.01267  Uiso   1.00
H93    H     0.01490   0.15970   0.03600   0.01267  Uiso   1.00
H94    H     0.19800   0.26950   0.92170   0.01267  Uiso   1.00
H95    H     0.23250   0.07110   0.38200   0.01267  Uiso   1.00
H96    H     0.19060   0.66590   0.75930   0.01267  Uiso   1.00
H97    H     0.13430   0.62140   0.68390   0.01267  Uiso   1.00
H98    H     0.58090   0.67350   0.32980   0.01267  Uiso   1.00
H99    H     0.22370   0.57150   0.80200   0.01267  Uiso   1.00
H100   H     0.65220   0.23050   0.42850   0.01267  Uiso   1.00
H101   H     0.24890   0.59260   0.41910   0.01267  Uiso   1.00
H102   H     0.23060   0.14160   0.09020   0.01267  Uiso   1.00
H103   H     0.26680   0.46290   0.66110   0.01267  Uiso   1.00
H104   H     0.36570   0.04960   0.48710   0.01267  Uiso   1.00
H105   H     0.82980   0.58090   0.17350   0.01267  Uiso   1.00
H106   H     0.92850   0.65220   0.73050   0.01267  Uiso   1.00
H107   H     0.98710   0.36570   0.54960   0.01267  Uiso   1.00
H108   H     0.85050   0.61800   0.68910   0.01267  Uiso   1.00
C1     C     0.54194   0.60084   0.23670   0.01267  Uiso   1.00
C2     C     0.95800   0.25150   0.09290   0.01267  Uiso   1.00
C3     C     0.25900   0.59380   0.57180   0.01267  Uiso   1.00
C4     C     0.14266   0.20846   0.09420   0.01267  Uiso   1.00
C5     C     0.71850   0.85310   0.34140   0.01267  Uiso   1.00
C6     C     0.45110   0.18690   0.79480   0.01267  Uiso   1.00
C7     C     0.04890   0.84370   0.73580   0.01267  Uiso   1.00
C8     C     0.68460   0.88756   0.37256   0.01267  Uiso   1.00
C9     C     0.26740   0.36010   0.07650   0.01267  Uiso   1.00
C10    C     0.01170   0.37710   0.15860   0.01267  Uiso   1.00
C11    C     0.66030   0.14440   0.39710   0.01267  Uiso   1.00
C12    C     0.54350   0.09870   0.37800   0.01267  Uiso   1.00
C13    C     0.70650   0.84140   0.74850   0.01267  Uiso   1.00
C14    C     0.68720   0.42820   0.02200   0.01267  Uiso   1.00
C15    C     0.62200   0.22070   0.66550   0.01267  Uiso   1.00
C16    C     0.86510   0.90710   0.15860   0.01267  Uiso   1.00
C17    C     0.29760   0.40130   0.01050   0.01267  Uiso   1.00
C18    C     0.67030   0.04390   0.41600   0.01267  Uiso   1.00
C19    C     0.05520   0.95650   0.83450   0.01267  Uiso   1.00
C20    C     0.01500   0.31204   0.12744   0.01267  Uiso   1.00
C21    C     0.29154   0.93420   0.38574   0.01267  Uiso   1.00
C22    C     0.90580   0.61426   0.54846   0.01267  Uiso   1.00
C23    C     0.21290   0.60370   0.70240   0.01267  Uiso   1.00
C24    C     0.35560   0.51590   0.75270   0.01267  Uiso   1.00
C25    C     0.24730   0.26320   0.10290   0.01267  Uiso   1.00
C26    C     0.48830   0.64690   0.36540   0.01267  Uiso   1.00
C27    C     0.42820   0.55600   0.24400   0.01267  Uiso   1.00
C28    C     0.84140   0.71850   0.35310   0.01267  Uiso   1.00
C29    C     0.62850   0.73330   0.10140   0.01267  Uiso   1.00
C30    C     0.14440   0.89710   0.16030   0.01267  Uiso   1.00
C31    C     0.59380   0.07180   0.75900   0.01267  Uiso   1.00
C32    C     0.52200   0.68720   0.92820   0.01267  Uiso   1.00
C33    C     0.89710   0.66030   0.64440   0.01267  Uiso   1.00
C34    C     0.78150   0.12290   0.13460   0.01267  Uiso   1.00
C35    C     0.01500   0.19854   0.05934   0.01267  Uiso   1.00
C36    C     0.30910   0.59270   0.73260   0.01267  Uiso   1.00
C37    C     0.87800   0.54350   0.59870   0.01267  Uiso   1.00
C38    C     0.33450   0.05520   0.45650   0.01267  Uiso   1.00
C39    C     0.18420   0.75600   0.31200   0.01267  Uiso   1.00
C40    C     0.51050   0.29760   0.90130   0.01267  Uiso   1.00
C41    C     0.23580   0.04890   0.34370   0.01267  Uiso   1.00
C42    C     0.65860   0.01170   0.87710   0.01267  Uiso   1.00
C43    C     0.28710   0.98950   0.39080   0.01267  Uiso   1.00
C44    C     0.66520   0.97800   0.40620   0.01267  Uiso   1.00
C45    C     0.07180   0.31580   0.12780   0.01267  Uiso   1.00
C46    C     0.18796   0.70296   0.31540   0.01267  Uiso   1.00
C47    C     0.31580   0.62780   0.57180   0.01267  Uiso   1.00
C48    C     0.42820   0.52200   0.18720   0.01267  Uiso   1.00
C49    C     0.25430   0.58400   0.62790   0.01267  Uiso   1.00
C50    C     0.88574   0.29154   0.43420   0.01267  Uiso   1.00
C51    C     0.75600   0.81200   0.68420   0.01267  Uiso   1.00
C52    C     0.98950   0.89080   0.78710   0.01267  Uiso   1.00
C53    C     0.48500   0.61244   0.29704   0.01267  Uiso   1.00
C54    C     0.86080   0.30146   0.31646   0.01267  Uiso   1.00
C55    C     0.60370   0.20240   0.71290   0.01267  Uiso   1.00
C56    C     0.79704   0.48500   0.11244   0.01267  Uiso   1.00
C57    C     0.31310   0.26420   0.10790   0.01267  Uiso   1.00
C58    C     0.89916   0.94110   0.13586   0.01267  Uiso   1.00
C59    C     0.95566   0.94066   0.13920   0.01267  Uiso   1.00
C60    C     0.81280   0.83480   0.74100   0.01267  Uiso   1.00
C61    C     0.94066   0.63920   0.45566   0.01267  Uiso   1.00
C62    C     0.87150   0.97290   0.10480   0.01267  Uiso   1.00
C63    C     0.60480   0.87150   0.47290   0.01267  Uiso   1.00
C64    C     0.63586   0.89916   0.44110   0.01267  Uiso   1.00
C65    C     0.77860   0.19540   0.36820   0.01267  Uiso   1.00
C66    C     0.95650   0.33450   0.55520   0.01267  Uiso   1.00
C67    C     0.58400   0.12790   0.75430   0.01267  Uiso   1.00
C68    C     0.89860   0.13190   0.02710   0.01267  Uiso   1.00
C69    C     0.59290   0.95800   0.75150   0.01267  Uiso   1.00
C70    C     0.61426   0.04846   0.40580   0.01267  Uiso   1.00
C71    C     0.13990   0.90730   0.21640   0.01267  Uiso   1.00
C72    C     0.87256   0.68460   0.38756   0.01267  Uiso   1.00
C73    C     0.63460   0.78150   0.62290   0.01267  Uiso   1.00
C74    C     0.98410   0.83970   0.73680   0.01267  Uiso   1.00
C75    C     0.89630   0.60920   0.59870   0.01267  Uiso   1.00
C76    C     0.94400   0.87220   0.18800   0.01267  Uiso   1.00
C77    C     0.41040   0.63180   0.82720   0.01267  Uiso   1.00
C78    C     0.40130   0.44480   0.77930   0.01267  Uiso   1.00
C79    C     0.19540   0.86820   0.27860   0.01267  Uiso   1.00
C80    C     0.27930   0.40130   0.94480   0.01267  Uiso   1.00
C81    C     0.32720   0.41040   0.13180   0.01267  Uiso   1.00
C82    C     0.23260   0.30910   0.09270   0.01267  Uiso   1.00
C83    C     0.40130   0.51050   0.79760   0.01267  Uiso   1.00
C84    C     0.24570   0.87360   0.32970   0.01267  Uiso   1.00
C85    C     0.87220   0.68800   0.44400   0.01267  Uiso   1.00
C86    C     0.09870   0.87800   0.04350   0.01267  Uiso   1.00
C87    C     0.29480   0.45110   0.68690   0.01267  Uiso   1.00
C88    C     0.52710   0.89860   0.63190   0.01267  Uiso   1.00
C89    C     0.86414   0.30524   0.26330   0.01267  Uiso   1.00
C90    C     0.95806   0.19476   0.05890   0.01267  Uiso   1.00
C91    C     0.97290   0.60480   0.37150   0.01267  Uiso   1.00
C92    C     0.62640   0.37210   0.95610   0.01267  Uiso   1.00
C93    C     0.20846   0.59420   0.64266   0.01267  Uiso   1.00
C94    C     0.25150   0.59290   0.45800   0.01267  Uiso   1.00
C95    C     0.60140   0.62850   0.23330   0.01267  Uiso   1.00
C96    C     0.55934   0.01500   0.69854   0.01267  Uiso   1.00
C97    C     0.37710   0.65860   0.51170   0.01267  Uiso   1.00
C98    C     0.72140   0.08960   0.41680   0.01267  Uiso   1.00
C99    C     0.83480   0.24100   0.31280   0.01267  Uiso   1.00
C100   C     0.19090   0.92350   0.28360   0.01267  Uiso   1.00
C101   C     0.54434   0.68354   0.98500   0.01267  Uiso   1.00
C102   C     0.24100   0.81280   0.33480   0.01267  Uiso   1.00
C103   C     0.63490   0.79350   0.04200   0.01267  Uiso   1.00
C104   C     0.62744   0.01500   0.81204   0.01267  Uiso   1.00
C105   C     0.04846   0.90580   0.11426   0.01267  Uiso   1.00
C106   C     0.79350   0.54200   0.13490   0.01267  Uiso   1.00
C107   C     0.94110   0.63586   0.39916   0.01267  Uiso   1.00
C108   C     0.44480   0.27930   0.90130   0.01267  Uiso   1.00
C109   C     0.73670   0.54194   0.10084   0.01267  Uiso   1.00
C110   C     0.73330   0.60140   0.12850   0.01267  Uiso   1.00
C111   C     0.55600   0.74400   0.92820   0.01267  Uiso   1.00
C112   C     0.20520   0.89210   0.15630   0.01267  Uiso   1.00
C113   C     0.68354   0.48500   0.04434   0.01267  Uiso   1.00
C114   C     0.59420   0.14266   0.70846   0.01267  Uiso   1.00
C115   C     0.24850   0.70650   0.34140   0.01267  Uiso   1.00
C116   C     0.51590   0.25270   0.85560   0.01267  Uiso   1.00
C117   C     0.36810   0.76670   0.39520   0.01267  Uiso   1.00
C118   C     0.59270   0.23260   0.80910   0.01267  Uiso   1.00
C119   C     0.76330   0.86414   0.80524   0.01267  Uiso   1.00
C120   C     0.60084   0.73670   0.04194   0.01267  Uiso   1.00
C121   C     0.12790   0.25430   0.08400   0.01267  Uiso   1.00
C122   C     0.90620   0.66520   0.47800   0.01267  Uiso   1.00
C123   C     0.89210   0.65630   0.70520   0.01267  Uiso   1.00
C124   C     0.17280   0.30460   0.08320   0.01267  Uiso   1.00
C125   C     0.84140   0.24850   0.20650   0.01267  Uiso   1.00
C126   C     0.12290   0.63460   0.28150   0.01267  Uiso   1.00
C127   C     0.55890   0.95806   0.69476   0.01267  Uiso   1.00
C128   C     0.36010   0.57650   0.76740   0.01267  Uiso   1.00
C129   C     0.87360   0.82970   0.74570   0.01267  Uiso   1.00
C130   C     0.97800   0.90620   0.16520   0.01267  Uiso   1.00
C131   C     0.61244   0.79704   0.98500   0.01267  Uiso   1.00
C132   C     0.60790   0.31310   0.76420   0.01267  Uiso   1.00
C133   C     0.19476   0.55890   0.45806   0.01267  Uiso   1.00
C134   C     0.19854   0.55934   0.51500   0.01267  Uiso   1.00
C135   C     0.81646   0.86080   0.80146   0.01267  Uiso   1.00
C136   C     0.91600   0.67030   0.54390   0.01267  Uiso   1.00
C137   C     0.92350   0.78360   0.69090   0.01267  Uiso   1.00
C138   C     0.68800   0.94400   0.37220   0.01267  Uiso   1.00
C139   C     0.26320   0.60290   0.74730   0.01267  Uiso   1.00
C140   C     0.70296   0.81540   0.68796   0.01267  Uiso   1.00
C141   C     0.07180   0.25900   0.09380   0.01267  Uiso   1.00
C142   C     0.37210   0.45610   0.12640   0.01267  Uiso   1.00
C143   C     0.86540   0.48830   0.14690   0.01267  Uiso   1.00
C144   C     0.20240   0.21290   0.10370   0.01267  Uiso   1.00
C145   C     0.57650   0.26740   0.86010   0.01267  Uiso   1.00
C146   C     0.81200   0.18420   0.25600   0.01267  Uiso   1.00
C147   C     0.09870   0.89630   0.10920   0.01267  Uiso   1.00
C148   C     0.78360   0.19090   0.42350   0.01267  Uiso   1.00
C149   C     0.23680   0.98410   0.33970   0.01267  Uiso   1.00
C150   C     0.26420   0.60790   0.81310   0.01267  Uiso   1.00
C151   C     0.71640   0.13990   0.40730   0.01267  Uiso   1.00
C152   C     0.63180   0.32720   0.91040   0.01267  Uiso   1.00
C153   C     0.45154   0.56580   0.85734   0.01267  Uiso   1.00
C154   C     0.25270   0.35560   0.01590   0.01267  Uiso   1.00
C155   C     0.60920   0.09870   0.39630   0.01267  Uiso   1.00
C156   C     0.86820   0.77860   0.69540   0.01267  Uiso   1.00
C157   C     0.30460   0.58320   0.67280   0.01267  Uiso   1.00
C158   C     0.62780   0.07180   0.81580   0.01267  Uiso   1.00
C159   C     0.93420   0.88574   0.79154   0.01267  Uiso   1.00
C160   C     0.08960   0.91680   0.22140   0.01267  Uiso   1.00
C161   C     0.35734   0.45154   0.06580   0.01267  Uiso   1.00
C162   C     0.88756   0.87256   0.18460   0.01267  Uiso   1.00
C163   C     0.31204   0.62744   0.51500   0.01267  Uiso   1.00
C164   C     0.74400   0.42820   0.05600   0.01267  Uiso   1.00
C165   C     0.30146   0.81646   0.36080   0.01267  Uiso   1.00
C166   C     0.81540   0.18796   0.20296   0.01267  Uiso   1.00
C167   C     0.58320   0.17280   0.80460   0.01267  Uiso   1.00
C168   C     0.45610   0.62640   0.87210   0.01267  Uiso   1.00
C169   C     0.84370   0.23580   0.54890   0.01267  Uiso   1.00
C170   C     0.48500   0.54434   0.18354   0.01267  Uiso   1.00
C171   C     0.76670   0.89520   0.86810   0.01267  Uiso   1.00
C172   C     0.22070   0.16550   0.12200   0.01267  Uiso   1.00
C173   C     0.85310   0.84140   0.21850   0.01267  Uiso   1.00
C174   C     0.56580   0.35734   0.95154   0.01267  Uiso   1.00
C175   C     0.65860   0.86510   0.40710   0.01267  Uiso   1.00
C176   C     0.90730   0.71640   0.63990   0.01267  Uiso   1.00
C177   C     0.63920   0.95566   0.44066   0.01267  Uiso   1.00
C178   C     0.30524   0.76330   0.36414   0.01267  Uiso   1.00
C179   C     0.91680   0.72140   0.58960   0.01267  Uiso   1.00
C180   C     0.83970   0.23680   0.48410   0.01267  Uiso   1.00
C181   C     0.89520   0.36810   0.26670   0.01267  Uiso   1.00
C182   C     0.90710   0.65860   0.36510   0.01267  Uiso   1.00
C183   C     0.89080   0.28710   0.48950   0.01267  Uiso   1.00
C184   C     0.13190   0.52710   0.39860   0.01267  Uiso   1.00
C185   C     0.65630   0.20520   0.39210   0.01267  Uiso   1.00
C186   C     0.60290   0.24730   0.76320   0.01267  Uiso   1.00
C187   C     0.64690   0.86540   0.98830   0.01267  Uiso   1.00
C188   C     0.18690   0.29480   0.95110   0.01267  Uiso   1.00
C189   C     0.16550   0.62200   0.72070   0.01267  Uiso   1.00
C190   C     0.82970   0.24570   0.37360   0.01267  Uiso   1.00
C191   C     0.54200   0.63490   0.29350   0.01267  Uiso   1.00
C192   C     0.04390   0.91600   0.17030   0.01267  Uiso   1.00
O1     O     0.69962   0.06788   0.92636   0.01267  Uiso   1.00
O2     O     0.57370   0.15850   0.84460   0.01267  Uiso   1.00
O3     O     0.63740   0.95747   0.87207   0.01267  Uiso   1.00
O4     O     0.67993   0.91460   0.04253   0.01267  Uiso   1.00
O5     O     0.06788   0.42636   0.19962   0.01267  Uiso   1.00
O6     O     0.42636   0.69962   0.56788   0.01267  Uiso   1.00
O7     O     0.83085   0.98580   0.11665   0.01267  Uiso   1.00
O8     O     0.86260   0.73467   0.32007   0.01267  Uiso   1.00
O9     O     0.13085   0.51420   0.34505   0.01267  Uiso   1.00
O10    O     0.08480   0.92630   0.27090   0.01267  Uiso   1.00
O11    O     0.68610   0.34150   0.91520   0.01267  Uiso   1.00
O12    O     0.82190   0.93570   0.91880   0.01267  Uiso   1.00
O13    O     0.37207   0.63740   0.45747   0.01267  Uiso   1.00
O14    O     0.00000   0.50000   0.26262   0.01267  Uiso   1.00
O15    O     0.80038   0.72674   0.36826   0.01267  Uiso   1.00
O16    O     0.72910   0.15540   0.31390   0.01267  Uiso   1.00
O17    O     0.86826   0.80038   0.22674   0.01267  Uiso   1.00
O18    O     0.73467   0.82007   0.36260   0.01267  Uiso   1.00
O19    O     0.88335   0.36915   0.21420   0.01267  Uiso   1.00
O20    O     0.85848   0.43212   0.13174   0.01267  Uiso   1.00
O21    O     0.65495   0.66915   0.28580   0.01267  Uiso   1.00
O22    O     0.50000   0.76262   0.50000   0.01267  Uiso   1.00
O23    O     0.41520   0.68610   0.84150   0.01267  Uiso   1.00
O24    O     0.92630   0.77090   0.58480   0.01267  Uiso   1.00
O25    O     0.43212   0.63174   0.35848   0.01267  Uiso   1.00
O26    O     0.76533   0.12793   0.08540   0.01267  Uiso   1.00
O27    O     0.15850   0.34460   0.07370   0.01267  Uiso   1.00
O28    O     0.34150   0.41520   0.18610   0.01267  Uiso   1.00
O29    O     0.12793   0.58540   0.26533   0.01267  Uiso   1.00
O30    O     0.58540   0.76533   0.62793   0.01267  Uiso   1.00
O31    O     0.54253   0.67993   0.41460   0.01267  Uiso   1.00
O32    O     0.41880   0.82190   0.43570   0.01267  Uiso   1.00
O33    O     0.67810   0.59690   0.11380   0.01267  Uiso   1.00
O34    O     0.61380   0.67810   0.09690   0.01267  Uiso   1.00
O35    O     0.91460   0.54253   0.17993   0.01267  Uiso   1.00
O36    O     0.51690   0.90310   0.58120   0.01267  Uiso   1.00
O37    O     0.77090   0.08480   0.42630   0.01267  Uiso   1.00
O38    O     0.98580   0.61665   0.33085   0.01267  Uiso   1.00
O39    O     0.15540   0.81390   0.22910   0.01267  Uiso   1.00
O40    O     0.88620   0.98310   0.06430   0.01267  Uiso   1.00
O41    O     0.36915   0.71420   0.38335   0.01267  Uiso   1.00
O42    O     0.66915   0.78580   0.15495   0.01267  Uiso   1.00
O43    O     0.64152   0.77326   0.57364   0.01267  Uiso   1.00
O44    O     0.71420   0.88335   0.86915   0.01267  Uiso   1.00
O45    O     0.76262   0.00000  -0.00000   0.01267  Uiso   1.00
O46    O     0.95747   0.37207   0.13740   0.01267  Uiso   1.00
O47    O     0.56430   0.88620   0.48310   0.01267  Uiso   1.00
O48    O     0.98310   0.56430   0.38620   0.01267  Uiso   1.00
O49    O     0.90310   0.08120   0.01690   0.01267  Uiso   1.00
O50    O     0.93570   0.41880   0.32190   0.01267  Uiso   1.00
O51    O     0.07364   0.64152   0.27326   0.01267  Uiso   1.00
O52    O     0.77326   0.07364   0.14152   0.01267  Uiso   1.00
O53    O     0.63174   0.85848   0.93212   0.01267  Uiso   1.00
O54    O     0.51420   0.84505   0.63085   0.01267  Uiso   1.00
O55    O     0.34460   0.57370   0.65850   0.01267  Uiso   1.00
O56    O     0.78580   0.65495   0.16915   0.01267  Uiso   1.00
O57    O     0.08120   0.51690   0.40310   0.01267  Uiso   1.00
O58    O     0.72674   0.86826   0.30038   0.01267  Uiso   1.00
O59    O     0.73738   0.73738   0.23738   0.01267  Uiso   1.00
O60    O     0.84505   0.13085   0.01420   0.01267  Uiso   1.00
O61    O     0.59690   0.61380   0.17810   0.01267  Uiso   1.00
O62    O     0.82007   0.86260   0.23467   0.01267  Uiso   1.00
O63    O     0.81390   0.72910   0.65540   0.01267  Uiso   1.00
O64    O     0.61665   0.83085   0.48580   0.01267  Uiso   1.00
