data_ja506357n_si_002_freeONLY
_audit_creation_date              2015-08-19
_audit_creation_method            'Materials Studio'
_symmetry_space_group_name_H-M    'P1'
_symmetry_Int_Tables_number       1
_symmetry_cell_setting            triclinic
loop_
_symmetry_equiv_pos_as_xyz
  x,y,z
_cell_length_a                    9.8601
_cell_length_b                    12.7307
_cell_length_c                    17.6478
_cell_angle_alpha                 90.0000
_cell_angle_beta                  90.0000
_cell_angle_gamma                 90.0000
loop_
_atom_site_label
_atom_site_type_symbol
_atom_site_fract_x
_atom_site_fract_y
_atom_site_fract_z
_atom_site_U_iso_or_equiv
_atom_site_adp_type
_atom_site_occupancy
Cu1    Cu    0.00000   0.25000   0.16008   0.01267  Uiso   1.00
Cu2    Cu    0.50000   0.75000   0.66008   0.01267  Uiso   1.00
H1     H     0.57910   0.19930   0.01730   0.01267  Uiso   1.00
H2     H     0.36980   0.67800   0.81740   0.01267  Uiso   1.00
H3     H     0.63020   0.82200   0.81740   0.01267  Uiso   1.00
H4     H     0.63890   0.52670   0.69350   0.01267  Uiso   1.00
H5     H     0.42090   0.30070   0.01730   0.01267  Uiso   1.00
H6     H     0.03640   0.61960   0.41650   0.01267  Uiso   1.00
H7     H     0.86110   0.02670   0.19350   0.01267  Uiso   1.00
H8     H     0.60720   0.50250   0.48700   0.01267  Uiso   1.00
H9     H     0.78070   0.92210   0.88700   0.01267  Uiso   1.00
H10    H     0.13020   0.17800   0.31740   0.01267  Uiso   1.00
H11    H     0.86980   0.32200   0.31740   0.01267  Uiso   1.00
H12    H     0.53640   0.38040   0.91650   0.01267  Uiso   1.00
H13    H     0.39280   0.99750   0.48700   0.01267  Uiso   1.00
H14    H     0.89280   0.00250   0.98700   0.01267  Uiso   1.00
H15    H     0.21930   0.57790   0.88700   0.01267  Uiso   1.00
H16    H     0.13890   0.47330   0.19350   0.01267  Uiso   1.00
H17    H     0.10720   0.49750   0.98700   0.01267  Uiso   1.00
H18    H     0.46360   0.11960   0.91650   0.01267  Uiso   1.00
H19    H     0.07910   0.80070   0.51730   0.01267  Uiso   1.00
H20    H     0.36110   0.97330   0.69350   0.01267  Uiso   1.00
H21    H     0.71930   0.42210   0.38700   0.01267  Uiso   1.00
H22    H     0.92090   0.69930   0.51730   0.01267  Uiso   1.00
H23    H     0.28070   0.07790   0.38700   0.01267  Uiso   1.00
H24    H     0.96360   0.88040   0.41650   0.01267  Uiso   1.00
C1     C     0.73980   0.97900   0.91330   0.01267  Uiso   1.00
C2     C     0.88600   0.51510   0.39270   0.01267  Uiso   1.00
C3     C     0.19460   0.47320   0.97270   0.01267  Uiso   1.00
C4     C     0.44850   0.40380   0.93080   0.01267  Uiso   1.00
C5     C     0.06940   0.12630   0.29860   0.01267  Uiso   1.00
C6     C     0.07630   0.45740   0.23270   0.01267  Uiso   1.00
C7     C     0.92370   0.04260   0.23270   0.01267  Uiso   1.00
C8     C     0.32140   0.83530   0.57500   0.01267  Uiso   1.00
C9     C     0.94850   0.59620   0.43080   0.01267  Uiso   1.00
C10    C     0.11400   0.98490   0.39270   0.01267  Uiso   1.00
C11    C     0.37950   0.35700   0.99070   0.01267  Uiso   1.00
C12    C     0.74760   0.10930   0.01230   0.01267  Uiso   1.00
C13    C     0.75240   0.60930   0.51230   0.01267  Uiso   1.00
C14    C     0.80540   0.02680   0.97270   0.01267  Uiso   1.00
C15    C     0.67860   0.66470   0.57500   0.01267  Uiso   1.00
C16    C     0.05150   0.90380   0.43080   0.01267  Uiso   1.00
C17    C     0.55150   0.09620   0.93080   0.01267  Uiso   1.00
C18    C     0.61400   0.01510   0.89270   0.01267  Uiso   1.00
C19    C     0.24760   0.89070   0.51230   0.01267  Uiso   1.00
C20    C     0.56940   0.87370   0.79860   0.01267  Uiso   1.00
C21    C     0.25240   0.39070   0.01230   0.01267  Uiso   1.00
C22    C     0.87950   0.64300   0.49070   0.01267  Uiso   1.00
C23    C     0.42370   0.95740   0.73270   0.01267  Uiso   1.00
C24    C     0.23980   0.02100   0.41330   0.01267  Uiso   1.00
C25    C     0.69460   0.52680   0.47270   0.01267  Uiso   1.00
C26    C     0.57630   0.54260   0.73270   0.01267  Uiso   1.00
C27    C     0.38600   0.48490   0.89270   0.01267  Uiso   1.00
C28    C     0.26020   0.52100   0.91330   0.01267  Uiso   1.00
C29    C     0.17860   0.33530   0.07500   0.01267  Uiso   1.00
C30    C     0.76020   0.47900   0.41330   0.01267  Uiso   1.00
C31    C     0.93060   0.37370   0.29860   0.01267  Uiso   1.00
C32    C     0.82140   0.16470   0.07500   0.01267  Uiso   1.00
C33    C     0.30540   0.97320   0.47270   0.01267  Uiso   1.00
C34    C     0.62050   0.14300   0.99070   0.01267  Uiso   1.00
C35    C     0.43060   0.62630   0.79860   0.01267  Uiso   1.00
C36    C     0.12050   0.85700   0.49070   0.01267  Uiso   1.00
N1     N     0.95270   0.46810   0.32940   0.01267  Uiso   1.00
N2     N     0.04730   0.03190   0.32940   0.01267  Uiso   1.00
N3     N     0.00780   0.36400   0.23740   0.01267  Uiso   1.00
N4     N     0.50780   0.63600   0.73740   0.01267  Uiso   1.00
N5     N     0.95290   0.97740   0.28770   0.01267  Uiso   1.00
N6     N     0.54730   0.96810   0.82940   0.01267  Uiso   1.00
N7     N     0.04710   0.52260   0.28770   0.01267  Uiso   1.00
N8     N     0.45290   0.02260   0.78770   0.01267  Uiso   1.00
N9     N     0.54710   0.47740   0.78770   0.01267  Uiso   1.00
N10    N     0.49220   0.86400   0.73740   0.01267  Uiso   1.00
N11    N     0.99220   0.13600   0.23740   0.01267  Uiso   1.00
N12    N     0.45270   0.53190   0.82940   0.01267  Uiso   1.00
O1     O     0.94870   0.14810   0.08041   0.01267  Uiso   1.00
O2     O     0.44870   0.85190   0.58041   0.01267  Uiso   1.00
O3     O     0.25870   0.77590   0.61790   0.01267  Uiso   1.00
O4     O     0.74130   0.72410   0.61790   0.01267  Uiso   1.00
O5     O     0.05130   0.35190   0.08041   0.01267  Uiso   1.00
O6     O     0.75870   0.22410   0.11790   0.01267  Uiso   1.00
O7     O     0.55130   0.64810   0.58041   0.01267  Uiso   1.00
O8     O     0.24130   0.27590   0.11790   0.01267  Uiso   1.00
Cu3    Cu    0.50000   0.25000   0.33992   0.01267  Uiso   1.00
Cu4    Cu    0.00000   0.75000   0.83992   0.01267  Uiso   1.00
H25    H     0.63890   0.02670   0.30650   0.01267  Uiso   1.00
H26    H     0.57910   0.69930   0.98270   0.01267  Uiso   1.00
H27    H     0.13890   0.97330   0.80650   0.01267  Uiso   1.00
H28    H     0.78070   0.42210   0.11300   0.01267  Uiso   1.00
H29    H     0.03640   0.11960   0.58350   0.01267  Uiso   1.00
H30    H     0.46360   0.61960   0.08350   0.01267  Uiso   1.00
H31    H     0.86110   0.52670   0.80650   0.01267  Uiso   1.00
H32    H     0.63020   0.32200   0.18260   0.01267  Uiso   1.00
H33    H     0.53640   0.88040   0.08350   0.01267  Uiso   1.00
H34    H     0.39280   0.49750   0.51300   0.01267  Uiso   1.00
H35    H     0.13020   0.67800   0.68260   0.01267  Uiso   1.00
H36    H     0.71930   0.92210   0.61300   0.01267  Uiso   1.00
H37    H     0.86980   0.82200   0.68260   0.01267  Uiso   1.00
H38    H     0.36110   0.47330   0.30650   0.01267  Uiso   1.00
H39    H     0.36980   0.17800   0.18260   0.01267  Uiso   1.00
H40    H     0.42090   0.80070   0.98270   0.01267  Uiso   1.00
H41    H     0.60720   0.00250   0.51300   0.01267  Uiso   1.00
H42    H     0.96360   0.38040   0.58350   0.01267  Uiso   1.00
H43    H     0.89280   0.50250   0.01300   0.01267  Uiso   1.00
H44    H     0.21930   0.07790   0.11300   0.01267  Uiso   1.00
H45    H     0.10720   0.99750   0.01300   0.01267  Uiso   1.00
H46    H     0.07910   0.30070   0.48270   0.01267  Uiso   1.00
H47    H     0.92090   0.19930   0.48270   0.01267  Uiso   1.00
H48    H     0.28070   0.57790   0.61300   0.01267  Uiso   1.00
C37    C     0.88600   0.01510   0.60730   0.01267  Uiso   1.00
C38    C     0.19460   0.97320   0.02730   0.01267  Uiso   1.00
C39    C     0.12050   0.35700   0.50930   0.01267  Uiso   1.00
C40    C     0.26020   0.02100   0.08670   0.01267  Uiso   1.00
C41    C     0.05150   0.40380   0.56920   0.01267  Uiso   1.00
C42    C     0.93060   0.87370   0.70140   0.01267  Uiso   1.00
C43    C     0.76020   0.97900   0.58670   0.01267  Uiso   1.00
C44    C     0.07630   0.95740   0.76730   0.01267  Uiso   1.00
C45    C     0.23980   0.52100   0.58670   0.01267  Uiso   1.00
C46    C     0.17860   0.83530   0.92500   0.01267  Uiso   1.00
C47    C     0.24760   0.39070   0.48770   0.01267  Uiso   1.00
C48    C     0.43060   0.12630   0.20140   0.01267  Uiso   1.00
C49    C     0.57630   0.04260   0.26730   0.01267  Uiso   1.00
C50    C     0.42370   0.45740   0.26730   0.01267  Uiso   1.00
C51    C     0.92370   0.54260   0.76730   0.01267  Uiso   1.00
C52    C     0.62050   0.64300   0.00930   0.01267  Uiso   1.00
C53    C     0.38600   0.98490   0.10730   0.01267  Uiso   1.00
C54    C     0.87950   0.14300   0.50930   0.01267  Uiso   1.00
C55    C     0.11400   0.48490   0.60730   0.01267  Uiso   1.00
C56    C     0.69460   0.02680   0.52730   0.01267  Uiso   1.00
C57    C     0.56940   0.37370   0.20140   0.01267  Uiso   1.00
C58    C     0.44850   0.90380   0.06920   0.01267  Uiso   1.00
C59    C     0.61400   0.51510   0.10730   0.01267  Uiso   1.00
C60    C     0.82140   0.66470   0.92500   0.01267  Uiso   1.00
C61    C     0.67860   0.16470   0.42500   0.01267  Uiso   1.00
C62    C     0.32140   0.33530   0.42500   0.01267  Uiso   1.00
C63    C     0.55150   0.59620   0.06920   0.01267  Uiso   1.00
C64    C     0.30540   0.47320   0.52730   0.01267  Uiso   1.00
C65    C     0.94850   0.09620   0.56920   0.01267  Uiso   1.00
C66    C     0.06940   0.62630   0.70140   0.01267  Uiso   1.00
C67    C     0.75240   0.10930   0.48770   0.01267  Uiso   1.00
C68    C     0.25240   0.89070   0.98770   0.01267  Uiso   1.00
C69    C     0.37950   0.85700   0.00930   0.01267  Uiso   1.00
C70    C     0.74760   0.60930   0.98770   0.01267  Uiso   1.00
C71    C     0.73980   0.47900   0.08670   0.01267  Uiso   1.00
C72    C     0.80540   0.52680   0.02730   0.01267  Uiso   1.00
N13    N     0.49220   0.36400   0.26260   0.01267  Uiso   1.00
N14    N     0.45290   0.52260   0.21230   0.01267  Uiso   1.00
N15    N     0.04710   0.02260   0.71230   0.01267  Uiso   1.00
N16    N     0.54730   0.46810   0.17060   0.01267  Uiso   1.00
N17    N     0.00780   0.86400   0.76260   0.01267  Uiso   1.00
N18    N     0.04730   0.53190   0.67060   0.01267  Uiso   1.00
N19    N     0.95290   0.47740   0.71230   0.01267  Uiso   1.00
N20    N     0.99220   0.63600   0.76260   0.01267  Uiso   1.00
N21    N     0.95270   0.96810   0.67060   0.01267  Uiso   1.00
N22    N     0.50780   0.13600   0.26260   0.01267  Uiso   1.00
N23    N     0.54710   0.97740   0.21230   0.01267  Uiso   1.00
N24    N     0.45270   0.03190   0.17060   0.01267  Uiso   1.00
O9     O     0.55130   0.14810   0.41959   0.01267  Uiso   1.00
O10    O     0.75870   0.72410   0.88210   0.01267  Uiso   1.00
O11    O     0.24130   0.77590   0.88210   0.01267  Uiso   1.00
O12    O     0.44870   0.35190   0.41959   0.01267  Uiso   1.00
O13    O     0.94870   0.64810   0.91959   0.01267  Uiso   1.00
O14    O     0.05130   0.85190   0.91959   0.01267  Uiso   1.00
O15    O     0.25870   0.27590   0.38210   0.01267  Uiso   1.00
O16    O     0.74130   0.22410   0.38210   0.01267  Uiso   1.00
