data_ja512762r_si_002_auto
_audit_creation_date              2018-09-04
_audit_creation_method            'Materials Studio'
_symmetry_space_group_name_H-M    'P1'
_symmetry_Int_Tables_number       1
_symmetry_cell_setting            triclinic
loop_
_symmetry_equiv_pos_as_xyz
  x,y,z
_cell_length_a                    24.3480
_cell_length_b                    24.3480
_cell_length_c                    14.9180
_cell_angle_alpha                 90.0000
_cell_angle_beta                  90.0000
_cell_angle_gamma                 90.0000
loop_
_atom_site_label
_atom_site_type_symbol
_atom_site_fract_x
_atom_site_fract_y
_atom_site_fract_z
_atom_site_U_iso_or_equiv
_atom_site_adp_type
_atom_site_occupancy
O1     O     0.07714   0.09999   0.16382   0.00000  Uiso   1.00
O2     O     0.13882   0.05018   0.08021   0.00000  Uiso   1.00
X3     C     0.12729   0.08849   0.13887   0.00000  Uiso   1.00
O4     O     0.92318   0.89490   0.15608   0.00000  Uiso   1.00
O5     O     0.86062   0.94759   0.07960   0.00000  Uiso   1.00
X6     C     0.87281   0.90703   0.13372   0.00000  Uiso   1.00
O7     O     0.07668   0.89976   0.16456   0.00000  Uiso   1.00
O8     O     0.13873   0.94913   0.08127   0.00000  Uiso   1.00
X9     C     0.12690   0.91100   0.14015   0.00000  Uiso   1.00
O10    O     0.92248   0.10469   0.15551   0.00000  Uiso   1.00
O11    O     0.86036   0.05169   0.07852   0.00000  Uiso   1.00
X12    C     0.87223   0.09241   0.13247   0.00000  Uiso   1.00
Zr13   Zr    0.99943   0.06919   0.11770   0.00000  Uiso   1.00
O14    O     0.99422   0.06659   0.25933   0.00000  Uiso   1.00
O15    O     0.00161   0.15603   0.11439   0.00000  Uiso   1.00
Zr16   Zr    0.99952   0.93226   0.12061   0.00000  Uiso   1.00
O17    O     0.99424   0.94417   0.26099   0.00000  Uiso   1.00
O18    O     0.00216   0.84650   0.14165   0.00000  Uiso   1.00
O19    O     0.05016   0.00074   0.13626   0.00000  Uiso   1.00
O20    O     0.94997   0.00069   0.13499   0.00000  Uiso   1.00
O21    O     0.92253   0.10341   0.85278   0.00000  Uiso   1.00
O22    O     0.86036   0.05136   0.93150   0.00000  Uiso   1.00
X23    C     0.87227   0.09144   0.87627   0.00000  Uiso   1.00
O24    O     0.07601   0.89824   0.84723   0.00000  Uiso   1.00
O25    O     0.13823   0.94980   0.92646   0.00000  Uiso   1.00
X26    C     0.12630   0.91051   0.86970   0.00000  Uiso   1.00
O27    O     0.92270   0.89509   0.85449   0.00000  Uiso   1.00
O28    O     0.86029   0.94722   0.93229   0.00000  Uiso   1.00
X29    C     0.87242   0.90698   0.87747   0.00000  Uiso   1.00
O30    O     0.07653   0.09948   0.84531   0.00000  Uiso   1.00
O31    O     0.13861   0.04998   0.92856   0.00000  Uiso   1.00
X32    C     0.12680   0.08821   0.86981   0.00000  Uiso   1.00
Zr33   Zr    0.99930   0.06759   0.89045   0.00000  Uiso   1.00
O34    O     0.99408   0.05967   0.74934   0.00000  Uiso   1.00
O35    O     0.00213   0.15413   0.88055   0.00000  Uiso   1.00
Zr36   Zr    0.99931   0.93078   0.89223   0.00000  Uiso   1.00
O37    O     0.99398   0.93831   0.75104   0.00000  Uiso   1.00
O38    O     0.00314   0.84424   0.88186   0.00000  Uiso   1.00
Zr39   Zr    0.08334   0.99958   0.00509   0.00000  Uiso   1.00
Zr40   Zr    0.91556   0.99954   0.00543   0.00000  Uiso   1.00
O41    O     0.94978   0.99908   0.87573   0.00000  Uiso   1.00
O42    O     0.04997   0.99908   0.87407   0.00000  Uiso   1.00
O43    O     0.95055   0.07883   0.00404   0.00000  Uiso   1.00
O44    O     0.04660   0.92108   0.00638   0.00000  Uiso   1.00
O45    O     0.04690   0.07822   0.00397   0.00000  Uiso   1.00
O46    O     0.95100   0.92034   0.00665   0.00000  Uiso   1.00
H47    H     0.92387   0.00098   0.18598   0.00000  Uiso   1.00
H48    H     0.06941   0.88744   0.00629   0.00000  Uiso   1.00
H49    H     0.92370   0.99893   0.82473   0.00000  Uiso   1.00
H50    H     0.06975   0.11184   0.00384   0.00000  Uiso   1.00
H51    H     0.00275   0.82940   0.08161   0.00000  Uiso   1.00
H52    H     0.98341   0.82919   0.93432   0.00000  Uiso   1.00
H53    H     0.03075   0.94886   0.72860   0.00000  Uiso   1.00
H54    H     0.03074   0.04844   0.72727   0.00000  Uiso   1.00
H55    H     0.99152   0.16851   0.94014   0.00000  Uiso   1.00
H56    H     0.00155   0.16859   0.17764   0.00000  Uiso   1.00
H57    H     0.02864   0.04991   0.28178   0.00000  Uiso   1.00
H58    H     0.03201   0.94975   0.28380   0.00000  Uiso   1.00
O59    O     0.39851   0.42183   0.34671   0.00000  Uiso   1.00
O60    O     0.44771   0.35975   0.43050   0.00000  Uiso   1.00
X61    C     0.40973   0.37159   0.37135   0.00000  Uiso   1.00
O62    O     0.60341   0.57474   0.35395   0.00000  Uiso   1.00
O63    O     0.55148   0.63769   0.43096   0.00000  Uiso   1.00
X64    C     0.59163   0.62519   0.37611   0.00000  Uiso   1.00
O65    O     0.59849   0.42149   0.34640   0.00000  Uiso   1.00
O66    O     0.54902   0.35955   0.42974   0.00000  Uiso   1.00
X67    C     0.58718   0.37130   0.37087   0.00000  Uiso   1.00
O68    O     0.39398   0.57627   0.35557   0.00000  Uiso   1.00
O69    O     0.44715   0.63829   0.43247   0.00000  Uiso   1.00
X70    C     0.40636   0.62648   0.37858   0.00000  Uiso   1.00
Zr71   Zr    0.42930   0.49927   0.39338   0.00000  Uiso   1.00
O72    O     0.43170   0.50466   0.25175   0.00000  Uiso   1.00
O73    O     0.34246   0.49723   0.39704   0.00000  Uiso   1.00
Zr74   Zr    0.56617   0.49867   0.39040   0.00000  Uiso   1.00
O75    O     0.55433   0.50380   0.24997   0.00000  Uiso   1.00
O76    O     0.65198   0.49591   0.36990   0.00000  Uiso   1.00
O77    O     0.49755   0.44828   0.37476   0.00000  Uiso   1.00
O78    O     0.49792   0.54849   0.37603   0.00000  Uiso   1.00
O79    O     0.39525   0.57616   0.65809   0.00000  Uiso   1.00
O80    O     0.44742   0.63826   0.57939   0.00000  Uiso   1.00
X81    C     0.40729   0.62640   0.63459   0.00000  Uiso   1.00
O82    O     0.60007   0.42224   0.66374   0.00000  Uiso   1.00
O83    O     0.54840   0.36010   0.58450   0.00000  Uiso   1.00
X84    C     0.58774   0.37198   0.64123   0.00000  Uiso   1.00
O85    O     0.60307   0.57552   0.65768   0.00000  Uiso   1.00
O86    O     0.55153   0.63806   0.57903   0.00000  Uiso   1.00
X87    C     0.59134   0.62583   0.63465   0.00000  Uiso   1.00
O88    O     0.39910   0.42220   0.66625   0.00000  Uiso   1.00
O89    O     0.44823   0.35995   0.58271   0.00000  Uiso   1.00
X90    C     0.41030   0.37188   0.64191   0.00000  Uiso   1.00
Zr91   Zr    0.43092   0.49933   0.62052   0.00000  Uiso   1.00
O92    O     0.43874   0.50473   0.76164   0.00000  Uiso   1.00
O93    O     0.34436   0.49656   0.63021   0.00000  Uiso   1.00
Zr94   Zr    0.56771   0.49899   0.61871   0.00000  Uiso   1.00
O95    O     0.56047   0.50410   0.75996   0.00000  Uiso   1.00
O96    O     0.65431   0.49503   0.62805   0.00000  Uiso   1.00
Zr97   Zr    0.49863   0.41506   0.50589   0.00000  Uiso   1.00
Zr98   Zr    0.49922   0.58296   0.50552   0.00000  Uiso   1.00
O99    O     0.49953   0.54867   0.63519   0.00000  Uiso   1.00
O100   O     0.49929   0.44849   0.63687   0.00000  Uiso   1.00
O101   O     0.41983   0.54816   0.50700   0.00000  Uiso   1.00
O102   O     0.57722   0.45161   0.50461   0.00000  Uiso   1.00
O103   O     0.42011   0.45172   0.50705   0.00000  Uiso   1.00
O104   O     0.57831   0.54729   0.50428   0.00000  Uiso   1.00
H105   H     0.49767   0.57453   0.32497   0.00000  Uiso   1.00
H106   H     0.61081   0.42873   0.50467   0.00000  Uiso   1.00
H107   H     0.49967   0.57468   0.68628   0.00000  Uiso   1.00
H108   H     0.38649   0.42885   0.50724   0.00000  Uiso   1.00
H109   H     0.66894   0.49518   0.43003   0.00000  Uiso   1.00
H110   H     0.66921   0.51612   0.57688   0.00000  Uiso   1.00
H111   H     0.54943   0.46745   0.78227   0.00000  Uiso   1.00
H112   H     0.45022   0.46818   0.78383   0.00000  Uiso   1.00
H113   H     0.33003   0.50759   0.57081   0.00000  Uiso   1.00
H114   H     0.32981   0.49736   0.33384   0.00000  Uiso   1.00
H115   H     0.44867   0.47042   0.22913   0.00000  Uiso   1.00
H116   H     0.54852   0.46604   0.22728   0.00000  Uiso   1.00
C117   C     0.25728   0.19991   0.23668   0.00000  Uiso   1.00
C118   C     0.26743   0.16295   0.16453   0.00000  Uiso   1.00
C119   C     0.22597   0.12560   0.13586   0.00000  Uiso   1.00
X120   C     0.17345   0.12414   0.17604   0.00000  Uiso   1.00
C121   C     0.16422   0.16063   0.24804   0.00000  Uiso   1.00
C122   C     0.20527   0.19738   0.27790   0.00000  Uiso   1.00
C123   C     0.29841   0.24338   0.26692   0.00000  Uiso   1.00
C124   C     0.33349   0.23320   0.34044   0.00000  Uiso   1.00
C125   C     0.37082   0.27342   0.37218   0.00000  Uiso   1.00
X126   C     0.37413   0.32590   0.33242   0.00000  Uiso   1.00
C127   C     0.33951   0.33586   0.25812   0.00000  Uiso   1.00
C128   C     0.30240   0.29566   0.22490   0.00000  Uiso   1.00
H129   H     0.23449   0.09856   0.07992   0.00000  Uiso   1.00
H130   H     0.12461   0.16144   0.28101   0.00000  Uiso   1.00
H131   H     0.39618   0.26378   0.42963   0.00000  Uiso   1.00
H132   H     0.34086   0.37564   0.22561   0.00000  Uiso   1.00
H133   H     0.19585   0.22507   0.33259   0.00000  Uiso   1.00
H134   H     0.33166   0.19386   0.37418   0.00000  Uiso   1.00
C135   C     0.32123   0.16263   0.11481   0.00000  Uiso   1.00
C136   C     0.26760   0.31084   0.14512   0.00000  Uiso   1.00
H137   H     0.31393   0.17308   0.04333   0.00000  Uiso   1.00
H138   H     0.33981   0.12105   0.11867   0.00000  Uiso   1.00
H139   H     0.35127   0.19240   0.14232   0.00000  Uiso   1.00
H140   H     0.29466   0.32125   0.08767   0.00000  Uiso   1.00
H141   H     0.24204   0.34720   0.16179   0.00000  Uiso   1.00
H142   H     0.23976   0.27735   0.12355   0.00000  Uiso   1.00
C143   C     0.74366   0.79562   0.23518   0.00000  Uiso   1.00
C144   C     0.73090   0.83724   0.17131   0.00000  Uiso   1.00
C145   C     0.77239   0.87409   0.14067   0.00000  Uiso   1.00
X146   C     0.82726   0.87055   0.17090   0.00000  Uiso   1.00
C147   C     0.83905   0.82938   0.23474   0.00000  Uiso   1.00
C148   C     0.79825   0.79297   0.26615   0.00000  Uiso   1.00
C149   C     0.70257   0.75247   0.26684   0.00000  Uiso   1.00
C150   C     0.66312   0.76529   0.33317   0.00000  Uiso   1.00
C151   C     0.62643   0.72511   0.36726   0.00000  Uiso   1.00
X152   C     0.62800   0.67023   0.33692   0.00000  Uiso   1.00
C153   C     0.66699   0.65768   0.26972   0.00000  Uiso   1.00
C154   C     0.70352   0.69761   0.23433   0.00000  Uiso   1.00
H155   H     0.76178   0.90493   0.09129   0.00000  Uiso   1.00
H156   H     0.88042   0.82467   0.26020   0.00000  Uiso   1.00
H157   H     0.59742   0.73692   0.41873   0.00000  Uiso   1.00
H158   H     0.66932   0.61612   0.24402   0.00000  Uiso   1.00
H159   H     0.80970   0.76165   0.31420   0.00000  Uiso   1.00
H160   H     0.66115   0.80664   0.35966   0.00000  Uiso   1.00
C161   C     0.67431   0.84294   0.13180   0.00000  Uiso   1.00
C162   C     0.74247   0.67956   0.16151   0.00000  Uiso   1.00
H163   H     0.67661   0.83802   0.05788   0.00000  Uiso   1.00
H164   H     0.65781   0.88437   0.14735   0.00000  Uiso   1.00
H165   H     0.64502   0.81199   0.15791   0.00000  Uiso   1.00
H166   H     0.71871   0.66178   0.10497   0.00000  Uiso   1.00
H167   H     0.77067   0.64770   0.18829   0.00000  Uiso   1.00
H168   H     0.76755   0.71365   0.13421   0.00000  Uiso   1.00
C169   C     0.74258   0.20119   0.77168   0.00000  Uiso   1.00
C170   C     0.79611   0.20021   0.73338   0.00000  Uiso   1.00
C171   C     0.83693   0.16420   0.76750   0.00000  Uiso   1.00
X172   C     0.82644   0.12732   0.83854   0.00000  Uiso   1.00
C173   C     0.77283   0.12746   0.87455   0.00000  Uiso   1.00
C174   C     0.73194   0.16392   0.84222   0.00000  Uiso   1.00
C175   C     0.69908   0.24265   0.74230   0.00000  Uiso   1.00
C176   C     0.70762   0.29874   0.76062   0.00000  Uiso   1.00
C177   C     0.67095   0.33953   0.73036   0.00000  Uiso   1.00
X178   C     0.62374   0.32642   0.67968   0.00000  Uiso   1.00
C179   C     0.61409   0.27015   0.66273   0.00000  Uiso   1.00
C180   C     0.65071   0.22844   0.69356   0.00000  Uiso   1.00
H181   H     0.87747   0.16506   0.73754   0.00000  Uiso   1.00
H182   H     0.76269   0.10018   0.92937   0.00000  Uiso   1.00
H183   H     0.68058   0.38196   0.74530   0.00000  Uiso   1.00
H184   H     0.57828   0.25844   0.62407   0.00000  Uiso   1.00
H185   H     0.69179   0.16353   0.87346   0.00000  Uiso   1.00
H186   H     0.74379   0.31128   0.79763   0.00000  Uiso   1.00
C187   C     0.81171   0.23630   0.65533   0.00000  Uiso   1.00
C188   C     0.63690   0.16975   0.67129   0.00000  Uiso   1.00
H189   H     0.82852   0.21052   0.60038   0.00000  Uiso   1.00
H190   H     0.84367   0.26602   0.67683   0.00000  Uiso   1.00
H191   H     0.77649   0.25949   0.62741   0.00000  Uiso   1.00
H192   H     0.63051   0.16551   0.59802   0.00000  Uiso   1.00
H193   H     0.59839   0.15795   0.70616   0.00000  Uiso   1.00
H194   H     0.66961   0.14055   0.69109   0.00000  Uiso   1.00
C195   C     0.25573   0.79938   0.76833   0.00000  Uiso   1.00
C196   C     0.26988   0.84766   0.81736   0.00000  Uiso   1.00
C197   C     0.22812   0.88420   0.84826   0.00000  Uiso   1.00
X198   C     0.17186   0.87456   0.83116   0.00000  Uiso   1.00
C199   C     0.15882   0.82744   0.78021   0.00000  Uiso   1.00
C200   C     0.19965   0.79084   0.74984   0.00000  Uiso   1.00
C201   C     0.29725   0.75593   0.73895   0.00000  Uiso   1.00
C202   C     0.33464   0.76667   0.66858   0.00000  Uiso   1.00
C203   C     0.37120   0.72585   0.63635   0.00000  Uiso   1.00
X204   C     0.37136   0.67222   0.67227   0.00000  Uiso   1.00
C205   C     0.33439   0.66165   0.74316   0.00000  Uiso   1.00
C206   C     0.29826   0.70239   0.77719   0.00000  Uiso   1.00
H207   H     0.23979   0.91993   0.88713   0.00000  Uiso   1.00
H208   H     0.11640   0.81782   0.76514   0.00000  Uiso   1.00
H209   H     0.39857   0.73606   0.58168   0.00000  Uiso   1.00
H210   H     0.33353   0.62110   0.77307   0.00000  Uiso   1.00
H211   H     0.18717   0.75473   0.71264   0.00000  Uiso   1.00
H212   H     0.33502   0.80684   0.63742   0.00000  Uiso   1.00
C213   C     0.32853   0.86144   0.83991   0.00000  Uiso   1.00
C214   C     0.26208   0.68670   0.85506   0.00000  Uiso   1.00
H215   H     0.33270   0.86749   0.91326   0.00000  Uiso   1.00
H216   H     0.34032   0.90012   0.80553   0.00000  Uiso   1.00
H217   H     0.35779   0.82886   0.81978   0.00000  Uiso   1.00
H218   H     0.28780   0.66990   0.91010   0.00000  Uiso   1.00
H219   H     0.23244   0.65468   0.83340   0.00000  Uiso   1.00
H220   H     0.23878   0.72186   0.88293   0.00000  Uiso   1.00
C221   C     0.25546   0.20070   0.76997   0.00000  Uiso   1.00
C222   C     0.20074   0.20308   0.73683   0.00000  Uiso   1.00
C223   C     0.16046   0.16549   0.76799   0.00000  Uiso   1.00
X224   C     0.17246   0.12429   0.83180   0.00000  Uiso   1.00
C225   C     0.22726   0.12125   0.86237   0.00000  Uiso   1.00
C226   C     0.26785   0.15870   0.83208   0.00000  Uiso   1.00
C227   C     0.29858   0.24342   0.74460   0.00000  Uiso   1.00
C228   C     0.33911   0.23128   0.67983   0.00000  Uiso   1.00
C229   C     0.37642   0.27175   0.64877   0.00000  Uiso   1.00
X230   C     0.37460   0.32625   0.68095   0.00000  Uiso   1.00
C231   C     0.33502   0.33796   0.74760   0.00000  Uiso   1.00
C232   C     0.29771   0.29770   0.77982   0.00000  Uiso   1.00
H233   H     0.11894   0.16921   0.74255   0.00000  Uiso   1.00
H234   H     0.23867   0.09058   0.91145   0.00000  Uiso   1.00
H235   H     0.40590   0.26057   0.59765   0.00000  Uiso   1.00
H236   H     0.33241   0.37920   0.77453   0.00000  Uiso   1.00
H237   H     0.30902   0.15565   0.85907   0.00000  Uiso   1.00
H238   H     0.34101   0.19044   0.65128   0.00000  Uiso   1.00
C239   C     0.18303   0.24530   0.66885   0.00000  Uiso   1.00
C240   C     0.25739   0.31492   0.85113   0.00000  Uiso   1.00
H241   H     0.15135   0.27244   0.69891   0.00000  Uiso   1.00
H242   H     0.16516   0.22428   0.60958   0.00000  Uiso   1.00
H243   H     0.21733   0.27134   0.64482   0.00000  Uiso   1.00
H244   H     0.22974   0.34712   0.82390   0.00000  Uiso   1.00
H245   H     0.28005   0.33198   0.90942   0.00000  Uiso   1.00
H246   H     0.23179   0.28050   0.87592   0.00000  Uiso   1.00
C247   C     0.74462   0.79564   0.77175   0.00000  Uiso   1.00
C248   C     0.79965   0.79348   0.74020   0.00000  Uiso   1.00
C249   C     0.83967   0.83036   0.77409   0.00000  Uiso   1.00
X250   C     0.82712   0.87067   0.83912   0.00000  Uiso   1.00
C251   C     0.77208   0.87343   0.86849   0.00000  Uiso   1.00
C252   C     0.73171   0.83657   0.83553   0.00000  Uiso   1.00
C253   C     0.70185   0.75335   0.74343   0.00000  Uiso   1.00
C254   C     0.66268   0.76599   0.67666   0.00000  Uiso   1.00
C255   C     0.62596   0.72576   0.64289   0.00000  Uiso   1.00
X256   C     0.62721   0.67109   0.67420   0.00000  Uiso   1.00
C257   C     0.66557   0.65887   0.74248   0.00000  Uiso   1.00
C258   C     0.70217   0.69882   0.77744   0.00000  Uiso   1.00
H259   H     0.88137   0.82698   0.74936   0.00000  Uiso   1.00
H260   H     0.76031   0.90343   0.91846   0.00000  Uiso   1.00
H261   H     0.59739   0.73728   0.59059   0.00000  Uiso   1.00
H262   H     0.66759   0.61748   0.76898   0.00000  Uiso   1.00
H263   H     0.69029   0.83926   0.86158   0.00000  Uiso   1.00
H264   H     0.66138   0.80704   0.64881   0.00000  Uiso   1.00
C265   C     0.81798   0.75225   0.67103   0.00000  Uiso   1.00
C266   C     0.74114   0.68101   0.85037   0.00000  Uiso   1.00
H267   H     0.84923   0.72453   0.70091   0.00000  Uiso   1.00
H268   H     0.83660   0.77412   0.61320   0.00000  Uiso   1.00
H269   H     0.78390   0.72671   0.64488   0.00000  Uiso   1.00
H270   H     0.76914   0.64887   0.82396   0.00000  Uiso   1.00
H271   H     0.71739   0.66370   0.90731   0.00000  Uiso   1.00
H272   H     0.76646   0.71515   0.87693   0.00000  Uiso   1.00
C273   C     0.25536   0.79993   0.24476   0.00000  Uiso   1.00
C274   C     0.26802   0.83969   0.17769   0.00000  Uiso   1.00
C275   C     0.22686   0.87660   0.14610   0.00000  Uiso   1.00
X276   C     0.17245   0.87515   0.17891   0.00000  Uiso   1.00
C277   C     0.16074   0.83572   0.24568   0.00000  Uiso   1.00
C278   C     0.20115   0.79904   0.27758   0.00000  Uiso   1.00
C279   C     0.29639   0.75738   0.27888   0.00000  Uiso   1.00
C280   C     0.28997   0.70208   0.25330   0.00000  Uiso   1.00
C281   C     0.32584   0.66064   0.28409   0.00000  Uiso   1.00
X282   C     0.37004   0.67241   0.34231   0.00000  Uiso   1.00
C283   C     0.37690   0.72782   0.36799   0.00000  Uiso   1.00
C284   C     0.34072   0.77000   0.33785   0.00000  Uiso   1.00
H285   H     0.23727   0.90571   0.09384   0.00000  Uiso   1.00
H286   H     0.11966   0.83248   0.27294   0.00000  Uiso   1.00
H287   H     0.31841   0.61885   0.26249   0.00000  Uiso   1.00
H288   H     0.41013   0.73846   0.41303   0.00000  Uiso   1.00
H289   H     0.18976   0.76921   0.32813   0.00000  Uiso   1.00
H290   H     0.25659   0.69073   0.20901   0.00000  Uiso   1.00
C291   C     0.32411   0.84315   0.13572   0.00000  Uiso   1.00
C292   C     0.35044   0.82735   0.37200   0.00000  Uiso   1.00
H293   H     0.34134   0.88486   0.14637   0.00000  Uiso   1.00
H294   H     0.32061   0.83531   0.06273   0.00000  Uiso   1.00
H295   H     0.35343   0.81287   0.16363   0.00000  Uiso   1.00
H296   H     0.39146   0.84177   0.34961   0.00000  Uiso   1.00
H297   H     0.34928   0.82729   0.44643   0.00000  Uiso   1.00
H298   H     0.31924   0.85706   0.34805   0.00000  Uiso   1.00
C299   C     0.74121   0.20215   0.23241   0.00000  Uiso   1.00
C300   C     0.72860   0.15758   0.17392   0.00000  Uiso   1.00
C301   C     0.77084   0.12154   0.14363   0.00000  Uiso   1.00
X302   C     0.82631   0.12872   0.16878   0.00000  Uiso   1.00
C303   C     0.83808   0.17314   0.22655   0.00000  Uiso   1.00
C304   C     0.79657   0.20891   0.25743   0.00000  Uiso   1.00
C305   C     0.69856   0.24305   0.26655   0.00000  Uiso   1.00
C306   C     0.69863   0.29697   0.23250   0.00000  Uiso   1.00
C307   C     0.66182   0.33728   0.26431   0.00000  Uiso   1.00
X308   C     0.62304   0.32574   0.33218   0.00000  Uiso   1.00
C309   C     0.62240   0.27161   0.36622   0.00000  Uiso   1.00
C310   C     0.65947   0.23056   0.33474   0.00000  Uiso   1.00
H311   H     0.76020   0.08813   0.09894   0.00000  Uiso   1.00
H312   H     0.87991   0.18081   0.24773   0.00000  Uiso   1.00
H313   H     0.66443   0.37816   0.23610   0.00000  Uiso   1.00
H314   H     0.59384   0.26135   0.41937   0.00000  Uiso   1.00
H315   H     0.80790   0.24248   0.30135   0.00000  Uiso   1.00
H316   H     0.72793   0.30823   0.18105   0.00000  Uiso   1.00
C317   C     0.67115   0.14742   0.14054   0.00000  Uiso   1.00
C318   C     0.65696   0.17480   0.37805   0.00000  Uiso   1.00
H319   H     0.65711   0.10634   0.16328   0.00000  Uiso   1.00
H320   H     0.67085   0.14847   0.06611   0.00000  Uiso   1.00
H321   H     0.64134   0.17845   0.16476   0.00000  Uiso   1.00
H322   H     0.61525   0.15718   0.36923   0.00000  Uiso   1.00
H323   H     0.66574   0.17898   0.45066   0.00000  Uiso   1.00
H324   H     0.68708   0.14546   0.34970   0.00000  Uiso   1.00
loop_
_geom_bond_atom_site_label_1
_geom_bond_atom_site_label_2
_geom_bond_distance
_geom_bond_site_symmetry_2
_ccdc_geom_bond_type
O1     X3      1.307   .     A
O1     Zr13    2.148   1_455 A
O2     X3      1.309   .     A
O2     Zr39    2.144   1_545 A
X3     X120    1.524   .     S
O4     Zr16    2.136   .     S
O4     X6      1.305   .     A
O5     Zr40    2.148   .     S
O5     X6      1.310   .     A
X6     X146    1.525   .     S
O7     X9      1.305   .     A
O7     Zr16    2.141   1_455 S
O8     Zr39    2.149   .     S
O8     X9      1.310   .     A
X9     X276    1.525   .     A
O10    Zr13    2.139   .     S
O10    X12     1.306   .     A
O11    X12     1.309   .     A
O11    Zr40    2.147   1_545 S
X12    X302    1.525   .     S
Zr13   O14     2.118   .     S
Zr13   O20     2.073   .     S
Zr13   O43     2.085   .     S
Zr13   O1      2.148   1_655 A
Zr13   Zr39    3.141   1_645 S
Zr13   Zr40    3.139   1_545 A
Zr13   O15     2.116   1_655 S
Zr13   O19     2.093   1_655 A
Zr13   O45     2.065   1_655 S
O14    H57     0.990   1_655 A
O15    H56     0.992   .     S
O15    Zr13    2.116   1_455 S
Zr16   Zr40    3.133   .     S
Zr16   O17     2.118   .     S
Zr16   O46     2.090   .     S
Zr16   O7      2.141   1_655 S
Zr16   Zr39    3.134   1_655 A
Zr16   O18     2.113   1_655 A
Zr16   O20     2.068   1_565 S
Zr16   O19     2.087   1_665 S
Zr16   O44     2.072   1_655 S
O17    H58     0.990   1_655 S
O18    H51     0.988   .     S
O18    Zr16    2.113   1_455 A
O19    Zr13    2.093   1_455 A
O19    Zr16    2.087   1_445 S
O19    Zr39    2.117   1_545 S
O20    H47     0.991   .     S
O20    Zr16    2.068   1_545 S
O20    Zr40    2.107   1_545 S
O21    Zr33    2.138   .     S
O21    X23     1.306   .     A
O22    X23     1.310   .     A
O22    Zr40    2.148   1_546 S
X23    X172    1.525   .     A
O24    X26     1.304   .     A
O24    Zr36    2.137   1_455 A
O25    X26     1.310   .     A
O25    Zr39    2.152   1_556 A
X26    X198    1.526   .     S
O27    Zr36    2.133   .     S
O27    X29     1.304   .     A
O28    X29     1.310   .     A
O28    Zr40    2.150   1_556 A
X29    X250    1.525   .     S
O30    X32     1.307   .     A
O30    Zr33    2.143   1_455 A
O31    X32     1.310   .     A
O31    Zr39    2.149   1_546 A
X32    X224    1.526   .     A
Zr33   O34     2.118   .     S
Zr33   O30     2.143   1_655 A
Zr33   Zr40    3.138   1_546 S
Zr33   Zr39    3.139   1_646 A
Zr33   O35     2.113   1_655 A
Zr33   O41     2.070   1_545 S
Zr33   O42     2.089   1_645 A
Zr33   O45     2.068   1_656 A
Zr33   O43     2.087   1_556 A
O34    H54     0.990   1_655 S
O35    Zr33    2.113   1_455 A
O35    H55     0.990   1_455 S
Zr36   O37     2.118   .     S
Zr36   O41     2.069   .     S
Zr36   O24     2.137   1_655 A
Zr36   Zr39    3.135   1_656 S
Zr36   Zr40    3.133   1_556 S
Zr36   O38     2.115   1_655 S
Zr36   O42     2.088   1_655 S
Zr36   O46     2.088   1_556 S
Zr36   O44     2.069   1_656 A
O37    H53     0.990   1_655 S
O38    Zr36    2.115   1_455 S
O38    H52     0.989   1_455 S
Zr39   O44     2.110   .     S
Zr39   O2      2.144   1_565 A
Zr39   Zr13    3.141   1_465 S
Zr39   Zr16    3.134   1_455 A
Zr39   O19     2.117   1_565 S
Zr39   O25     2.152   1_554 A
Zr39   O31     2.149   1_564 A
Zr39   Zr33    3.139   1_464 A
Zr39   Zr36    3.135   1_454 S
Zr39   O42     2.117   1_554 A
Zr39   O45     2.110   1_565 S
Zr40   O46     2.113   .     S
Zr40   O11     2.147   1_565 S
Zr40   Zr13    3.139   1_565 A
Zr40   O20     2.107   1_565 S
Zr40   O22     2.148   1_564 S
Zr40   O28     2.150   1_554 A
Zr40   Zr33    3.138   1_564 S
Zr40   Zr36    3.133   1_554 S
Zr40   O41     2.107   1_554 S
Zr40   O43     2.110   1_565 S
O41    H49     0.991   .     S
O41    Zr33    2.070   1_565 S
O41    Zr40    2.107   1_556 S
O42    Zr33    2.089   1_465 A
O42    Zr36    2.088   1_455 S
O42    Zr39    2.117   1_556 A
O43    Zr33    2.087   1_554 A
O43    Zr40    2.110   1_545 S
O44    H48     0.990   .     S
O44    Zr16    2.072   1_455 S
O44    Zr36    2.069   1_454 A
O45    H50     0.990   .     S
O45    Zr13    2.065   1_455 S
O45    Zr33    2.068   1_454 A
O45    Zr39    2.110   1_545 S
O46    Zr36    2.088   1_554 S
H52    O38     0.989   1_655 S
H53    O37     0.990   1_455 S
H54    O34     0.990   1_455 S
H55    O35     0.990   1_655 S
H57    O14     0.990   1_455 A
H58    O17     0.990   1_455 S
O59    Zr71    2.145   .     S
O59    X61     1.306   .     A
O60    Zr97    2.148   .     S
O60    X61     1.310   .     A
X61    X126    1.525   .     S
O62    Zr74    2.133   .     S
O62    X64     1.304   .     A
O63    Zr98    2.152   .     S
O63    X64     1.311   .     A
X64    X152    1.526   .     S
O65    Zr74    2.140   .     S
O65    X67     1.305   .     A
O66    Zr97    2.150   .     S
O66    X67     1.310   .     A
X67    X308    1.525   .     S
O68    Zr71    2.138   .     S
O68    X70     1.305   .     A
O69    Zr98    2.147   .     S
O69    X70     1.310   .     A
X70    X282    1.525   .     S
Zr71   Zr97    3.142   .     S
Zr71   Zr98    3.138   .     S
Zr71   O72     2.118   .     S
Zr71   O73     2.116   .     S
Zr71   O77     2.093   .     S
Zr71   O78     2.072   .     S
Zr71   O101    2.084   .     S
Zr71   O103    2.065   .     S
O72    H115    0.990   .     S
O73    H114    0.992   .     S
Zr74   Zr98    3.133   .     S
Zr74   Zr97    3.133   .     S
Zr74   O75     2.118   .     S
Zr74   O76     2.113   .     S
Zr74   O78     2.069   .     S
Zr74   O77     2.086   .     S
Zr74   O102    2.071   .     S
Zr74   O104    2.092   .     S
O75    H116    0.990   .     S
O76    H109    0.988   .     S
O77    Zr97    2.117   .     S
O78    Zr98    2.106   .     S
O78    H105    0.991   .     S
O79    Zr91    2.137   .     S
O79    X81     1.306   .     A
O80    Zr98    2.149   .     S
O80    X81     1.310   .     A
X81    X204    1.525   .     S
O82    Zr94    2.136   .     S
O82    X84     1.304   .     A
O83    Zr97    2.153   .     S
O83    X84     1.310   .     A
X84    X178    1.526   .     S
O85    Zr94    2.133   .     S
O85    X87     1.304   .     A
O86    Zr98    2.150   .     S
O86    X87     1.310   .     A
X87    X256    1.525   .     S
O88    Zr91    2.143   .     S
O88    X90     1.307   .     A
O89    Zr97    2.149   .     S
O89    X90     1.310   .     A
X90    X230    1.526   .     S
Zr91   Zr98    3.139   .     S
Zr91   Zr97    3.139   .     S
Zr91   O92     2.118   .     S
Zr91   O93     2.114   .     S
Zr91   O99     2.069   .     S
Zr91   O100    2.089   .     S
Zr91   O103    2.068   .     S
Zr91   O101    2.087   .     S
O92    H112    0.990   .     S
O93    H113    0.989   .     S
Zr94   Zr97    3.137   .     S
Zr94   Zr98    3.132   .     S
Zr94   O95     2.118   .     S
Zr94   O96     2.115   .     S
Zr94   O100    2.088   .     S
Zr94   O99     2.069   .     S
Zr94   O104    2.089   .     S
Zr94   O102    2.069   .     S
O95    H111    0.990   .     S
O96    H110    0.989   .     S
Zr97   O100    2.117   .     S
Zr97   O102    2.110   .     S
Zr97   O103    2.110   .     S
Zr98   O99     2.107   .     S
Zr98   O101    2.111   .     S
Zr98   O104    2.113   .     S
O99    H107    0.991   .     S
O102   H106    0.990   .     S
O103   H108    0.990   .     S
C117   C118    1.425   .     A
C117   C122    1.409   .     A
C117   C123    1.525   .     S
C118   C119    1.424   .     A
C118   C135    1.505   .     S
C119   X120    1.413   .     A
C119   H129    1.083   .     S
X120   C121    1.412   .     A
C121   C122    1.414   .     A
C121   H130    1.083   .     S
C122   H133    1.083   .     S
C123   C124    1.412   .     A
C123   C128    1.422   .     A
C124   C125    1.417   .     A
C124   H134    1.083   .     S
C125   X126    1.411   .     A
C125   H131    1.082   .     S
X126   C127    1.413   .     A
C127   C128    1.421   .     A
C127   H132    1.084   .     S
C128   C136    1.507   .     S
C135   H137    1.111   .     S
C135   H138    1.110   .     S
C135   H139    1.109   .     S
C136   H140    1.110   .     S
C136   H141    1.110   .     S
C136   H142    1.108   .     S
C143   C144    1.425   .     A
C143   C148    1.409   .     A
C143   C149    1.526   .     S
C144   C145    1.426   .     A
C144   C161    1.505   .     S
C145   X146    1.413   .     A
C145   H155    1.083   .     S
X146   C147    1.412   .     A
C147   C148    1.411   .     A
C147   H156    1.083   .     S
C148   H159    1.083   .     S
C149   C150    1.414   .     A
C149   C154    1.421   .     A
C150   C151    1.419   .     A
C150   H160    1.083   .     S
C151   X152    1.411   .     A
C151   H157    1.082   .     S
X152   C153    1.414   .     A
C153   C154    1.420   .     A
C153   H158    1.084   .     S
C154   C162    1.508   .     S
C161   H163    1.111   .     S
C161   H164    1.110   .     S
C161   H165    1.108   .     S
C162   H166    1.111   .     S
C162   H167    1.110   .     S
C162   H168    1.108   .     S
C169   C170    1.423   .     A
C169   C174    1.413   .     A
C169   C175    1.527   .     S
C170   C171    1.420   .     A
C170   C187    1.507   .     S
C171   X172    1.412   .     A
C171   H181    1.084   .     S
X172   C173    1.412   .     A
C173   C174    1.418   .     A
C173   H182    1.082   .     S
C174   H185    1.083   .     S
C175   C176    1.408   .     A
C175   C180    1.427   .     A
C176   C177    1.410   .     A
C176   H186    1.083   .     S
C177   X178    1.412   .     A
C177   H183    1.083   .     S
X178   C179    1.413   .     A
C179   C180    1.428   .     A
C179   H184    1.084   .     S
C180   C188    1.505   .     S
C187   H189    1.111   .     S
C187   H190    1.110   .     S
C187   H191    1.108   .     S
C188   H192    1.109   .     S
C188   H193    1.110   .     S
C188   H194    1.108   .     S
C195   C196    1.427   .     A
C195   C200    1.408   .     A
C195   C201    1.528   .     S
C196   C197    1.428   .     A
C196   C213    1.505   .     S
C197   X198    1.413   .     A
C197   H207    1.083   .     S
X198   C199    1.412   .     A
C199   C200    1.410   .     A
C199   H208    1.083   .     S
C200   H211    1.083   .     S
C201   C202    1.414   .     A
C201   C206    1.423   .     A
C202   C203    1.418   .     A
C202   H212    1.083   .     S
C203   X204    1.411   .     A
C203   H209    1.082   .     S
X204   C205    1.412   .     A
C205   C206    1.420   .     A
C205   H210    1.084   .     S
C206   C214    1.507   .     S
C213   H215    1.109   .     S
C213   H216    1.110   .     S
C213   H217    1.108   .     S
C214   H218    1.111   .     S
C214   H219    1.110   .     S
C214   H220    1.108   .     S
C221   C222    1.422   .     A
C221   C226    1.413   .     A
C221   C227    1.526   .     S
C222   C223    1.420   .     A
C222   C239    1.507   .     S
C223   X224    1.413   .     A
C223   H233    1.084   .     S
X224   C225    1.412   .     A
C225   C226    1.419   .     A
C225   H234    1.082   .     S
C226   H237    1.083   .     S
C227   C228    1.412   .     A
C227   C232    1.422   .     A
C228   C229    1.418   .     A
C228   H238    1.083   .     S
C229   X230    1.412   .     A
C229   H235    1.082   .     S
X230   C231    1.414   .     A
C231   C232    1.420   .     A
C231   H236    1.083   .     S
C232   C240    1.507   .     S
C239   H241    1.110   .     S
C239   H242    1.110   .     S
C239   H243    1.108   .     S
C240   H244    1.110   .     S
C240   H245    1.110   .     S
C240   H246    1.108   .     S
C247   C248    1.421   .     A
C247   C252    1.413   .     A
C247   C253    1.524   .     S
C248   C249    1.418   .     A
C248   C265    1.507   .     S
C249   X250    1.413   .     A
C249   H259    1.083   .     S
X250   C251    1.412   .     A
C251   C252    1.419   .     A
C251   H260    1.082   .     S
C252   H263    1.083   .     S
C253   C254    1.413   .     A
C253   C258    1.421   .     A
C254   C255    1.419   .     A
C254   H264    1.083   .     S
C255   X256    1.411   .     A
C255   H261    1.082   .     S
X256   C257    1.414   .     A
C257   C258    1.419   .     A
C257   H262    1.084   .     S
C258   C266    1.507   .     S
C265   H267    1.110   .     S
C265   H268    1.111   .     S
C265   H269    1.108   .     S
C266   H270    1.110   .     S
C266   H271    1.111   .     S
C266   H272    1.108   .     S
C273   C274    1.426   .     A
C273   C278    1.408   .     A
C273   C279    1.527   .     S
C274   C275    1.426   .     A
C274   C291    1.505   .     S
C275   X276    1.413   .     A
C275   H285    1.084   .     S
X276   C277    1.412   .     A
C277   C278    1.411   .     A
C277   H286    1.083   .     S
C278   H289    1.083   .     S
C279   C280    1.408   .     A
C279   C284    1.426   .     A
C280   C281    1.411   .     A
C280   H290    1.083   .     S
C281   X282    1.412   .     A
C281   H287    1.083   .     S
X282   C283    1.412   .     A
C283   C284    1.426   .     A
C283   H288    1.083   .     S
C284   C292    1.505   .     S
C291   H293    1.110   .     S
C291   H294    1.109   .     S
C291   H295    1.107   .     S
C292   H296    1.110   .     S
C292   H297    1.111   .     S
C292   H298    1.108   .     S
C299   C300    1.426   .     A
C299   C304    1.408   .     A
C299   C305    1.526   .     S
C300   C301    1.425   .     A
C300   C317    1.505   .     S
C301   X302    1.413   .     A
C301   H311    1.083   .     S
X302   C303    1.412   .     A
C303   C304    1.411   .     A
C303   H312    1.083   .     S
C304   H315    1.083   .     S
C305   C306    1.408   .     A
C305   C310    1.426   .     A
C306   C307    1.411   .     A
C306   H316    1.083   .     S
C307   X308    1.413   .     A
C307   H313    1.083   .     S
X308   C309    1.412   .     A
C309   C310    1.426   .     A
C309   H314    1.084   .     S
C310   C318    1.505   .     S
C317   H319    1.110   .     S
C317   H320    1.111   .     S
C317   H321    1.108   .     S
C318   H322    1.110   .     S
C318   H323    1.109   .     S
C318   H324    1.108   .     S
