data_ja512437u_si_004_freeONLY
_audit_creation_date              2015-08-19
_audit_creation_method            'Materials Studio'
_symmetry_space_group_name_H-M    'P1'
_symmetry_Int_Tables_number       1
_symmetry_cell_setting            triclinic
loop_
_symmetry_equiv_pos_as_xyz
  x,y,z
_cell_length_a                    19.6000
_cell_length_b                    19.6000
_cell_length_c                    20.7600
_cell_angle_alpha                 90.0000
_cell_angle_beta                  90.0000
_cell_angle_gamma                 120.0000
loop_
_atom_site_label
_atom_site_type_symbol
_atom_site_fract_x
_atom_site_fract_y
_atom_site_fract_z
_atom_site_U_iso_or_equiv
_atom_site_adp_type
_atom_site_occupancy
Cd1    Cd    0.65495   0.27308   0.90184   0.01267  Uiso   1.00
Cd2    Cd    0.56918   0.25956   0.07790   0.01267  Uiso   1.00
Cd3    Cd    0.61813   0.34505   0.23518   0.01267  Uiso   1.00
Cd4    Cd    0.74044   0.30962   0.74456   0.01267  Uiso   1.00
Cd5    Cd    0.30962   0.56918   0.91123   0.01267  Uiso   1.00
Cd6    Cd    0.43082   0.74044   0.57790   0.01267  Uiso   1.00
Cd7    Cd    0.25956   0.69038   0.24456   0.01267  Uiso   1.00
Cd8    Cd    0.69038   0.43082   0.41123   0.01267  Uiso   1.00
Cd9    Cd    0.34505   0.72692   0.40184   0.01267  Uiso   1.00
Cd10   Cd    0.72692   0.38187   0.56851   0.01267  Uiso   1.00
Cd11   Cd    0.38187   0.65495   0.73518   0.01267  Uiso   1.00
Cd12   Cd    0.27308   0.61813   0.06851   0.01267  Uiso   1.00
H1     H     0.12820   0.66050   0.85713   0.01267  Uiso   1.00
H2     H     0.66820   0.92340   0.19307   0.01267  Uiso   1.00
H3     H     0.31080   0.13860   0.11917   0.01267  Uiso   1.00
H4     H     0.18810   0.74790   0.47450   0.01267  Uiso   1.00
H5     H     0.86140   0.17220   0.78583   0.01267  Uiso   1.00
H6     H     0.25520   0.33180   0.52640   0.01267  Uiso   1.00
H7     H     0.72350   0.97320   0.93723   0.01267  Uiso   1.00
H8     H     0.75100   0.36200   0.29367   0.01267  Uiso   1.00
H9     H     0.23340   0.87500   0.99813   0.01267  Uiso   1.00
H10    H     0.97320   0.24970   0.10390   0.01267  Uiso   1.00
H11    H     0.78130   0.62230   0.34937   0.01267  Uiso   1.00
H12    H     0.89480   0.19940   0.98140   0.01267  Uiso   1.00
H13    H     0.93130   0.17370   0.67950   0.01267  Uiso   1.00
H14    H     0.57330   0.65710   0.92833   0.01267  Uiso   1.00
H15    H     0.70910   0.74170   0.93743   0.01267  Uiso   1.00
H16    H     0.10520   0.80060   0.48140   0.01267  Uiso   1.00
H17    H     0.33180   0.07660   0.69307   0.01267  Uiso   1.00
H18    H     0.72470   0.03930   0.35983   0.01267  Uiso   1.00
H19    H     0.08380   0.42670   0.26167   0.01267  Uiso   1.00
H20    H     0.78990   0.50570   0.16310   0.01267  Uiso   1.00
H21    H     0.75760   0.93130   0.51283   0.01267  Uiso   1.00
H22    H     0.34290   0.91620   0.59500   0.01267  Uiso   1.00
H23    H     0.30460   0.10520   0.31473   0.01267  Uiso   1.00
H24    H     0.41020   0.05090   0.86293   0.01267  Uiso   1.00
H25    H     0.93790   0.62010   0.57940   0.01267  Uiso   1.00
H26    H     0.65710   0.08380   0.09500   0.01267  Uiso   1.00
H27    H     0.87180   0.33950   0.35713   0.01267  Uiso   1.00
H28    H     0.62010   0.68220   0.74607   0.01267  Uiso   1.00
H29    H     0.33950   0.46770   0.52380   0.01267  Uiso   1.00
H30    H     0.39500   0.77000   0.06700   0.01267  Uiso   1.00
H31    H     0.13860   0.82780   0.28583   0.01267  Uiso   1.00
H32    H     0.42670   0.34290   0.42833   0.01267  Uiso   1.00
H33    H     0.35840   0.23340   0.83147   0.01267  Uiso   1.00
H34    H     0.06870   0.82630   0.17950   0.01267  Uiso   1.00
H35    H     0.17370   0.24240   0.84617   0.01267  Uiso   1.00
H36    H     0.62500   0.39500   0.90033   0.01267  Uiso   1.00
H37    H     0.21010   0.49430   0.66310   0.01267  Uiso   1.00
H38    H     0.87500   0.64160   0.16480   0.01267  Uiso   1.00
H39    H     0.74170   0.03260   0.10410   0.01267  Uiso   1.00
H40    H     0.31460   0.27530   0.69317   0.01267  Uiso   1.00
H41    H     0.12500   0.35840   0.66480   0.01267  Uiso   1.00
H42    H     0.90340   0.08230   0.80993   0.01267  Uiso   1.00
H43    H     0.82110   0.90340   0.64327   0.01267  Uiso   1.00
H44    H     0.25830   0.96740   0.60410   0.01267  Uiso   1.00
H45    H     0.71580   0.21010   0.49643   0.01267  Uiso   1.00
H46    H     0.68540   0.72470   0.19317   0.01267  Uiso   1.00
H47    H     0.05090   0.64070   0.02960   0.01267  Uiso   1.00
H48    H     0.03930   0.31460   0.52650   0.01267  Uiso   1.00
H49    H     0.76660   0.12500   0.49813   0.01267  Uiso   1.00
H50    H     0.27530   0.96070   0.85983   0.01267  Uiso   1.00
H51    H     0.62230   0.84100   0.51603   0.01267  Uiso   1.00
H52    H     0.28420   0.78990   0.99643   0.01267  Uiso   1.00
H53    H     0.82630   0.75760   0.34617   0.01267  Uiso   1.00
H54    H     0.91770   0.82110   0.47660   0.01267  Uiso   1.00
H55    H     0.03260   0.29090   0.27077   0.01267  Uiso   1.00
H56    H     0.27650   0.02680   0.43723   0.01267  Uiso   1.00
H57    H     0.06210   0.37990   0.07940   0.01267  Uiso   1.00
H58    H     0.92340   0.25520   0.35973   0.01267  Uiso   1.00
H59    H     0.09660   0.91770   0.30993   0.01267  Uiso   1.00
H60    H     0.17220   0.31080   0.95250   0.01267  Uiso   1.00
H61    H     0.23000   0.62500   0.73367   0.01267  Uiso   1.00
H62    H     0.25210   0.44020   0.14117   0.01267  Uiso   1.00
H63    H     0.60500   0.23000   0.56700   0.01267  Uiso   1.00
H64    H     0.91620   0.57330   0.76167   0.01267  Uiso   1.00
H65    H     0.75030   0.72350   0.77057   0.01267  Uiso   1.00
H66    H     0.24900   0.63800   0.79367   0.01267  Uiso   1.00
H67    H     0.96070   0.68540   0.02650   0.01267  Uiso   1.00
H68    H     0.81190   0.25210   0.97450   0.01267  Uiso   1.00
H69    H     0.50570   0.71580   0.32977   0.01267  Uiso   1.00
H70    H     0.46770   0.12820   0.69047   0.01267  Uiso   1.00
H71    H     0.07660   0.74480   0.85973   0.01267  Uiso   1.00
H72    H     0.80060   0.69540   0.64807   0.01267  Uiso   1.00
H73    H     0.96740   0.70910   0.77077   0.01267  Uiso   1.00
H74    H     0.69540   0.89480   0.81473   0.01267  Uiso   1.00
H75    H     0.53230   0.87180   0.19047   0.01267  Uiso   1.00
H76    H     0.63800   0.38900   0.96033   0.01267  Uiso   1.00
H77    H     0.61100   0.24900   0.62700   0.01267  Uiso   1.00
H78    H     0.58980   0.94910   0.36293   0.01267  Uiso   1.00
H79    H     0.21870   0.37770   0.84937   0.01267  Uiso   1.00
H80    H     0.29090   0.25830   0.43743   0.01267  Uiso   1.00
H81    H     0.94910   0.35930   0.52960   0.01267  Uiso   1.00
H82    H     0.36200   0.61100   0.46033   0.01267  Uiso   1.00
H83    H     0.66050   0.53230   0.02380   0.01267  Uiso   1.00
H84    H     0.68220   0.06210   0.91273   0.01267  Uiso   1.00
H85    H     0.24240   0.06870   0.01283   0.01267  Uiso   1.00
H86    H     0.44020   0.18810   0.30783   0.01267  Uiso   1.00
H87    H     0.35930   0.41020   0.69627   0.01267  Uiso   1.00
H88    H     0.15900   0.78130   0.18270   0.01267  Uiso   1.00
H89    H     0.02680   0.75030   0.60390   0.01267  Uiso   1.00
H90    H     0.64070   0.58980   0.19627   0.01267  Uiso   1.00
H91    H     0.19940   0.30460   0.14807   0.01267  Uiso   1.00
H92    H     0.55980   0.81190   0.80783   0.01267  Uiso   1.00
H93    H     0.08230   0.17890   0.97660   0.01267  Uiso   1.00
H94    H     0.68920   0.86140   0.61917   0.01267  Uiso   1.00
H95    H     0.74790   0.55980   0.64117   0.01267  Uiso   1.00
H96    H     0.82780   0.68920   0.45250   0.01267  Uiso   1.00
H97    H     0.84100   0.21870   0.68270   0.01267  Uiso   1.00
H98    H     0.17890   0.09660   0.14327   0.01267  Uiso   1.00
H99    H     0.77000   0.37500   0.23367   0.01267  Uiso   1.00
H100   H     0.64160   0.76660   0.33147   0.01267  Uiso   1.00
H101   H     0.24970   0.27650   0.27057   0.01267  Uiso   1.00
H102   H     0.37990   0.31780   0.24607   0.01267  Uiso   1.00
H103   H     0.31780   0.93790   0.41273   0.01267  Uiso   1.00
H104   H     0.74480   0.66820   0.02640   0.01267  Uiso   1.00
H105   H     0.38900   0.75100   0.12700   0.01267  Uiso   1.00
H106   H     0.37500   0.60500   0.40033   0.01267  Uiso   1.00
H107   H     0.37770   0.15900   0.01603   0.01267  Uiso   1.00
H108   H     0.49430   0.28420   0.82977   0.01267  Uiso   1.00
C1     C     0.84830   0.17970   0.42843   0.01267  Uiso   1.00
C2     C     0.92230   0.67890   0.74467   0.01267  Uiso   1.00
C3     C     0.29830   0.16680   0.14967   0.01267  Uiso   1.00
C4     C     0.29390   0.89170   0.57280   0.01267  Uiso   1.00
C5     C     0.75100   0.01280   0.90573   0.01267  Uiso   1.00
C6     C     0.50570   0.78780   0.25897   0.01267  Uiso   1.00
C7     C     0.11200   0.28380   0.21227   0.01267  Uiso   1.00
C8     C     0.88070   0.07930   0.05480   0.01267  Uiso   1.00
C9     C     0.72710   0.06610   0.89173   0.01267  Uiso   1.00
C10    C     0.05480   0.67870   0.06000   0.01267  Uiso   1.00
C11    C     0.90410   0.98710   0.25437   0.01267  Uiso   1.00
C12    C     0.20630   0.15910   0.76597   0.01267  Uiso   1.00
C13    C     0.75660   0.07770   0.07800   0.01267  Uiso   1.00
C14    C     0.33140   0.15170   0.76177   0.01267  Uiso   1.00
C15    C     0.88080   0.12580   0.42853   0.01267  Uiso   1.00
C16    C     0.01290   0.91700   0.92103   0.01267  Uiso   1.00
C17    C     0.24900   0.98720   0.40573   0.01267  Uiso   1.00
C18    C     0.40990   0.20230   0.33453   0.01267  Uiso   1.00
C19    C     0.10830   0.40220   0.23947   0.01267  Uiso   1.00
C20    C     0.32930   0.15260   0.33893   0.01267  Uiso   1.00
C21    C     0.70730   0.59300   0.27307   0.01267  Uiso   1.00
C22    C     0.49430   0.21220   0.75897   0.01267  Uiso   1.00
C23    C     0.24340   0.92230   0.57800   0.01267  Uiso   1.00
C24    C     0.78020   0.85780   0.66357   0.01267  Uiso   1.00
C25    C     0.27290   0.93390   0.39173   0.01267  Uiso   1.00
C26    C     0.15710   0.03980   0.38743   0.01267  Uiso   1.00
C27    C     0.21880   0.46140   0.63470   0.01267  Uiso   1.00
C28    C     0.21220   0.83180   0.96903   0.01267  Uiso   1.00
C29    C     0.59010   0.79770   0.83453   0.01267  Uiso   1.00
C30    C     0.33610   0.58140   0.58970   0.01267  Uiso   1.00
C31    C     0.00130   0.70530   0.05810   0.01267  Uiso   1.00
C32    C     0.40220   0.29390   0.40613   0.01267  Uiso   1.00
C33    C     0.21980   0.14220   0.16357   0.01267  Uiso   1.00
C34    C     0.08300   0.09590   0.58770   0.01267  Uiso   1.00
C35    C     0.18480   0.98370   0.37423   0.01267  Uiso   1.00
C36    C     0.11920   0.87420   0.92853   0.01267  Uiso   1.00
C37    C     0.76200   0.64300   0.31737   0.01267  Uiso   1.00
C38    C     0.86850   0.70170   0.48300   0.01267  Uiso   1.00
C39    C     0.79890   0.81520   0.70757   0.01267  Uiso   1.00
C40    C     0.11430   0.70730   0.10640   0.01267  Uiso   1.00
C41    C     0.70530   0.70400   0.22477   0.01267  Uiso   1.00
C42    C     0.46140   0.24260   0.80137   0.01267  Uiso   1.00
C43    C     0.88570   0.29270   0.60640   0.01267  Uiso   1.00
C44    C     0.79770   0.20760   0.00120   0.01267  Uiso   1.00
C45    C     0.23210   0.87420   0.34693   0.01267  Uiso   1.00
C46    C     0.75470   0.33610   0.42303   0.01267  Uiso   1.00
C47    C     0.15000   0.70430   0.88553   0.01267  Uiso   1.00
C48    C     0.27270   0.82570   0.53520   0.01267  Uiso   1.00
C49    C     0.25800   0.81520   0.33083   0.01267  Uiso   1.00
C50    C     0.81520   0.55720   0.49750   0.01267  Uiso   1.00
C51    C     0.20990   0.53490   0.20117   0.01267  Uiso   1.00
C52    C     0.78780   0.28210   0.42563   0.01267  Uiso   1.00
C53    C     0.23930   0.24620   0.76887   0.01267  Uiso   1.00
C54    C     0.70400   0.99870   0.39143   0.01267  Uiso   1.00
C55    C     0.78880   0.72350   0.31557   0.01267  Uiso   1.00
C56    C     0.05280   0.08160   0.41183   0.01267  Uiso   1.00
C57    C     0.29270   0.40700   0.77307   0.01267  Uiso   1.00
C58    C     0.59300   0.88570   0.43973   0.01267  Uiso   1.00
C59    C     0.70610   0.10830   0.07280   0.01267  Uiso   1.00
C60    C     0.17670   0.32930   0.17227   0.01267  Uiso   1.00
C61    C     0.72350   0.93470   0.48223   0.01267  Uiso   1.00
C62    C     0.82820   0.11200   0.04560   0.01267  Uiso   1.00
C63    C     0.00690   0.76070   0.10220   0.01267  Uiso   1.00
C64    C     0.79240   0.59010   0.66787   0.01267  Uiso   1.00
C65    C     0.14220   0.92240   0.33023   0.01267  Uiso   1.00
C66    C     0.24530   0.66390   0.92303   0.01267  Uiso   1.00
C67    C     0.44700   0.27270   0.36853   0.01267  Uiso   1.00
C68    C     0.84290   0.96020   0.88743   0.01267  Uiso   1.00
C69    C     0.87420   0.64210   0.51360   0.01267  Uiso   1.00
C70    C     0.55720   0.74200   0.66417   0.01267  Uiso   1.00
C71    C     0.15170   0.82030   0.92843   0.01267  Uiso   1.00
C72    C     0.35700   0.11900   0.98403   0.01267  Uiso   1.00
C73    C     0.03980   0.88270   0.55410   0.01267  Uiso   1.00
C74    C     0.12580   0.35790   0.01360   0.01267  Uiso   1.00
C75    C     0.95280   0.79370   0.09930   0.01267  Uiso   1.00
C76    C     0.23800   0.35700   0.81737   0.01267  Uiso   1.00
C77    C     0.92240   0.78020   0.49690   0.01267  Uiso   1.00
C78    C     0.75500   0.88080   0.26187   0.01267  Uiso   1.00
C79    C     0.17500   0.68200   0.10710   0.01267  Uiso   1.00
C80    C     0.85780   0.07760   0.83023   0.01267  Uiso   1.00
C81    C     0.35790   0.23210   0.18027   0.01267  Uiso   1.00
C82    C     0.32130   0.37610   0.72667   0.01267  Uiso   1.00
C83    C     0.75380   0.99310   0.43553   0.01267  Uiso   1.00
C84    C     0.78120   0.53860   0.13470   0.01267  Uiso   1.00
C85    C     0.97120   0.05280   0.24517   0.01267  Uiso   1.00
C86    C     0.15260   0.82330   0.50560   0.01267  Uiso   1.00
C87    C     0.62390   0.94520   0.39333   0.01267  Uiso   1.00
C88    C     0.29570   0.44570   0.55220   0.01267  Uiso   1.00
C89    C     0.67870   0.62390   0.22667   0.01267  Uiso   1.00
C90    C     0.82500   0.31800   0.60710   0.01267  Uiso   1.00
C91    C     0.84090   0.04720   0.43263   0.01267  Uiso   1.00
C92    C     0.44570   0.15000   0.71887   0.01267  Uiso   1.00
C93    C     0.63510   0.88040   0.22027   0.01267  Uiso   1.00
C94    C     0.76070   0.75380   0.26887   0.01267  Uiso   1.00
C95    C     0.07770   0.32110   0.24467   0.01267  Uiso   1.00
C96    C     0.13150   0.29830   0.98300   0.01267  Uiso   1.00
C97    C     0.17970   0.33140   0.59510   0.01267  Uiso   1.00
C98    C     0.82570   0.55300   0.70187   0.01267  Uiso   1.00
C99    C     0.53490   0.32500   0.36783   0.01267  Uiso   1.00
C100   C     0.17180   0.88800   0.54560   0.01267  Uiso   1.00
C101   C     0.67890   0.75660   0.91133   0.01267  Uiso   1.00
C102   C     0.31800   0.49300   0.77377   0.01267  Uiso   1.00
C103   C     0.75470   0.63510   0.05360   0.01267  Uiso   1.00
C104   C     0.26180   0.24900   0.23907   0.01267  Uiso   1.00
C105   C     0.32500   0.79010   0.53450   0.01267  Uiso   1.00
C106   C     0.21220   0.71790   0.92563   0.01267  Uiso   1.00
C107   C     0.16820   0.38040   0.63570   0.01267  Uiso   1.00
C108   C     0.44280   0.25800   0.16417   0.01267  Uiso   1.00
C109   C     0.07930   0.19860   0.22147   0.01267  Uiso   1.00
C110   C     0.74200   0.18480   0.83083   0.01267  Uiso   1.00
C111   C     0.38040   0.21220   0.80237   0.01267  Uiso   1.00
C112   C     0.72730   0.17430   0.03520   0.01267  Uiso   1.00
C113   C     0.70430   0.55430   0.05220   0.01267  Uiso   1.00
C114   C     0.88800   0.71620   0.71227   0.01267  Uiso   1.00
C115   C     0.98720   0.73820   0.57240   0.01267  Uiso   1.00
C116   C     0.15910   0.95280   0.93263   0.01267  Uiso   1.00
C117   C     0.75740   0.21880   0.46803   0.01267  Uiso   1.00
C118   C     0.06610   0.33900   0.05840   0.01267  Uiso   1.00
C119   C     0.66100   0.72710   0.72507   0.01267  Uiso   1.00
C120   C     0.61960   0.78780   0.30237   0.01267  Uiso   1.00
C121   C     0.82330   0.67070   0.67227   0.01267  Uiso   1.00
C122   C     0.46510   0.67500   0.86783   0.01267  Uiso   1.00
C123   C     0.71620   0.82820   0.87893   0.01267  Uiso   1.00
C124   C     0.79010   0.46510   0.70117   0.01267  Uiso   1.00
C125   C     0.89170   0.59780   0.73947   0.01267  Uiso   1.00
C126   C     0.17430   0.44700   0.20187   0.01267  Uiso   1.00
C127   C     0.04720   0.20630   0.59930   0.01267  Uiso   1.00
C128   C     0.58140   0.24530   0.75637   0.01267  Uiso   1.00
C129   C     0.28380   0.17180   0.37893   0.01267  Uiso   1.00
C130   C     0.11960   0.75470   0.88693   0.01267  Uiso   1.00
C131   C     0.99310   0.23930   0.60220   0.01267  Uiso   1.00
C132   C     0.36490   0.11960   0.72027   0.01267  Uiso   1.00
C133   C     0.66390   0.41860   0.08970   0.01267  Uiso   1.00
C134   C     0.41860   0.75470   0.25637   0.01267  Uiso   1.00
C135   C     0.21120   0.27650   0.81557   0.01267  Uiso   1.00
C136   C     0.24620   0.00690   0.93553   0.01267  Uiso   1.00
C137   C     0.91840   0.97120   0.07850   0.01267  Uiso   1.00
C138   C     0.64210   0.76790   0.68027   0.01267  Uiso   1.00
C139   C     0.55430   0.85000   0.21887   0.01267  Uiso   1.00
C140   C     0.92070   0.80140   0.72147   0.01267  Uiso   1.00
C141   C     0.12580   0.24500   0.59520   0.01267  Uiso   1.00
C142   C     0.83180   0.61960   0.13570   0.01267  Uiso   1.00
C143   C     0.94720   0.91840   0.91183   0.01267  Uiso   1.00
C144   C     0.06530   0.78880   0.14890   0.01267  Uiso   1.00
C145   C     0.93390   0.66100   0.55840   0.01267  Uiso   1.00
C146   C     0.29600   0.00130   0.89143   0.01267  Uiso   1.00
C147   C     0.82030   0.66860   0.09510   0.01267  Uiso   1.00
C148   C     0.76790   0.12580   0.84693   0.01267  Uiso   1.00
C149   C     0.66860   0.84830   0.26177   0.01267  Uiso   1.00
C150   C     0.84740   0.17670   0.00560   0.01267  Uiso   1.00
C151   C     0.32110   0.24340   0.41133   0.01267  Uiso   1.00
C152   C     0.18480   0.44280   0.99750   0.01267  Uiso   1.00
C153   C     0.11930   0.92070   0.55480   0.01267  Uiso   1.00
C154   C     0.64300   0.88100   0.48403   0.01267  Uiso   1.00
C155   C     0.20760   0.40990   0.16787   0.01267  Uiso   1.00
C156   C     0.93470   0.21120   0.64890   0.01267  Uiso   1.00
C157   C     0.70170   0.83320   0.64967   0.01267  Uiso   1.00
C158   C     0.88270   0.84290   0.72077   0.01267  Uiso   1.00
C159   C     0.83320   0.13150   0.81633   0.01267  Uiso   1.00
C160   C     0.94520   0.32130   0.56000   0.01267  Uiso   1.00
C161   C     0.71790   0.50570   0.09230   0.01267  Uiso   1.00
C162   C     0.53860   0.75740   0.30137   0.01267  Uiso   1.00
C163   C     0.87420   0.75500   0.09520   0.01267  Uiso   1.00
C164   C     0.02880   0.94720   0.74517   0.01267  Uiso   1.00
C165   C     0.27650   0.06530   0.98223   0.01267  Uiso   1.00
C166   C     0.99870   0.29470   0.55810   0.01267  Uiso   1.00
C167   C     0.19860   0.11930   0.38813   0.01267  Uiso   1.00
C168   C     0.08160   0.02880   0.57850   0.01267  Uiso   1.00
C169   C     0.37610   0.05480   0.89333   0.01267  Uiso   1.00
C170   C     0.68200   0.50700   0.27377   0.01267  Uiso   1.00
C171   C     0.24500   0.11920   0.76187   0.01267  Uiso   1.00
C172   C     0.49300   0.17500   0.94043   0.01267  Uiso   1.00
C173   C     0.96020   0.11730   0.05410   0.01267  Uiso   1.00
C174   C     0.01630   0.20110   0.04090   0.01267  Uiso   1.00
C175   C     0.40700   0.11430   0.93973   0.01267  Uiso   1.00
C176   C     0.01280   0.26180   0.07240   0.01267  Uiso   1.00
C177   C     0.33900   0.27290   0.22507   0.01267  Uiso   1.00
C178   C     0.73820   0.75100   0.73907   0.01267  Uiso   1.00
C179   C     0.91700   0.90410   0.08770   0.01267  Uiso   1.00
C180   C     0.20230   0.79240   0.50120   0.01267  Uiso   1.00
C181   C     0.81520   0.01630   0.87423   0.01267  Uiso   1.00
C182   C     0.55300   0.72730   0.86853   0.01267  Uiso   1.00
C183   C     0.24260   0.78120   0.96803   0.01267  Uiso   1.00
C184   C     0.67070   0.84740   0.83893   0.01267  Uiso   1.00
C185   C     0.16680   0.86850   0.31633   0.01267  Uiso   1.00
C186   C     0.07760   0.21980   0.99690   0.01267  Uiso   1.00
C187   C     0.79370   0.84090   0.26597   0.01267  Uiso   1.00
C188   C     0.98370   0.79890   0.54090   0.01267  Uiso   1.00
C189   C     0.11900   0.76200   0.15070   0.01267  Uiso   1.00
C190   C     0.50700   0.82500   0.44043   0.01267  Uiso   1.00
C191   C     0.20110   0.18480   0.20757   0.01267  Uiso   1.00
C192   C     0.29470   0.29600   0.72477   0.01267  Uiso   1.00
C193   C     0.88100   0.23800   0.65070   0.01267  Uiso   1.00
C194   C     0.78780   0.16820   0.46903   0.01267  Uiso   1.00
C195   C     0.80140   0.88070   0.88813   0.01267  Uiso   1.00
C196   C     0.28210   0.49430   0.59230   0.01267  Uiso   1.00
C197   C     0.98710   0.08300   0.42103   0.01267  Uiso   1.00
C198   C     0.09590   0.01290   0.75437   0.01267  Uiso   1.00
C199   C     0.24530   0.36490   0.55360   0.01267  Uiso   1.00
C200   C     0.88040   0.24530   0.38693   0.01267  Uiso   1.00
C201   C     0.11730   0.15710   0.22077   0.01267  Uiso   1.00
C202   C     0.67500   0.20990   0.03450   0.01267  Uiso   1.00
C203   C     0.85000   0.29570   0.38553   0.01267  Uiso   1.00
C204   C     0.59780   0.70610   0.90613   0.01267  Uiso   1.00
S1     S     0.14514   0.16712   0.40565   0.01267  Uiso   1.00
S2     S     0.93746   0.94312   0.74003   0.01267  Uiso   1.00
S3     S     0.06254   0.05688   0.24003   0.01267  Uiso   1.00
S4     S     0.18711   0.01588   0.75829   0.01267  Uiso   1.00
S5     S     0.81289   0.98412   0.25829   0.01267  Uiso   1.00
S6     S     0.97802   0.14514   0.23899   0.01267  Uiso   1.00
S7     S     0.16712   0.02198   0.57232   0.01267  Uiso   1.00
S8     S     0.17123   0.18711   0.59162   0.01267  Uiso   1.00
S9     S     0.99434   0.93746   0.57336   0.01267  Uiso   1.00
S10    S     0.82877   0.81289   0.09162   0.01267  Uiso   1.00
S11    S     0.99829   0.10314   0.59969   0.01267  Uiso   1.00
S12    S     0.05688   0.99434   0.40669   0.01267  Uiso   1.00
S13    S     0.85486   0.83288   0.90565   0.01267  Uiso   1.00
S14    S     0.01588   0.82877   0.92495   0.01267  Uiso   1.00
S15    S     0.89686   0.89515   0.26636   0.01267  Uiso   1.00
S16    S     0.94312   0.00566   0.90669   0.01267  Uiso   1.00
S17    S     0.10314   0.10485   0.76636   0.01267  Uiso   1.00
S18    S     0.83288   0.97802   0.07232   0.01267  Uiso   1.00
S19    S     0.98412   0.17123   0.42495   0.01267  Uiso   1.00
S20    S     0.00566   0.06254   0.07336   0.01267  Uiso   1.00
S21    S     0.10485   0.00171   0.93302   0.01267  Uiso   1.00
S22    S     0.00171   0.89686   0.09969   0.01267  Uiso   1.00
S23    S     0.89515   0.99829   0.43302   0.01267  Uiso   1.00
S24    S     0.02198   0.85486   0.73899   0.01267  Uiso   1.00
O1     O     0.57930   0.21910   0.19437   0.01267  Uiso   1.00
O2     O     0.77770   0.38800   0.38033   0.01267  Uiso   1.00
O3     O     0.28310   0.51610   0.81047   0.01267  Uiso   1.00
O4     O     0.53660   0.16550   0.90113   0.01267  Uiso   1.00
O5     O     0.38740   0.73270   0.08990   0.01267  Uiso   1.00
O6     O     0.37500   0.70270   0.29697   0.01267  Uiso   1.00
O7     O     0.22230   0.61200   0.88033   0.01267  Uiso   1.00
O8     O     0.78090   0.36020   0.86103   0.01267  Uiso   1.00
O9     O     0.38760   0.82350   0.56700   0.01267  Uiso   1.00
O10    O     0.72670   0.42360   0.67067   0.01267  Uiso   1.00
O11    O     0.30310   0.72670   0.50400   0.01267  Uiso   1.00
O12    O     0.81450   0.50530   0.53320   0.01267  Uiso   1.00
O13    O     0.61260   0.26730   0.58990   0.01267  Uiso   1.00
O14    O     0.38800   0.61030   0.54700   0.01267  Uiso   1.00
O15    O     0.42360   0.69690   0.83733   0.01267  Uiso   1.00
O16    O     0.56410   0.38760   0.40033   0.01267  Uiso   1.00
O17    O     0.49470   0.30920   0.19987   0.01267  Uiso   1.00
O18    O     0.57640   0.30310   0.33733   0.01267  Uiso   1.00
O19    O     0.51610   0.23300   0.97713   0.01267  Uiso   1.00
O20    O     0.67230   0.37500   0.13030   0.01267  Uiso   1.00
O21    O     0.32770   0.62500   0.63030   0.01267  Uiso   1.00
O22    O     0.29730   0.67230   0.96363   0.01267  Uiso   1.00
O23    O     0.36020   0.57930   0.02770   0.01267  Uiso   1.00
O24    O     0.77220   0.54580   0.44920   0.01267  Uiso   1.00
O25    O     0.22780   0.45420   0.94920   0.01267  Uiso   1.00
O26    O     0.42070   0.78090   0.69437   0.01267  Uiso   1.00
O27    O     0.26730   0.65470   0.75657   0.01267  Uiso   1.00
O28    O     0.34530   0.61260   0.42323   0.01267  Uiso   1.00
O29    O     0.77360   0.22780   0.78253   0.01267  Uiso   1.00
O30    O     0.17650   0.56410   0.23367   0.01267  Uiso   1.00
O31    O     0.18550   0.49470   0.03320   0.01267  Uiso   1.00
O32    O     0.61200   0.38970   0.04700   0.01267  Uiso   1.00
O33    O     0.62890   0.46340   0.23447   0.01267  Uiso   1.00
O34    O     0.16550   0.62890   0.06780   0.01267  Uiso   1.00
O35    O     0.38970   0.77770   0.21367   0.01267  Uiso   1.00
O36    O     0.65470   0.38740   0.92323   0.01267  Uiso   1.00
O37    O     0.71690   0.48390   0.31047   0.01267  Uiso   1.00
O38    O     0.83450   0.37110   0.56780   0.01267  Uiso   1.00
O39    O     0.70270   0.32770   0.46363   0.01267  Uiso   1.00
O40    O     0.69690   0.27330   0.00400   0.01267  Uiso   1.00
O41    O     0.50530   0.69080   0.69987   0.01267  Uiso   1.00
O42    O     0.61030   0.22230   0.71367   0.01267  Uiso   1.00
O43    O     0.73270   0.34530   0.25657   0.01267  Uiso   1.00
O44    O     0.62500   0.29730   0.79697   0.01267  Uiso   1.00
O45    O     0.21910   0.63980   0.36103   0.01267  Uiso   1.00
O46    O     0.76700   0.28310   0.64380   0.01267  Uiso   1.00
O47    O     0.82350   0.43590   0.73367   0.01267  Uiso   1.00
O48    O     0.61240   0.17650   0.06700   0.01267  Uiso   1.00
O49    O     0.48390   0.76700   0.47713   0.01267  Uiso   1.00
O50    O     0.54580   0.77360   0.61587   0.01267  Uiso   1.00
O51    O     0.22640   0.77220   0.28253   0.01267  Uiso   1.00
O52    O     0.30920   0.81450   0.36653   0.01267  Uiso   1.00
O53    O     0.45420   0.22640   0.11587   0.01267  Uiso   1.00
O54    O     0.46340   0.83450   0.40113   0.01267  Uiso   1.00
O55    O     0.27330   0.57640   0.17067   0.01267  Uiso   1.00
O56    O     0.63980   0.42070   0.52770   0.01267  Uiso   1.00
O57    O     0.23300   0.71690   0.14380   0.01267  Uiso   1.00
O58    O     0.37110   0.53660   0.73447   0.01267  Uiso   1.00
O59    O     0.43590   0.61240   0.90033   0.01267  Uiso   1.00
O60    O     0.69080   0.18550   0.86653   0.01267  Uiso   1.00
