data_ja5131269_si_003_freeONLY
_audit_creation_date              2015-08-19
_audit_creation_method            'Materials Studio'
_symmetry_space_group_name_H-M    'P1'
_symmetry_Int_Tables_number       1
_symmetry_cell_setting            triclinic
loop_
_symmetry_equiv_pos_as_xyz
  x,y,z
_cell_length_a                    17.0847
_cell_length_b                    17.1201
_cell_length_c                    17.1201
_cell_angle_alpha                 90.0876
_cell_angle_beta                  92.0920
_cell_angle_gamma                 87.9080
loop_
_atom_site_label
_atom_site_type_symbol
_atom_site_fract_x
_atom_site_fract_y
_atom_site_fract_z
_atom_site_U_iso_or_equiv
_atom_site_adp_type
_atom_site_occupancy
Zn1    Zn    0.31605   0.41542   0.71530   0.01267  Uiso   1.00
Zn2    Zn    0.18405   0.41877   0.58123   0.01267  Uiso   1.00
Zn3    Zn    0.18578   0.28750   0.71250   0.01267  Uiso   1.00
Zn4    Zn    0.31605   0.28470   0.58458   0.01267  Uiso   1.00
H1     H     0.16800   0.28510   0.95270   0.01267  Uiso   1.00
H2     H     0.55910   0.42910   0.72990   0.01267  Uiso   1.00
H3     H     0.33670   0.27700   0.34360   0.01267  Uiso   1.00
H4     H     0.34350   0.90400   0.57520   0.01267  Uiso   1.00
H5     H     0.95450   0.28030   0.71970   0.01267  Uiso   1.00
H6     H     0.68910   0.28250   0.55450   0.01267  Uiso   1.00
H7     H     0.34640   0.43170   0.96370   0.01267  Uiso   1.00
H8     H     0.16550   0.91220   0.70880   0.01267  Uiso   1.00
H9     H     0.68910   0.44550   0.71750   0.01267  Uiso   1.00
H10    H     0.16790   0.79920   0.56200   0.01267  Uiso   1.00
H11    H     0.16550   0.29120   0.08780   0.01267  Uiso   1.00
H12    H     0.92970   0.44620   0.55380   0.01267  Uiso   1.00
H13    H     0.34640   0.03630   0.56830   0.01267  Uiso   1.00
H14    H     0.34870   0.28350   0.21230   0.01267  Uiso   1.00
H15    H     0.34870   0.78770   0.71650   0.01267  Uiso   1.00
H16    H     0.70950   0.31340   0.68660   0.01267  Uiso   1.00
H17    H     0.55910   0.27010   0.57090   0.01267  Uiso   1.00
H18    H     0.16360   0.43530   0.33530   0.01267  Uiso   1.00
H19    H     0.82140   0.26970   0.73030   0.01267  Uiso   1.00
H20    H     0.16360   0.66470   0.56470   0.01267  Uiso   1.00
H21    H     0.16790   0.43800   0.20080   0.01267  Uiso   1.00
H22    H     0.16800   0.04730   0.71490   0.01267  Uiso   1.00
H23    H     0.79650   0.43970   0.56030   0.01267  Uiso   1.00
H24    H     0.34350   0.42480   0.09600   0.01267  Uiso   1.00
H25    H     0.33670   0.65640   0.72300   0.01267  Uiso   1.00
C1     C     0.20480   0.31790   0.06190   0.01267  Uiso   1.00
C2     C     0.46040   0.35020   0.64980   0.01267  Uiso   1.00
C3     C     0.30960   0.01230   0.60010   0.01267  Uiso   1.00
C4     C     0.25690   0.89560   0.64440   0.01267  Uiso   1.00
C5     C     0.25770   0.35780   0.85520   0.01267  Uiso   1.00
C6     C     0.30960   0.39990   0.98770   0.01267  Uiso   1.00
C7     C     0.25030   0.35520   0.35300   0.01267  Uiso   1.00
C8     C     0.04430   0.36440   0.63560   0.01267  Uiso   1.00
C9     C     0.24860   0.35530   0.43990   0.01267  Uiso   1.00
C10    C     0.30180   0.68580   0.68880   0.01267  Uiso   1.00
C11    C     0.30760   0.76350   0.68790   0.01267  Uiso   1.00
C12    C     0.95590   0.36350   0.63650   0.01267  Uiso   1.00
C13    C     0.25270   0.80750   0.64470   0.01267  Uiso   1.00
C14    C     0.66420   0.31090   0.59490   0.01267  Uiso   1.00
C15    C     0.58570   0.30770   0.60190   0.01267  Uiso   1.00
C16    C     0.25750   0.35650   0.94270   0.01267  Uiso   1.00
C17    C     0.58570   0.39810   0.69230   0.01267  Uiso   1.00
C18    C     0.20480   0.93810   0.68210   0.01267  Uiso   1.00
C19    C     0.20050   0.69010   0.59770   0.01267  Uiso   1.00
C20    C     0.30660   0.39610   0.06610   0.01267  Uiso   1.00
C21    C     0.70760   0.35470   0.64530   0.01267  Uiso   1.00
C22    C     0.25270   0.35530   0.19250   0.01267  Uiso   1.00
C23    C     0.25690   0.35560   0.10440   0.01267  Uiso   1.00
C24    C     0.30180   0.31120   0.31420   0.01267  Uiso   1.00
C25    C     0.66420   0.40510   0.68910   0.01267  Uiso   1.00
C26    C     0.25750   0.05730   0.64350   0.01267  Uiso   1.00
C27    C     0.25030   0.64700   0.64480   0.01267  Uiso   1.00
C28    C     0.54330   0.35200   0.64800   0.01267  Uiso   1.00
C29    C     0.90780   0.41090   0.58910   0.01267  Uiso   1.00
C30    C     0.25770   0.14480   0.64220   0.01267  Uiso   1.00
C31    C     0.20050   0.40230   0.30990   0.01267  Uiso   1.00
C32    C     0.20480   0.31550   0.98110   0.01267  Uiso   1.00
C33    C     0.24860   0.56010   0.64470   0.01267  Uiso   1.00
C34    C     0.30660   0.93390   0.60390   0.01267  Uiso   1.00
C35    C     0.20240   0.40330   0.22990   0.01267  Uiso   1.00
C36    C     0.20480   0.01890   0.68450   0.01267  Uiso   1.00
C37    C     0.30760   0.31210   0.23650   0.01267  Uiso   1.00
C38    C     0.92050   0.31260   0.68740   0.01267  Uiso   1.00
C39    C     0.84280   0.30510   0.69490   0.01267  Uiso   1.00
C40    C     0.20240   0.77010   0.59670   0.01267  Uiso   1.00
C41    C     0.82930   0.40680   0.59320   0.01267  Uiso   1.00
C42    C     0.79520   0.35660   0.64340   0.01267  Uiso   1.00
O1     O     0.42610   0.39660   0.69706   0.01267  Uiso   1.00
O2     O     0.08240   0.31730   0.68270   0.01267  Uiso   1.00
O3     O     0.42610   0.30294   0.60340   0.01267  Uiso   1.00
O4     O     0.20245   0.40184   0.47114   0.01267  Uiso   1.00
O5     O     0.29410   0.30782   0.47558   0.01267  Uiso   1.00
O6     O     0.07220   0.41070   0.58930   0.01267  Uiso   1.00
O7     O     0.30490   0.17594   0.59874   0.01267  Uiso   1.00
O8     O     0.20245   0.52886   0.59816   0.01267  Uiso   1.00
O9     O     0.20690   0.18090   0.68970   0.01267  Uiso   1.00
O10    O     0.30490   0.40126   0.82406   0.01267  Uiso   1.00
O11    O     0.20690   0.31030   0.81910   0.01267  Uiso   1.00
O12    O     0.25092   0.35164   0.64836   0.01267  Uiso   1.00
O13    O     0.29410   0.52442   0.69218   0.01267  Uiso   1.00
Zn5    Zn    0.68395   0.71530   0.41542   0.01267  Uiso   1.00
Zn6    Zn    0.81422   0.71250   0.28750   0.01267  Uiso   1.00
Zn7    Zn    0.81595   0.58123   0.41877   0.01267  Uiso   1.00
Zn8    Zn    0.68395   0.58458   0.28470   0.01267  Uiso   1.00
H26    H     0.66330   0.72300   0.65640   0.01267  Uiso   1.00
H27    H     0.04550   0.71970   0.28030   0.01267  Uiso   1.00
H28    H     0.83210   0.56200   0.79920   0.01267  Uiso   1.00
H29    H     0.29050   0.68660   0.31340   0.01267  Uiso   1.00
H30    H     0.65360   0.96370   0.43170   0.01267  Uiso   1.00
H31    H     0.66330   0.34360   0.27700   0.01267  Uiso   1.00
H32    H     0.31090   0.55450   0.28250   0.01267  Uiso   1.00
H33    H     0.31090   0.71750   0.44550   0.01267  Uiso   1.00
H34    H     0.65650   0.09600   0.42480   0.01267  Uiso   1.00
H35    H     0.17860   0.73030   0.26970   0.01267  Uiso   1.00
H36    H     0.65360   0.56830   0.03630   0.01267  Uiso   1.00
H37    H     0.83450   0.08780   0.29120   0.01267  Uiso   1.00
H38    H     0.20350   0.56030   0.43970   0.01267  Uiso   1.00
H39    H     0.83210   0.20080   0.43800   0.01267  Uiso   1.00
H40    H     0.83450   0.70880   0.91220   0.01267  Uiso   1.00
H41    H     0.65130   0.71650   0.78770   0.01267  Uiso   1.00
H42    H     0.83640   0.33530   0.43530   0.01267  Uiso   1.00
H43    H     0.65650   0.57520   0.90400   0.01267  Uiso   1.00
H44    H     0.83200   0.95270   0.28510   0.01267  Uiso   1.00
H45    H     0.44090   0.57090   0.27010   0.01267  Uiso   1.00
H46    H     0.83200   0.71490   0.04730   0.01267  Uiso   1.00
H47    H     0.83640   0.56470   0.66470   0.01267  Uiso   1.00
H48    H     0.07030   0.55380   0.44620   0.01267  Uiso   1.00
H49    H     0.65130   0.21230   0.28350   0.01267  Uiso   1.00
H50    H     0.44090   0.72990   0.42910   0.01267  Uiso   1.00
C43    C     0.04410   0.63650   0.36350   0.01267  Uiso   1.00
C44    C     0.79520   0.68210   0.93810   0.01267  Uiso   1.00
C45    C     0.75140   0.43990   0.35530   0.01267  Uiso   1.00
C46    C     0.33580   0.59490   0.31090   0.01267  Uiso   1.00
C47    C     0.79520   0.06190   0.31790   0.01267  Uiso   1.00
C48    C     0.79520   0.98110   0.31550   0.01267  Uiso   1.00
C49    C     0.79520   0.68450   0.01890   0.01267  Uiso   1.00
C50    C     0.74230   0.64220   0.14480   0.01267  Uiso   1.00
C51    C     0.45670   0.64800   0.35200   0.01267  Uiso   1.00
C52    C     0.69340   0.06610   0.39610   0.01267  Uiso   1.00
C53    C     0.29240   0.64530   0.35470   0.01267  Uiso   1.00
C54    C     0.69040   0.98770   0.39990   0.01267  Uiso   1.00
C55    C     0.79950   0.30990   0.40230   0.01267  Uiso   1.00
C56    C     0.69240   0.68790   0.76350   0.01267  Uiso   1.00
C57    C     0.09220   0.58910   0.41090   0.01267  Uiso   1.00
C58    C     0.75140   0.64470   0.56010   0.01267  Uiso   1.00
C59    C     0.74730   0.64470   0.80750   0.01267  Uiso   1.00
C60    C     0.53960   0.64980   0.35020   0.01267  Uiso   1.00
C61    C     0.74310   0.64440   0.89560   0.01267  Uiso   1.00
C62    C     0.20480   0.64340   0.35660   0.01267  Uiso   1.00
C63    C     0.74230   0.85520   0.35780   0.01267  Uiso   1.00
C64    C     0.15720   0.69490   0.30510   0.01267  Uiso   1.00
C65    C     0.74970   0.64480   0.64700   0.01267  Uiso   1.00
C66    C     0.74730   0.19250   0.35530   0.01267  Uiso   1.00
C67    C     0.33580   0.68910   0.40510   0.01267  Uiso   1.00
C68    C     0.74250   0.94270   0.35650   0.01267  Uiso   1.00
C69    C     0.79760   0.22990   0.40330   0.01267  Uiso   1.00
C70    C     0.41430   0.69230   0.39810   0.01267  Uiso   1.00
C71    C     0.79950   0.59770   0.69010   0.01267  Uiso   1.00
C72    C     0.74970   0.35300   0.35520   0.01267  Uiso   1.00
C73    C     0.69040   0.60010   0.01230   0.01267  Uiso   1.00
C74    C     0.74250   0.64350   0.05730   0.01267  Uiso   1.00
C75    C     0.69820   0.68880   0.68580   0.01267  Uiso   1.00
C76    C     0.69240   0.23650   0.31210   0.01267  Uiso   1.00
C77    C     0.74310   0.10440   0.35560   0.01267  Uiso   1.00
C78    C     0.79760   0.59670   0.77010   0.01267  Uiso   1.00
C79    C     0.69820   0.31420   0.31120   0.01267  Uiso   1.00
C80    C     0.17070   0.59320   0.40680   0.01267  Uiso   1.00
C81    C     0.41430   0.60190   0.30770   0.01267  Uiso   1.00
C82    C     0.95570   0.63560   0.36440   0.01267  Uiso   1.00
C83    C     0.69340   0.60390   0.93390   0.01267  Uiso   1.00
C84    C     0.07950   0.68740   0.31260   0.01267  Uiso   1.00
O14    O     0.79310   0.81910   0.31030   0.01267  Uiso   1.00
O15    O     0.91760   0.68270   0.31730   0.01267  Uiso   1.00
O16    O     0.69510   0.82406   0.40126   0.01267  Uiso   1.00
O17    O     0.57390   0.69706   0.39660   0.01267  Uiso   1.00
O18    O     0.79755   0.47114   0.40184   0.01267  Uiso   1.00
O19    O     0.92780   0.58930   0.41070   0.01267  Uiso   1.00
O20    O     0.74908   0.64836   0.35164   0.01267  Uiso   1.00
O21    O     0.79755   0.59816   0.52886   0.01267  Uiso   1.00
O22    O     0.57390   0.60340   0.30294   0.01267  Uiso   1.00
O23    O     0.69510   0.59874   0.17594   0.01267  Uiso   1.00
O24    O     0.70590   0.69218   0.52442   0.01267  Uiso   1.00
O25    O     0.79310   0.68970   0.18090   0.01267  Uiso   1.00
O26    O     0.70590   0.47558   0.30782   0.01267  Uiso   1.00
