data_ja510525s_si_002_freeONLY
_audit_creation_date              2015-08-19
_audit_creation_method            'Materials Studio'
_symmetry_space_group_name_H-M    'P1'
_symmetry_Int_Tables_number       1
_symmetry_cell_setting            triclinic
loop_
_symmetry_equiv_pos_as_xyz
  x,y,z
_cell_length_a                    16.8900
_cell_length_b                    21.4300
_cell_length_c                    21.4300
_cell_angle_alpha                 120.0000
_cell_angle_beta                  90.0000
_cell_angle_gamma                 90.0000
loop_
_atom_site_label
_atom_site_type_symbol
_atom_site_fract_x
_atom_site_fract_y
_atom_site_fract_z
_atom_site_U_iso_or_equiv
_atom_site_adp_type
_atom_site_occupancy
Zr1    Zr    0.00000   0.93350   0.06770   0.01267  Uiso   1.00
Zr2    Zr    0.00000   0.93230   0.86580   0.01267  Uiso   1.00
Zr3    Zr    0.00000   0.06650   0.93230   0.01267  Uiso   1.00
Zr4    Zr    0.89540   0.92230   0.92260   0.01267  Uiso   1.00
Zr5    Zr    0.00000   0.13420   0.06650   0.01267  Uiso   1.00
Zr6    Zr    0.89540   0.07740   0.99970   0.01267  Uiso   1.00
Zr7    Zr    0.00000   0.86580   0.93350   0.01267  Uiso   1.00
Zr8    Zr    0.10460   0.00030   0.07770   0.01267  Uiso   1.00
Zr9    Zr    0.10460   0.92230   0.92260   0.01267  Uiso   1.00
Zr10   Zr    0.89540   0.07770   0.07740   0.01267  Uiso   1.00
Zr11   Zr    0.10460   0.07740   0.99970   0.01267  Uiso   1.00
Zr12   Zr    0.00000   0.06770   0.13420   0.01267  Uiso   1.00
Zr13   Zr    0.10460   0.07770   0.07740   0.01267  Uiso   1.00
Zr14   Zr    0.89540   0.00030   0.07770   0.01267  Uiso   1.00
Zr15   Zr    0.10460   0.92260   0.00030   0.01267  Uiso   1.00
Zr16   Zr    0.89540   0.92260   0.00030   0.01267  Uiso   1.00
Zr17   Zr    0.89540   0.99970   0.92230   0.01267  Uiso   1.00
Zr18   Zr    0.10460   0.99970   0.92230   0.01267  Uiso   1.00
Fe1    Fe    0.50000   0.50000   0.00000   0.01267  Uiso   1.00
Fe2    Fe    0.50000   0.50000   0.50000   0.01267  Uiso   1.00
Fe3    Fe    0.50000   0.00000   0.50000   0.01267  Uiso   1.00
H1     H     0.70430   0.72250   0.60130   0.01267  Uiso   1.00
H2     H     0.70430   0.27750   0.39870   0.01267  Uiso   1.00
H3     H     0.70430   0.12120   0.72250   0.01267  Uiso   1.00
H4     H     0.82340   0.79450   0.07960   0.01267  Uiso   1.00
H5     H     0.29570   0.87880   0.27750   0.01267  Uiso   1.00
H6     H     0.17660   0.20550   0.92040   0.01267  Uiso   1.00
H7     H     0.20190   0.44440   0.44070   0.01267  Uiso   1.00
H8     H     0.79460   0.32490   0.13690   0.01267  Uiso   1.00
H9     H     0.26690   0.72070   0.09520   0.01267  Uiso   1.00
H10    H     0.57170   0.27410   0.25950   0.01267  Uiso   1.00
H11    H     0.70430   0.87880   0.27750   0.01267  Uiso   1.00
H12    H     0.20540   0.13690   0.81200   0.01267  Uiso   1.00
H13    H     0.73310   0.09520   0.37450   0.01267  Uiso   1.00
H14    H     0.57170   0.72590   0.74050   0.01267  Uiso   1.00
H15    H     0.82340   0.92040   0.71490   0.01267  Uiso   1.00
H16    H     0.57170   0.01460   0.27410   0.01267  Uiso   1.00
H17    H     0.42830   0.74050   0.01460   0.01267  Uiso   1.00
H18    H     0.26690   0.09520   0.37450   0.01267  Uiso   1.00
H19    H     0.79460   0.13690   0.81200   0.01267  Uiso   1.00
H20    H     0.29570   0.72250   0.60130   0.01267  Uiso   1.00
H21    H     0.26690   0.90480   0.62550   0.01267  Uiso   1.00
H22    H     0.29570   0.27750   0.39870   0.01267  Uiso   1.00
H23    H     0.79460   0.86310   0.18800   0.01267  Uiso   1.00
H24    H     0.20540   0.32490   0.13690   0.01267  Uiso   1.00
H25    H     0.57170   0.98540   0.72590   0.01267  Uiso   1.00
H26    H     0.17660   0.79450   0.07960   0.01267  Uiso   1.00
H27    H     0.20540   0.86310   0.18800   0.01267  Uiso   1.00
H28    H     0.79810   0.99630   0.55560   0.01267  Uiso   1.00
H29    H     0.73310   0.37450   0.27930   0.01267  Uiso   1.00
H30    H     0.73310   0.27930   0.90480   0.01267  Uiso   1.00
H31    H     0.70430   0.39870   0.12120   0.01267  Uiso   1.00
H32    H     0.20190   0.00370   0.44440   0.01267  Uiso   1.00
H33    H     0.29570   0.60130   0.87880   0.01267  Uiso   1.00
H34    H     0.42830   0.25950   0.98540   0.01267  Uiso   1.00
H35    H     0.20190   0.55560   0.55930   0.01267  Uiso   1.00
H36    H     0.79460   0.18800   0.32490   0.01267  Uiso   1.00
H37    H     0.79460   0.67510   0.86310   0.01267  Uiso   1.00
H38    H     0.26690   0.37450   0.27930   0.01267  Uiso   1.00
H39    H     0.17660   0.92040   0.71490   0.01267  Uiso   1.00
H40    H     0.57170   0.74050   0.01460   0.01267  Uiso   1.00
H41    H     0.26690   0.27930   0.90480   0.01267  Uiso   1.00
H42    H     0.82340   0.71490   0.79450   0.01267  Uiso   1.00
H43    H     0.79460   0.81200   0.67510   0.01267  Uiso   1.00
H44    H     0.26690   0.62550   0.72070   0.01267  Uiso   1.00
H45    H     0.20540   0.67510   0.86310   0.01267  Uiso   1.00
H46    H     0.82340   0.20550   0.92040   0.01267  Uiso   1.00
H47    H     0.20540   0.18800   0.32490   0.01267  Uiso   1.00
H48    H     0.20190   0.44070   0.99630   0.01267  Uiso   1.00
H49    H     0.73310   0.90480   0.62550   0.01267  Uiso   1.00
H50    H     0.17660   0.07960   0.28510   0.01267  Uiso   1.00
H51    H     0.79810   0.00370   0.44440   0.01267  Uiso   1.00
H52    H     0.79810   0.55560   0.55930   0.01267  Uiso   1.00
H53    H     0.79810   0.44440   0.44070   0.01267  Uiso   1.00
H54    H     0.82340   0.28510   0.20550   0.01267  Uiso   1.00
H55    H     0.79810   0.44070   0.99630   0.01267  Uiso   1.00
H56    H     0.20190   0.99630   0.55560   0.01267  Uiso   1.00
H57    H     0.42830   0.01460   0.27410   0.01267  Uiso   1.00
H58    H     0.73310   0.72070   0.09520   0.01267  Uiso   1.00
H59    H     0.17660   0.71490   0.79450   0.01267  Uiso   1.00
H60    H     0.29570   0.12120   0.72250   0.01267  Uiso   1.00
H61    H     0.73310   0.62550   0.72070   0.01267  Uiso   1.00
H62    H     0.29570   0.39870   0.12120   0.01267  Uiso   1.00
H63    H     0.42830   0.72590   0.74050   0.01267  Uiso   1.00
H64    H     0.20540   0.81200   0.67510   0.01267  Uiso   1.00
H65    H     0.42830   0.98540   0.72590   0.01267  Uiso   1.00
H66    H     0.82340   0.07960   0.28510   0.01267  Uiso   1.00
H67    H     0.57170   0.25950   0.98540   0.01267  Uiso   1.00
H68    H     0.42830   0.27410   0.25950   0.01267  Uiso   1.00
H69    H     0.70430   0.60130   0.87880   0.01267  Uiso   1.00
H70    H     0.17660   0.28510   0.20550   0.01267  Uiso   1.00
H71    H     0.79810   0.55930   0.00370   0.01267  Uiso   1.00
H72    H     0.20190   0.55930   0.00370   0.01267  Uiso   1.00
C1     C     0.54008   0.29750   0.98830   0.01267  Uiso   1.00
C2     C     0.28990   0.98850   0.33450   0.01267  Uiso   1.00
C3     C     0.81760   0.03010   0.77190   0.01267  Uiso   1.00
C4     C     0.72850   0.35950   0.08040   0.01267  Uiso   1.00
C5     C     0.71010   0.66550   0.65400   0.01267  Uiso   1.00
C6     C     0.20080   0.24470   0.96120   0.01267  Uiso   1.00
C7     C     0.81760   0.25820   0.03010   0.01267  Uiso   1.00
C8     C     0.72850   0.91960   0.27910   0.01267  Uiso   1.00
C9     C     0.67640   0.55030   0.55290   0.01267  Uiso   1.00
C10    C     0.71010   0.65400   0.98850   0.01267  Uiso   1.00
C11    C     0.71010   0.01150   0.66550   0.01267  Uiso   1.00
C12    C     0.21790   0.31570   0.08970   0.01267  Uiso   1.00
C13    C     0.79920   0.71650   0.75530   0.01267  Uiso   1.00
C14    C     0.35420   0.38810   0.00120   0.01267  Uiso   1.00
C15    C     0.27150   0.27910   0.35950   0.01267  Uiso   1.00
C16    C     0.67640   0.55290   0.00260   0.01267  Uiso   1.00
C17    C     0.75240   0.46940   0.46750   0.01267  Uiso   1.00
C18    C     0.67640   0.44710   0.99740   0.01267  Uiso   1.00
C19    C     0.28990   0.66550   0.65400   0.01267  Uiso   1.00
C20    C     0.20080   0.96120   0.71650   0.01267  Uiso   1.00
C21    C     0.25450   0.66330   0.71140   0.01267  Uiso   1.00
C22    C     0.21790   0.77400   0.68430   0.01267  Uiso   1.00
C23    C     0.64580   0.00120   0.61310   0.01267  Uiso   1.00
C24    C     0.21790   0.22600   0.31570   0.01267  Uiso   1.00
C25    C     0.75240   0.99810   0.53060   0.01267  Uiso   1.00
C26    C     0.78210   0.77400   0.68430   0.01267  Uiso   1.00
C27    C     0.72850   0.27910   0.35950   0.01267  Uiso   1.00
C28    C     0.45992   0.69080   0.70250   0.01267  Uiso   1.00
C29    C     0.64580   0.38810   0.00120   0.01267  Uiso   1.00
C30    C     0.79920   0.24470   0.96120   0.01267  Uiso   1.00
C31    C     0.43040   0.35850   0.99310   0.01267  Uiso   1.00
C32    C     0.35420   0.38690   0.38810   0.01267  Uiso   1.00
C33    C     0.86540   0.20450   0.03940   0.01267  Uiso   1.00
C34    C     0.21790   0.91030   0.22600   0.01267  Uiso   1.00
C35    C     0.13460   0.79550   0.96060   0.01267  Uiso   1.00
C36    C     0.20080   0.75530   0.03880   0.01267  Uiso   1.00
C37    C     0.32360   0.00260   0.44970   0.01267  Uiso   1.00
C38    C     0.35420   0.61190   0.99880   0.01267  Uiso   1.00
C39    C     0.25450   0.28860   0.95190   0.01267  Uiso   1.00
C40    C     0.24760   0.53250   0.00190   0.01267  Uiso   1.00
C41    C     0.54008   0.01170   0.30920   0.01267  Uiso   1.00
C42    C     0.54008   0.69080   0.70250   0.01267  Uiso   1.00
C43    C     0.28990   0.34600   0.01150   0.01267  Uiso   1.00
C44    C     0.74550   0.71140   0.04810   0.01267  Uiso   1.00
C45    C     0.25450   0.95190   0.66330   0.01267  Uiso   1.00
C46    C     0.45992   0.01170   0.30920   0.01267  Uiso   1.00
C47    C     0.72850   0.08040   0.72090   0.01267  Uiso   1.00
C48    C     0.27150   0.08040   0.72090   0.01267  Uiso   1.00
C49    C     0.20080   0.28350   0.24470   0.01267  Uiso   1.00
C50    C     0.79920   0.03880   0.28350   0.01267  Uiso   1.00
C51    C     0.75240   0.00190   0.46940   0.01267  Uiso   1.00
C52    C     0.43040   0.63460   0.64150   0.01267  Uiso   1.00
C53    C     0.13460   0.16510   0.20450   0.01267  Uiso   1.00
C54    C     0.54008   0.30920   0.29750   0.01267  Uiso   1.00
C55    C     0.43040   0.00690   0.36540   0.01267  Uiso   1.00
C56    C     0.43040   0.36540   0.35850   0.01267  Uiso   1.00
C57    C     0.56960   0.00690   0.36540   0.01267  Uiso   1.00
C58    C     0.45992   0.30920   0.29750   0.01267  Uiso   1.00
C59    C     0.18240   0.74180   0.96990   0.01267  Uiso   1.00
C60    C     0.24760   0.46940   0.46750   0.01267  Uiso   1.00
C61    C     0.56960   0.35850   0.99310   0.01267  Uiso   1.00
C62    C     0.32360   0.44970   0.44710   0.01267  Uiso   1.00
C63    C     0.78210   0.31570   0.08970   0.01267  Uiso   1.00
C64    C     0.43040   0.99310   0.63460   0.01267  Uiso   1.00
C65    C     0.32360   0.55290   0.00260   0.01267  Uiso   1.00
C66    C     0.81760   0.77190   0.74180   0.01267  Uiso   1.00
C67    C     0.86540   0.79550   0.96060   0.01267  Uiso   1.00
C68    C     0.35420   0.61310   0.61190   0.01267  Uiso   1.00
C69    C     0.20080   0.71650   0.75530   0.01267  Uiso   1.00
C70    C     0.79920   0.28350   0.24470   0.01267  Uiso   1.00
C71    C     0.27150   0.64050   0.91960   0.01267  Uiso   1.00
C72    C     0.86540   0.03940   0.83490   0.01267  Uiso   1.00
C73    C     0.67640   0.44970   0.44710   0.01267  Uiso   1.00
C74    C     0.18240   0.03010   0.77190   0.01267  Uiso   1.00
C75    C     0.13460   0.83490   0.79550   0.01267  Uiso   1.00
C76    C     0.24760   0.46750   0.99810   0.01267  Uiso   1.00
C77    C     0.32360   0.44710   0.99740   0.01267  Uiso   1.00
C78    C     0.74550   0.04810   0.33670   0.01267  Uiso   1.00
C79    C     0.27150   0.35950   0.08040   0.01267  Uiso   1.00
C80    C     0.75240   0.53060   0.53250   0.01267  Uiso   1.00
C81    C     0.27150   0.72090   0.64050   0.01267  Uiso   1.00
C82    C     0.28990   0.33450   0.34600   0.01267  Uiso   1.00
C83    C     0.25450   0.04810   0.33670   0.01267  Uiso   1.00
C84    C     0.75240   0.46750   0.99810   0.01267  Uiso   1.00
C85    C     0.81760   0.22810   0.25820   0.01267  Uiso   1.00
C86    C     0.78210   0.08970   0.77400   0.01267  Uiso   1.00
C87    C     0.72850   0.64050   0.91960   0.01267  Uiso   1.00
C88    C     0.35420   0.00120   0.61310   0.01267  Uiso   1.00
C89    C     0.43040   0.64150   0.00690   0.01267  Uiso   1.00
C90    C     0.74550   0.28860   0.95190   0.01267  Uiso   1.00
C91    C     0.64580   0.38690   0.38810   0.01267  Uiso   1.00
C92    C     0.21790   0.68430   0.91030   0.01267  Uiso   1.00
C93    C     0.54008   0.98830   0.69080   0.01267  Uiso   1.00
C94    C     0.67640   0.99740   0.55030   0.01267  Uiso   1.00
C95    C     0.24760   0.99810   0.53060   0.01267  Uiso   1.00
C96    C     0.86540   0.96060   0.16510   0.01267  Uiso   1.00
C97    C     0.21790   0.08970   0.77400   0.01267  Uiso   1.00
C98    C     0.13460   0.20450   0.03940   0.01267  Uiso   1.00
C99    C     0.67640   0.00260   0.44970   0.01267  Uiso   1.00
C100   C     0.64580   0.61190   0.99880   0.01267  Uiso   1.00
C101   C     0.79920   0.96120   0.71650   0.01267  Uiso   1.00
C102   C     0.56960   0.64150   0.00690   0.01267  Uiso   1.00
C103   C     0.18240   0.96990   0.22810   0.01267  Uiso   1.00
C104   C     0.18240   0.77190   0.74180   0.01267  Uiso   1.00
C105   C     0.72850   0.72090   0.64050   0.01267  Uiso   1.00
C106   C     0.71010   0.34600   0.01150   0.01267  Uiso   1.00
C107   C     0.71010   0.33450   0.34600   0.01267  Uiso   1.00
C108   C     0.74550   0.66330   0.71140   0.01267  Uiso   1.00
C109   C     0.32360   0.55030   0.55290   0.01267  Uiso   1.00
C110   C     0.20080   0.03880   0.28350   0.01267  Uiso   1.00
C111   C     0.64580   0.99880   0.38690   0.01267  Uiso   1.00
C112   C     0.56960   0.36540   0.35850   0.01267  Uiso   1.00
C113   C     0.78210   0.22600   0.31570   0.01267  Uiso   1.00
C114   C     0.81760   0.74180   0.96990   0.01267  Uiso   1.00
C115   C     0.18240   0.25820   0.03010   0.01267  Uiso   1.00
C116   C     0.75240   0.53250   0.00190   0.01267  Uiso   1.00
C117   C     0.35420   0.99880   0.38690   0.01267  Uiso   1.00
C118   C     0.54008   0.70250   0.01170   0.01267  Uiso   1.00
C119   C     0.25450   0.33670   0.28860   0.01267  Uiso   1.00
C120   C     0.13460   0.03940   0.83490   0.01267  Uiso   1.00
C121   C     0.64580   0.61310   0.61190   0.01267  Uiso   1.00
C122   C     0.13460   0.96060   0.16510   0.01267  Uiso   1.00
C123   C     0.79920   0.75530   0.03880   0.01267  Uiso   1.00
C124   C     0.45992   0.70250   0.01170   0.01267  Uiso   1.00
C125   C     0.86540   0.83490   0.79550   0.01267  Uiso   1.00
C126   C     0.74550   0.95190   0.66330   0.01267  Uiso   1.00
C127   C     0.28990   0.01150   0.66550   0.01267  Uiso   1.00
C128   C     0.45992   0.98830   0.69080   0.01267  Uiso   1.00
C129   C     0.45992   0.29750   0.98830   0.01267  Uiso   1.00
C130   C     0.81760   0.96990   0.22810   0.01267  Uiso   1.00
C131   C     0.28990   0.65400   0.98850   0.01267  Uiso   1.00
C132   C     0.74550   0.33670   0.28860   0.01267  Uiso   1.00
C133   C     0.25450   0.71140   0.04810   0.01267  Uiso   1.00
C134   C     0.71010   0.98850   0.33450   0.01267  Uiso   1.00
C135   C     0.24760   0.53060   0.53250   0.01267  Uiso   1.00
C136   C     0.32360   0.99740   0.55030   0.01267  Uiso   1.00
C137   C     0.86540   0.16510   0.20450   0.01267  Uiso   1.00
C138   C     0.56960   0.99310   0.63460   0.01267  Uiso   1.00
C139   C     0.27150   0.91960   0.27910   0.01267  Uiso   1.00
C140   C     0.78210   0.68430   0.91030   0.01267  Uiso   1.00
C141   C     0.24760   0.00190   0.46940   0.01267  Uiso   1.00
C142   C     0.18240   0.22810   0.25820   0.01267  Uiso   1.00
C143   C     0.56960   0.63460   0.64150   0.01267  Uiso   1.00
C144   C     0.78210   0.91030   0.22600   0.01267  Uiso   1.00
N1     N     0.50000   0.58920   0.99500   0.01267  Uiso   1.00
N2     N     0.50000   0.41080   0.00500   0.01267  Uiso   1.00
N3     N     0.50000   0.59420   0.58920   0.01267  Uiso   1.00
N4     N     0.61330   0.50000   0.50000   0.01267  Uiso   1.00
N5     N     0.38670   0.50000  -0.00000   0.01267  Uiso   1.00
N6     N     0.50000   0.40580   0.41080   0.01267  Uiso   1.00
N7     N     0.50000   0.99500   0.40580   0.01267  Uiso   1.00
N8     N     0.50000   0.00500   0.59420   0.01267  Uiso   1.00
N9     N     0.38670   0.50000   0.50000   0.01267  Uiso   1.00
N10    N     0.61330   0.00000   0.50000   0.01267  Uiso   1.00
N11    N     0.38670   0.00000   0.50000   0.01267  Uiso   1.00
N12    N     0.61330   0.50000   0.00000   0.01267  Uiso   1.00
O1     O     0.07590   0.99840   0.81520   0.01267  Uiso   1.00
O2     O     0.92410   0.18320   0.99840   0.01267  Uiso   1.00
O3     O     0.07590   0.81520   0.81680   0.01267  Uiso   1.00
O4     O     0.13760   0.09790   0.17510   0.01267  Uiso   1.00
O5     O     0.86240   0.09790   0.17510   0.01267  Uiso   1.00
O6     O     0.07590   0.81680   0.00160   0.01267  Uiso   1.00
O7     O     0.86240   0.92280   0.09790   0.01267  Uiso   1.00
O8     O     0.13760   0.17510   0.07720   0.01267  Uiso   1.00
O9     O     0.92410   0.18480   0.18320   0.01267  Uiso   1.00
O10    O     0.86240   0.90210   0.82490   0.01267  Uiso   1.00
O11    O     0.07590   0.00160   0.18480   0.01267  Uiso   1.00
O12    O     0.92410   0.99840   0.81520   0.01267  Uiso   1.00
O13    O     0.92410   0.00160   0.18480   0.01267  Uiso   1.00
O14    O     0.92410   0.81520   0.81680   0.01267  Uiso   1.00
O15    O     0.07590   0.18320   0.99840   0.01267  Uiso   1.00
O16    O     0.13760   0.82490   0.92280   0.01267  Uiso   1.00
O17    O     0.92410   0.81680   0.00160   0.01267  Uiso   1.00
O18    O     0.13760   0.07720   0.90210   0.01267  Uiso   1.00
O19    O     0.86240   0.07720   0.90210   0.01267  Uiso   1.00
O20    O     0.86240   0.82490   0.92280   0.01267  Uiso   1.00
O21    O     0.07590   0.18480   0.18320   0.01267  Uiso   1.00
O22    O     0.13760   0.90210   0.82490   0.01267  Uiso   1.00
O23    O     0.13760   0.92280   0.09790   0.01267  Uiso   1.00
O24    O     0.86240   0.17510   0.07720   0.01267  Uiso   1.00
