data_ja5b02777_si_008_freeONLY
_audit_creation_date              2015-08-19
_audit_creation_method            'Materials Studio'
_symmetry_space_group_name_H-M    'P1'
_symmetry_Int_Tables_number       1
_symmetry_cell_setting            triclinic
loop_
_symmetry_equiv_pos_as_xyz
  x,y,z
_cell_length_a                    8.4730
_cell_length_b                    8.8703
_cell_length_c                    15.9613
_cell_angle_alpha                 88.1130
_cell_angle_beta                  75.3490
_cell_angle_gamma                 68.2850
loop_
_atom_site_label
_atom_site_type_symbol
_atom_site_fract_x
_atom_site_fract_y
_atom_site_fract_z
_atom_site_U_iso_or_equiv
_atom_site_adp_type
_atom_site_occupancy
Li1    Li    0.85020   0.79840   0.62670   0.01267  Uiso   1.00
Li2    Li    0.51810   0.79770   0.64660   0.01267  Uiso   1.00
Li3    Li    0.17500   0.81160   0.67540   0.01267  Uiso   1.00
Li4    Li    0.51260   0.80550   0.15050   0.01267  Uiso   1.00
Zr1    Zr    0.39310   0.26860   0.41320   0.01267  Uiso   1.00
Zr2    Zr    0.63030   0.34140   0.88900   0.01267  Uiso   1.00
C1     C     0.36180   0.02060   0.54910   0.01267  Uiso   1.00
C2     C     0.34500   0.05480   0.28180   0.01267  Uiso   1.00
C3     C     0.67820   0.55560   0.02020   0.01267  Uiso   1.00
C4     C     0.98320   0.06850   0.80020   0.01267  Uiso   1.00
C5     C     0.84780   0.05170   0.75630   0.01267  Uiso   1.00
C6     C     0.37690   0.17280   0.98150   0.01267  Uiso   1.00
C7     C     0.53790   0.10280   0.01980   0.01267  Uiso   1.00
C8     C     0.17540   0.55900   0.54560   0.01267  Uiso   1.00
C9     C     0.53810   0.03590   0.54700   0.01267  Uiso   1.00
C10    C     0.48030   0.62380   0.02510   0.01267  Uiso   1.00
C11    C     0.64690   0.43680   0.32070   0.01267  Uiso   1.00
C12    C     0.66370   0.58720   0.75210   0.01267  Uiso   1.00
C13    C     0.48590   0.50700   0.28240   0.01267  Uiso   1.00
C14    C     0.03990   0.54080   0.50220   0.01267  Uiso   1.00
C15    C     0.48740   0.57250   0.75400   0.01267  Uiso   1.00
C16    C     0.54270   0.98570   0.27750   0.01267  Uiso   1.00
O1     O     0.58530   0.06250   0.33070   0.01267  Uiso   1.00
O2     O     0.46870   0.61370   0.23100   0.01267  Uiso   1.00
O3     O     0.37240   0.43640   0.31180   0.01267  Uiso   1.00
O4     O     0.64440   0.86870   0.22620   0.01267  Uiso   1.00
O5     O     0.62910   0.94810   0.59390   0.01267  Uiso   1.00
O6     O     0.44950   0.47150   0.80590   0.01267  Uiso   1.00
O7     O     0.28640   0.98810   0.23700   0.01267  Uiso   1.00
O8     O     0.76670   0.42750   0.96690   0.01267  Uiso   1.00
O9     O     0.69170   0.15780   0.78340   0.01267  Uiso   1.00
O10    O     0.70740   0.68860   0.70540   0.01267  Uiso   1.00
O11    O     0.43770   0.54660   0.97210   0.01267  Uiso   1.00
O12    O     0.10550   0.42010   0.44460   0.01267  Uiso   1.00
O13    O     0.91790   0.18920   0.85780   0.01267  Uiso   1.00
O14    O     0.88470   0.63810   0.52430   0.01267  Uiso   1.00
O15    O     0.33170   0.45350   0.51830   0.01267  Uiso   1.00
O16    O     0.55530   0.99590   0.07110   0.01267  Uiso   1.00
O17    O     0.24720   0.13560   0.00750   0.01267  Uiso   1.00
O18    O     0.77660   0.47410   0.29480   0.01267  Uiso   1.00
O19    O     0.65120   0.17360   0.99050   0.01267  Uiso   1.00
O20    O     0.37850   0.74050   0.07650   0.01267  Uiso   1.00
O21    O     0.75030   0.49100   0.80030   0.01267  Uiso   1.00
O22    O     0.13790   0.97040   0.77830   0.01267  Uiso   1.00
O23    O     0.90140   0.93890   0.69890   0.01267  Uiso   1.00
O24    O     0.12170   0.67210   0.60290   0.01267  Uiso   1.00
O25    O     0.25670   0.18270   0.33520   0.01267  Uiso   1.00
O26    O     0.62800   0.33680   0.38040   0.01267  Uiso   1.00
O27    O     0.73690   0.62290   0.06460   0.01267  Uiso   1.00
O28    O     0.39840   0.65800   0.70560   0.01267  Uiso   1.00
O29    O     0.27360   0.11850   0.50200   0.01267  Uiso   1.00
O30    O     0.57370   0.13940   0.49650   0.01267  Uiso   1.00
O31    O     0.39600   0.27240   0.92160   0.01267  Uiso   1.00
O32    O     0.32000   0.91730   0.59480   0.01267  Uiso   1.00
