data_ja5b02556_si_002_freeONLY
_audit_creation_date              2015-08-19
_audit_creation_method            'Materials Studio'
_symmetry_space_group_name_H-M    'P1'
_symmetry_Int_Tables_number       1
_symmetry_cell_setting            triclinic
loop_
_symmetry_equiv_pos_as_xyz
  x,y,z
_cell_length_a                    5.1594
_cell_length_b                    11.0274
_cell_length_c                    15.2740
_cell_angle_alpha                 83.3100
_cell_angle_beta                  87.6570
_cell_angle_gamma                 83.1280
loop_
_atom_site_label
_atom_site_type_symbol
_atom_site_fract_x
_atom_site_fract_y
_atom_site_fract_z
_atom_site_U_iso_or_equiv
_atom_site_adp_type
_atom_site_occupancy
Ca1    Ca    0.00000   0.00000   0.00000   0.01267  Uiso   1.00
H1     H     0.50060   0.73950   0.39250   0.01267  Uiso   1.00
H2     H     0.65160   0.15160   0.73730   0.01267  Uiso   1.00
H3     H     0.96460   0.71080   0.48420   0.01267  Uiso   1.00
H4     H     0.03540   0.28920   0.51580   0.01267  Uiso   1.00
H5     H     0.89690   0.42070   0.74140   0.01267  Uiso   1.00
H6     H     0.41310   0.17820   0.07040   0.01267  Uiso   1.00
H7     H     0.85020   0.76510   0.62940   0.01267  Uiso   1.00
H8     H     0.96510   0.69600   0.13100   0.01267  Uiso   1.00
H9     H     0.58690   0.82180   0.92960   0.01267  Uiso   1.00
H10    H     0.14980   0.23490   0.37060   0.01267  Uiso   1.00
H11    H     0.03490   0.30400   0.86900   0.01267  Uiso   1.00
H12    H     0.50270   0.47100   0.33110   0.01267  Uiso   1.00
H13    H     0.39790   0.36790   0.21720   0.01267  Uiso   1.00
H14    H     0.95240   0.86760   0.74390   0.01267  Uiso   1.00
H15    H     0.49730   0.52900   0.66890   0.01267  Uiso   1.00
H16    H     0.10310   0.57930   0.25860   0.01267  Uiso   1.00
H17    H     0.49940   0.26050   0.60750   0.01267  Uiso   1.00
H18    H     0.34840   0.84840   0.26270   0.01267  Uiso   1.00
H19    H     0.60210   0.63210   0.78280   0.01267  Uiso   1.00
H20    H     0.04760   0.13240   0.25610   0.01267  Uiso   1.00
C1     C     0.55130   0.34180   0.24732   0.01267  Uiso   1.00
C2     C     0.02050   0.37460   0.50945   0.01267  Uiso   1.00
C3     C     0.97950   0.62540   0.49055   0.01267  Uiso   1.00
C4     C     0.49800   0.20500   0.73822   0.01267  Uiso   1.00
C5     C     0.44870   0.65820   0.75268   0.01267  Uiso   1.00
C6     C     0.92280   0.43792   0.43106   0.01267  Uiso   1.00
C7     C     0.18500   0.35600   0.66135   0.01267  Uiso   1.00
C8     C     0.38580   0.59620   0.68448   0.01267  Uiso   1.00
C9     C     0.53550   0.84980   0.09802   0.01267  Uiso   1.00
C10    C     0.46450   0.15020   0.90198   0.01267  Uiso   1.00
C11    C     0.15730   0.63353   0.63892   0.01267  Uiso   1.00
C12    C     0.66130   0.17940   0.14579   0.01267  Uiso   1.00
C13    C     0.86760   0.70300   0.18308   0.01267  Uiso   1.00
C14    C     0.99980   0.73700   0.66113   0.01267  Uiso   1.00
C15    C     0.33870   0.82060   0.85421   0.01267  Uiso   1.00
C16    C     0.09660   0.43266   0.57848   0.01267  Uiso   1.00
C17    C     0.04860   0.36610   0.74008   0.01267  Uiso   1.00
C18    C     0.00020   0.26300   0.33887   0.01267  Uiso   1.00
C19    C     0.13240   0.29700   0.81692   0.01267  Uiso   1.00
C20    C     0.71450   0.24105   0.22321   0.01267  Uiso   1.00
C21    C     0.93860   0.20110   0.27050   0.01267  Uiso   1.00
C22    C     0.50200   0.79500   0.26178   0.01267  Uiso   1.00
C23    C     0.63890   0.78300   0.18300   0.01267  Uiso   1.00
C24    C     0.07720   0.56208   0.56894   0.01267  Uiso   1.00
C25    C     0.06140   0.79890   0.72950   0.01267  Uiso   1.00
C26    C     0.95140   0.63390   0.25992   0.01267  Uiso   1.00
C27    C     0.40920   0.27190   0.66040   0.01267  Uiso   1.00
C28    C     0.59080   0.72810   0.33960   0.01267  Uiso   1.00
C29    C     0.84270   0.36647   0.36108   0.01267  Uiso   1.00
C30    C     0.28550   0.75895   0.77679   0.01267  Uiso   1.00
C31    C     0.81500   0.64400   0.33865   0.01267  Uiso   1.00
C32    C     0.61420   0.40380   0.31552   0.01267  Uiso   1.00
C33    C     0.90340   0.56734   0.42152   0.01267  Uiso   1.00
C34    C     0.36110   0.21700   0.81700   0.01267  Uiso   1.00
O1     O     0.30480   0.14197   0.96794   0.01267  Uiso   1.00
O2     O     0.30170   0.89042   0.09577   0.01267  Uiso   1.00
O3     O     0.81820   0.10184   0.11675   0.01267  Uiso   1.00
O4     O     0.69830   0.10958   0.90423   0.01267  Uiso   1.00
O5     O     0.69520   0.85803   0.03206   0.01267  Uiso   1.00
O6     O     0.56860   0.78465   0.88719   0.01267  Uiso   1.00
O7     O     0.18180   0.89816   0.88325   0.01267  Uiso   1.00
O8     O     0.43140   0.21535   0.11281   0.01267  Uiso   1.00
