data_ja5b02777_si_005_freeONLY
_audit_creation_date              2015-08-19
_audit_creation_method            'Materials Studio'
_symmetry_space_group_name_H-M    'P1'
_symmetry_Int_Tables_number       1
_symmetry_cell_setting            triclinic
loop_
_symmetry_equiv_pos_as_xyz
  x,y,z
_cell_length_a                    8.5302
_cell_length_b                    8.5902
_cell_length_c                    16.1582
_cell_angle_alpha                 89.3090
_cell_angle_beta                  78.0040
_cell_angle_gamma                 68.8120
loop_
_atom_site_label
_atom_site_type_symbol
_atom_site_fract_x
_atom_site_fract_y
_atom_site_fract_z
_atom_site_U_iso_or_equiv
_atom_site_adp_type
_atom_site_occupancy
Li1    Li    0.85200   0.78200   0.62130   0.01267  Uiso   1.00
Li2    Li    0.17500   0.81500   0.67800   0.01267  Uiso   1.00
Li3    Li    0.52300   0.79500   0.15000   0.01267  Uiso   1.00
Li4    Li    0.53080   0.75800   0.62220   0.01267  Uiso   1.00
Zr1    Zr    0.40307   0.26220   0.41405   0.01267  Uiso   1.00
Zr2    Zr    0.62219   0.34240   0.88835   0.01267  Uiso   1.00
H1     H     0.68200   0.57990   0.49420   0.01267  Uiso   1.00
H2     H     0.55610   0.72720   0.47120   0.01267  Uiso   1.00
C1     C     0.18400   0.56250   0.53960   0.01267  Uiso   1.00
C2     C     0.55400   0.98290   0.28130   0.01267  Uiso   1.00
C3     C     0.67850   0.56080   0.74370   0.01267  Uiso   1.00
C4     C     0.66440   0.57930   0.01980   0.01267  Uiso   1.00
C5     C     0.05840   0.54650   0.49110   0.01267  Uiso   1.00
C6     C     0.50900   0.48000   0.27950   0.01267  Uiso   1.00
C7     C     0.83420   0.03900   0.76100   0.01267  Uiso   1.00
C8     C     0.47500   0.63400   0.02630   0.01267  Uiso   1.00
C9     C     0.48850   0.56840   0.75100   0.01267  Uiso   1.00
C10    C     0.96570   0.06000   0.81070   0.01267  Uiso   1.00
C11    C     0.53800   0.03240   0.54990   0.01267  Uiso   1.00
C12    C     0.66170   0.42410   0.32570   0.01267  Uiso   1.00
C13    C     0.50500   0.14700   0.02860   0.01267  Uiso   1.00
C14    C     0.35480   0.03710   0.55900   0.01267  Uiso   1.00
C15    C     0.34690   0.04800   0.29160   0.01267  Uiso   1.00
C16    C     0.36700   0.19800   0.97660   0.01267  Uiso   1.00
O1     O     0.39380   0.42280   0.30940   0.01267  Uiso   1.00
O2     O     0.29560   0.95800   0.61150   0.01267  Uiso   1.00
O3     O     0.63770   0.18570   0.99220   0.01267  Uiso   1.00
O4     O     0.65030   0.86590   0.22640   0.01267  Uiso   1.00
O5     O     0.39770   0.65830   0.70770   0.01267  Uiso   1.00
O6     O     0.13170   0.67950   0.59790   0.01267  Uiso   1.00
O7     O     0.39670   0.27020   0.91130   0.01267  Uiso   1.00
O8     O     0.68250   0.14620   0.78590   0.01267  Uiso   1.00
O9     O     0.22780   0.16620   0.00090   0.01267  Uiso   1.00
O10    O     0.44730   0.47630   0.80550   0.01267  Uiso   1.00
O11    O     0.33960   0.46270   0.51590   0.01267  Uiso   1.00
O12    O     0.27050   0.15780   0.33960   0.01267  Uiso   1.00
O13    O     0.89130   0.93200   0.70470   0.01267  Uiso   1.00
O14    O     0.49710   0.07200   0.09140   0.01267  Uiso   1.00
O15    O     0.11490   0.96430   0.79300   0.01267  Uiso   1.00
O16    O     0.57950   0.12490   0.49580   0.01267  Uiso   1.00
O17    O     0.30120   0.96110   0.24490   0.01267  Uiso   1.00
O18    O     0.75780   0.46860   0.79420   0.01267  Uiso   1.00
O19    O     0.72940   0.64230   0.06040   0.01267  Uiso   1.00
O20    O     0.57340   0.65320   0.51140   0.01267  Uiso   1.00
O21    O     0.50540   0.56460   0.22150   0.01267  Uiso   1.00
O22    O     0.27400   0.13750   0.51000   0.01267  Uiso   1.00
O23    O     0.12540   0.42420   0.43410   0.01267  Uiso   1.00
O24    O     0.62810   0.94100   0.59530   0.01267  Uiso   1.00
O25    O     0.62650   0.34180   0.39000   0.01267  Uiso   1.00
O26    O     0.78340   0.45280   0.30410   0.01267  Uiso   1.00
O27    O     0.90300   0.18090   0.86700   0.01267  Uiso   1.00
O28    O     0.72970   0.64470   0.69020   0.01267  Uiso   1.00
O29    O     0.59460   0.06000   0.32980   0.01267  Uiso   1.00
O30    O     0.90980   0.64560   0.50970   0.01267  Uiso   1.00
O31    O     0.43290   0.55020   0.96970   0.01267  Uiso   1.00
O32    O     0.75930   0.44440   0.95850   0.01267  Uiso   1.00
O33    O     0.37660   0.73710   0.07820   0.01267  Uiso   1.00
