data_ja5b02777_si_004_freeONLY
_audit_creation_date              2015-08-19
_audit_creation_method            'Materials Studio'
_symmetry_space_group_name_H-M    'P1'
_symmetry_Int_Tables_number       1
_symmetry_cell_setting            triclinic
loop_
_symmetry_equiv_pos_as_xyz
  x,y,z
_cell_length_a                    8.4752
_cell_length_b                    8.4797
_cell_length_c                    16.1725
_cell_angle_alpha                 78.1770
_cell_angle_beta                  89.2320
_cell_angle_gamma                 69.3340
loop_
_atom_site_label
_atom_site_type_symbol
_atom_site_fract_x
_atom_site_fract_y
_atom_site_fract_z
_atom_site_U_iso_or_equiv
_atom_site_adp_type
_atom_site_occupancy
Li1    Li    0.76000   0.58000   0.37400   0.01267  Uiso   1.00
Li2    Li    0.79600   0.90100   0.43470   0.01267  Uiso   1.00
Li3    Li    0.75800   0.24300   0.90880   0.01267  Uiso   1.00
Li4    Li    0.81300   0.22600   0.42770   0.01267  Uiso   1.00
Zr1    Zr    0.23713   0.12979   0.16443   0.01267  Uiso   1.00
Zr2    Zr    0.31408   0.34442   0.64019   0.01267  Uiso   1.00
H1     H     0.99510   0.23580   0.54850   0.01267  Uiso   1.00
H2     H     0.83630   0.21230   0.58540   0.01267  Uiso   1.00
C1     C     0.01030   0.55840   0.51510   0.01267  Uiso   1.00
C2     C     0.00970   0.26610   0.30120   0.01267  Uiso   1.00
C3     C     0.53870   0.21280   0.50110   0.01267  Uiso   1.00
C4     C     0.53510   0.39490   0.49210   0.01267  Uiso   1.00
C5     C     0.54150   0.91030   0.29090   0.01267  Uiso   1.00
C6     C     0.00060   0.08320   0.03760   0.01267  Uiso   1.00
C7     C     0.02240   0.06990   0.31150   0.01267  Uiso   1.00
C8     C     0.95020   0.27700   0.03180   0.01267  Uiso   1.00
C9     C     0.15700   0.08400   0.73030   0.01267  Uiso   1.00
C10    C     0.39120   0.38900   0.07500   0.01267  Uiso   1.00
C11    C     0.11400   0.23000   0.78120   0.01267  Uiso   1.00
C12    C     0.03160   0.69150   0.56450   0.01267  Uiso   1.00
C13    C     0.54800   0.39300   0.76500   0.01267  Uiso   1.00
C14    C     0.51960   0.78460   0.24080   0.01267  Uiso   1.00
C15    C     0.60610   0.19150   0.77540   0.01267  Uiso   1.00
C16    C     0.44730   0.24400   0.02530   0.01267  Uiso   1.00
O1     O     0.89470   0.61970   0.45680   0.01267  Uiso   1.00
O2     O     0.52000   0.15140   0.72050   0.01267  Uiso   1.00
O3     O     0.61110   0.45620   0.43780   0.01267  Uiso   1.00
O4     O     0.12700   0.95520   0.75330   0.01267  Uiso   1.00
O5     O     0.42050   0.52300   0.04990   0.01267  Uiso   1.00
O6     O     0.22890   0.12160   0.66560   0.01267  Uiso   1.00
O7     O     0.12770   0.99420   0.09430   0.01267  Uiso   1.00
O8     O     0.93110   0.84040   0.54680   0.01267  Uiso   1.00
O9     O     0.63360   0.11680   0.45720   0.01267  Uiso   1.00
O10    O     0.92360   0.35320   0.34640   0.01267  Uiso   1.00
O11    O     0.83760   0.37910   0.97560   0.01267  Uiso   1.00
O12    O     0.16210   0.35250   0.74780   0.01267  Uiso   1.00
O13    O     0.65130   0.85580   0.34720   0.01267  Uiso   1.00
O14    O     0.01520   0.23490   0.83680   0.01267  Uiso   1.00
O15    O     0.15120   0.62410   0.62220   0.01267  Uiso   1.00
O16    O     0.39760   0.11460   0.05990   0.01267  Uiso   1.00
O17    O     0.50420   0.26150   0.95650   0.01267  Uiso   1.00
O18    O     0.11260   0.40740   0.53990   0.01267  Uiso   1.00
O19    O     0.43360   0.47840   0.54390   0.01267  Uiso   1.00
O20    O     0.44150   0.06620   0.26590   0.01267  Uiso   1.00
O21    O     0.10410   0.30250   0.24820   0.01267  Uiso   1.00
O22    O     0.39980   0.85010   0.18300   0.01267  Uiso   1.00
O23    O     0.63050   0.45100   0.80740   0.01267  Uiso   1.00
O24    O     0.31450   0.35370   0.14450   0.01267  Uiso   1.00
O25    O     0.91380   0.17960   0.54010   0.01267  Uiso   1.00
O26    O     0.44720   0.16510   0.55830   0.01267  Uiso   1.00
O27    O     0.71450   0.09810   0.82690   0.01267  Uiso   1.00
O28    O     0.03350   0.32080   0.08080   0.01267  Uiso   1.00
O29    O     0.11040   0.99510   0.26120   0.01267  Uiso   1.00
O30    O     0.93560   0.01970   0.36560   0.01267  Uiso   1.00
O31    O     0.92940   0.02770   0.99670   0.01267  Uiso   1.00
O32    O     0.42420   0.47780   0.71180   0.01267  Uiso   1.00
O33    O     0.61110   0.63110   0.25920   0.01267  Uiso   1.00
