data_ja905009e_si_002_freeONLY
_audit_creation_date              2015-08-19
_audit_creation_method            'Materials Studio'
_symmetry_space_group_name_H-M    'P1'
_symmetry_Int_Tables_number       1
_symmetry_cell_setting            triclinic
loop_
_symmetry_equiv_pos_as_xyz
  x,y,z
_cell_length_a                    15.0956
_cell_length_b                    15.5069
_cell_length_c                    25.7271
_cell_angle_alpha                 81.8967
_cell_angle_beta                  73.1662
_cell_angle_gamma                 60.8735
loop_
_atom_site_label
_atom_site_type_symbol
_atom_site_fract_x
_atom_site_fract_y
_atom_site_fract_z
_atom_site_U_iso_or_equiv
_atom_site_adp_type
_atom_site_occupancy
Zn1    Zn    0.39406   0.42180   0.82973   0.01267  Uiso   1.00
Zn2    Zn    0.18414   0.42180   0.67027   0.01267  Uiso   1.00
Zn3    Zn    0.28443   0.08146   0.83878   0.01267  Uiso   1.00
Zn4    Zn    0.71557   0.91854   0.16122   0.01267  Uiso   1.00
Zn5    Zn    0.63411   0.08146   0.66122   0.01267  Uiso   1.00
Zn6    Zn    0.36589   0.91854   0.33878   0.01267  Uiso   1.00
Zn7    Zn    0.60594   0.57820   0.17027   0.01267  Uiso   1.00
Zn8    Zn    0.81586   0.57820   0.32973   0.01267  Uiso   1.00
Mo1    Mo    0.58429   0.81934   0.11238   0.01267  Uiso   1.00
Mo2    Mo    0.15342   0.50628   0.79872   0.01267  Uiso   1.00
Mo3    Mo    0.41571   0.18066   0.88762   0.01267  Uiso   1.00
Mo4    Mo    0.55856   0.00208   0.29181   0.01267  Uiso   1.00
Mo5    Mo    0.84658   0.49372   0.20128   0.01267  Uiso   1.00
Mo6    Mo    0.45733   0.31830   0.60879   0.01267  Uiso   1.00
Mo7    Mo    0.40363   0.18066   0.61238   0.01267  Uiso   1.00
Mo8    Mo    0.09151   0.32226   0.79539   0.01267  Uiso   1.00
Mo9    Mo    0.18988   0.18496   0.72139   0.01267  Uiso   1.00
Mo10   Mo    0.54267   0.68170   0.39121   0.01267  Uiso   1.00
Mo11   Mo    0.77563   0.68170   0.10879   0.01267  Uiso   1.00
Mo12   Mo    0.59637   0.81934   0.38762   0.01267  Uiso   1.00
Mo13   Mo    0.22437   0.31830   0.89121   0.01267  Uiso   1.00
Mo14   Mo    0.90849   0.67774   0.20461   0.01267  Uiso   1.00
Mo15   Mo    0.56064   0.99792   0.79181   0.01267  Uiso   1.00
Mo16   Mo    0.34030   0.50628   0.70128   0.01267  Uiso   1.00
Mo17   Mo    0.41377   0.67774   0.29539   0.01267  Uiso   1.00
Mo18   Mo    0.81012   0.81504   0.27861   0.01267  Uiso   1.00
Mo19   Mo    0.58623   0.32226   0.70461   0.01267  Uiso   1.00
Mo20   Mo    0.62516   0.18496   0.77861   0.01267  Uiso   1.00
Mo21   Mo    0.37484   0.81504   0.22139   0.01267  Uiso   1.00
Mo22   Mo    0.65970   0.49372   0.29872   0.01267  Uiso   1.00
Mo23   Mo    0.43936   0.00208   0.20819   0.01267  Uiso   1.00
Mo24   Mo    0.44144   0.99792   0.70819   0.01267  Uiso   1.00
H1     H     0.60490   0.33580   0.97540   0.01267  Uiso   1.00
H2     H     0.04260   0.10320   0.43550   0.01267  Uiso   1.00
H3     H     0.04370   0.83560   0.99620   0.01267  Uiso   1.00
H4     H     0.62450   0.39740   0.04620   0.01267  Uiso   1.00
H5     H     0.14580   0.89680   0.93550   0.01267  Uiso   1.00
H6     H     0.95630   0.16440   0.00380   0.01267  Uiso   1.00
H7     H     0.02190   0.60260   0.54620   0.01267  Uiso   1.00
H8     H     0.12070   0.83560   0.50380   0.01267  Uiso   1.00
H9     H     0.95740   0.89680   0.56450   0.01267  Uiso   1.00
H10    H     0.85420   0.10320   0.06450   0.01267  Uiso   1.00
H11    H     0.94070   0.66420   0.47540   0.01267  Uiso   1.00
H12    H     0.05930   0.33580   0.52460   0.01267  Uiso   1.00
H13    H     0.39510   0.66420   0.02460   0.01267  Uiso   1.00
H14    H     0.87930   0.16440   0.49620   0.01267  Uiso   1.00
H15    H     0.37550   0.60260   0.95380   0.01267  Uiso   1.00
H16    H     0.97810   0.39740   0.45380   0.01267  Uiso   1.00
C1     C     0.97389   0.09822   0.00223   0.01267  Uiso   1.00
C2     C     0.43720   0.59800   0.01505   0.01267  Uiso   1.00
C3     C     0.02575   0.06150   0.46134   0.01267  Uiso   1.00
C4     C     0.20362   0.91896   0.42281   0.01267  Uiso   1.00
C5     C     0.92789   0.09822   0.49777   0.01267  Uiso   1.00
C6     C     0.51056   0.53648   0.04331   0.01267  Uiso   1.00
C7     C     0.01290   0.56100   0.52792   0.01267  Uiso   1.00
C8     C     0.06179   0.03662   0.96318   0.01267  Uiso   1.00
C9     C     0.98710   0.43900   0.47208   0.01267  Uiso   1.00
C10    C     0.04704   0.46352   0.54331   0.01267  Uiso   1.00
C11    C     0.90050   0.57880   0.41119   0.01267  Uiso   1.00
C12    C     0.93821   0.96338   0.03682   0.01267  Uiso   1.00
C13    C     0.57390   0.43900   0.02792   0.01267  Uiso   1.00
C14    C     0.47930   0.42120   0.91119   0.01267  Uiso   1.00
C15    C     0.42610   0.56100   0.97208   0.01267  Uiso   1.00
C16    C     0.90159   0.03662   0.53682   0.01267  Uiso   1.00
C17    C     0.79638   0.08104   0.57719   0.01267  Uiso   1.00
C18    C     0.56280   0.40200   0.98495   0.01267  Uiso   1.00
C19    C     0.09841   0.96338   0.46318   0.01267  Uiso   1.00
C20    C     0.02611   0.90178   0.99777   0.01267  Uiso   1.00
C21    C     0.09950   0.42120   0.58881   0.01267  Uiso   1.00
C22    C     0.07211   0.90178   0.50223   0.01267  Uiso   1.00
C23    C     0.03520   0.40200   0.51505   0.01267  Uiso   1.00
C24    C     0.97425   0.93850   0.53866   0.01267  Uiso   1.00
C25    C     0.48944   0.46352   0.95669   0.01267  Uiso   1.00
C26    C     0.12258   0.08104   0.92281   0.01267  Uiso   1.00
C27    C     0.91275   0.06150   0.03866   0.01267  Uiso   1.00
C28    C     0.52070   0.57880   0.08881   0.01267  Uiso   1.00
C29    C     0.87742   0.91896   0.07719   0.01267  Uiso   1.00
C30    C     0.95296   0.53648   0.45669   0.01267  Uiso   1.00
C31    C     0.08725   0.93850   0.96134   0.01267  Uiso   1.00
C32    C     0.96480   0.59800   0.48495   0.01267  Uiso   1.00
O1     O     0.46312   0.04076   0.63862   0.01267  Uiso   1.00
O2     O     0.07812   0.62916   0.80680   0.01267  Uiso   1.00
O3     O     0.29272   0.62916   0.69320   0.01267  Uiso   1.00
O4     O     0.57788   0.98844   0.21254   0.01267  Uiso   1.00
O5     O     0.16571   0.45978   0.86663   0.01267  Uiso   1.00
O6     O     0.08908   0.17144   0.71734   0.01267  Uiso   1.00
O7     O     0.79358   0.97884   0.11109   0.01267  Uiso   1.00
O8     O     0.43368   0.98844   0.28746   0.01267  Uiso   1.00
O9     O     0.32030   0.32330   0.62556   0.01267  Uiso   1.00
O10    O     0.29827   0.49300   0.78269   0.01267  Uiso   1.00
O11    O     0.34416   0.95628   0.22197   0.01267  Uiso   1.00
O12    O     0.36744   0.12552   0.20288   0.01267  Uiso   1.00
O13    O     0.79127   0.50700   0.28269   0.01267  Uiso   1.00
O14    O     0.70173   0.50700   0.21731   0.01267  Uiso   1.00
O15    O     0.50704   0.12552   0.29712   0.01267  Uiso   1.00
O16    O     0.67970   0.67670   0.37444   0.01267  Uiso   1.00
O17    O     0.44309   0.81782   0.14017   0.01267  Uiso   1.00
O18    O     0.93654   0.53678   0.20623   0.01267  Uiso   1.00
O19    O     0.70728   0.37084   0.30680   0.01267  Uiso   1.00
O20    O     0.48940   0.33400   0.54182   0.01267  Uiso   1.00
O21    O     0.40889   0.16602   0.95353   0.01267  Uiso   1.00
O22    O     0.77242   0.02116   0.61109   0.01267  Uiso   1.00
O23    O     0.10472   0.48176   0.61572   0.01267  Uiso   1.00
O24    O     0.62549   0.54022   0.36663   0.01267  Uiso   1.00
O25    O     0.57491   0.83398   0.45353   0.01267  Uiso   1.00
O26    O     0.26052   0.82856   0.21734   0.01267  Uiso   1.00
O27    O     0.50388   0.95924   0.13862   0.01267  Uiso   1.00
O28    O     0.52988   0.32820   0.78347   0.01267  Uiso   1.00
O29    O     0.63256   0.87448   0.79712   0.01267  Uiso   1.00
O30    O     0.47332   0.46322   0.70623   0.01267  Uiso   1.00
O31    O     0.59111   0.83398   0.04647   0.01267  Uiso   1.00
O32    O     0.73909   0.81782   0.35983   0.01267  Uiso   1.00
O33    O     0.17660   0.33400   0.95818   0.01267  Uiso   1.00
O34    O     0.42212   0.01156   0.78746   0.01267  Uiso   1.00
O35    O     0.64360   0.67670   0.12556   0.01267  Uiso   1.00
O36    O     0.37451   0.45978   0.63337   0.01267  Uiso   1.00
O37    O     0.08868   0.17084   0.92485   0.01267  Uiso   1.00
O38    O     0.55691   0.18218   0.85983   0.01267  Uiso   1.00
O39    O     0.29445   0.17548   0.87862   0.01267  Uiso   1.00
O40    O     0.49612   0.04076   0.86138   0.01267  Uiso   1.00
O41    O     0.56632   0.01156   0.71254   0.01267  Uiso   1.00
O42    O     0.03077   0.66046   0.19252   0.01267  Uiso   1.00
O43    O     0.89528   0.51824   0.38428   0.01267  Uiso   1.00
O44    O     0.46993   0.82452   0.37862   0.01267  Uiso   1.00
O45    O     0.41352   0.48176   0.88428   0.01267  Uiso   1.00
O46    O     0.49296   0.87448   0.70288   0.01267  Uiso   1.00
O47    O     0.25952   0.82916   0.42485   0.01267  Uiso   1.00
O48    O     0.92188   0.37084   0.19320   0.01267  Uiso   1.00
O49    O     0.73948   0.17144   0.78266   0.01267  Uiso   1.00
O50    O     0.51060   0.66600   0.45818   0.01267  Uiso   1.00
O51    O     0.46495   0.66770   0.09696   0.01267  Uiso   1.00
O52    O     0.20873   0.49300   0.71731   0.01267  Uiso   1.00
O53    O     0.86735   0.66770   0.40304   0.01267  Uiso   1.00
O54    O     0.36136   0.82072   0.29853   0.01267  Uiso   1.00
O55    O     0.41915   0.68034   0.37365   0.01267  Uiso   1.00
O56    O     0.83429   0.54022   0.13337   0.01267  Uiso   1.00
O57    O     0.06346   0.46322   0.79377   0.01267  Uiso   1.00
O58    O     0.09949   0.31966   0.87365   0.01267  Uiso   1.00
O59    O     0.26091   0.18218   0.64017   0.01267  Uiso   1.00
O60    O     0.91132   0.82916   0.07515   0.01267  Uiso   1.00
O61    O     0.20642   0.02116   0.88891   0.01267  Uiso   1.00
O62    O     0.53505   0.33230   0.90304   0.01267  Uiso   1.00
O63    O     0.81792   0.82072   0.20147   0.01267  Uiso   1.00
O64    O     0.82340   0.66600   0.04182   0.01267  Uiso   1.00
O65    O     0.90051   0.68034   0.12635   0.01267  Uiso   1.00
O66    O     0.35640   0.32330   0.87444   0.01267  Uiso   1.00
O67    O     0.18208   0.17928   0.79853   0.01267  Uiso   1.00
O68    O     0.22758   0.97884   0.38891   0.01267  Uiso   1.00
O69    O     0.65584   0.04372   0.77803   0.01267  Uiso   1.00
O70    O     0.69956   0.95628   0.27803   0.01267  Uiso   1.00
O71    O     0.53007   0.17548   0.62138   0.01267  Uiso   1.00
O72    O     0.69123   0.33954   0.69252   0.01267  Uiso   1.00
O73    O     0.85808   0.67180   0.28347   0.01267  Uiso   1.00
O74    O     0.58085   0.31966   0.62635   0.01267  Uiso   1.00
O75    O     0.91092   0.82856   0.28266   0.01267  Uiso   1.00
O76    O     0.70555   0.82452   0.12138   0.01267  Uiso   1.00
O77    O     0.42509   0.16602   0.54647   0.01267  Uiso   1.00
O78    O     0.63864   0.17928   0.70147   0.01267  Uiso   1.00
O79    O     0.30877   0.66046   0.30748   0.01267  Uiso   1.00
O80    O     0.58648   0.51824   0.11572   0.01267  Uiso   1.00
O81    O     0.74048   0.17084   0.57515   0.01267  Uiso   1.00
O82    O     0.14192   0.32820   0.71653   0.01267  Uiso   1.00
O83    O     0.30044   0.04372   0.72197   0.01267  Uiso   1.00
O84    O     0.52668   0.53678   0.29377   0.01267  Uiso   1.00
O85    O     0.96923   0.33954   0.80748   0.01267  Uiso   1.00
O86    O     0.47012   0.67180   0.21653   0.01267  Uiso   1.00
O87    O     0.13265   0.33230   0.59696   0.01267  Uiso   1.00
O88    O     0.53688   0.95924   0.36138   0.01267  Uiso   1.00
