data_ja994186h_freeONLY
_audit_creation_date              2015-08-19
_audit_creation_method            'Materials Studio'
_symmetry_space_group_name_H-M    'P1'
_symmetry_Int_Tables_number       1
_symmetry_cell_setting            triclinic
loop_
_symmetry_equiv_pos_as_xyz
  x,y,z
_cell_length_a                    9.7438
_cell_length_b                    12.3331
_cell_length_c                    16.3262
_cell_angle_alpha                 90.0000
_cell_angle_beta                  90.0000
_cell_angle_gamma                 97.1170
loop_
_atom_site_label
_atom_site_type_symbol
_atom_site_fract_x
_atom_site_fract_y
_atom_site_fract_z
_atom_site_U_iso_or_equiv
_atom_site_adp_type
_atom_site_occupancy
Co1    Co    0.06688   0.41847   0.06867   0.01267  Uiso   1.00
Co2    Co    0.93312   0.58153   0.93133   0.01267  Uiso   1.00
Co3    Co    0.56688   0.91847   0.43133   0.01267  Uiso   1.00
Co4    Co    0.43312   0.08153   0.56867   0.01267  Uiso   1.00
Re1    Re    0.61880   0.89838   0.97873   0.01267  Uiso   1.00
Re2    Re    0.38120   0.10162   0.02127   0.01267  Uiso   1.00
Re3    Re    0.85175   0.39299   0.51099   0.01267  Uiso   1.00
Re4    Re    0.14825   0.60701   0.48901   0.01267  Uiso   1.00
Re5    Re    0.35175   0.89299   0.98901   0.01267  Uiso   1.00
Re6    Re    0.11880   0.39838   0.52127   0.01267  Uiso   1.00
Re7    Re    0.99130   0.53022   0.61041   0.01267  Uiso   1.00
Re8    Re    0.00870   0.46978   0.38959   0.01267  Uiso   1.00
Re9    Re    0.88120   0.60162   0.47873   0.01267  Uiso   1.00
Re10   Re    0.49130   0.03022   0.88959   0.01267  Uiso   1.00
Re11   Re    0.50870   0.96978   0.11041   0.01267  Uiso   1.00
Re12   Re    0.64825   0.10701   0.01099   0.01267  Uiso   1.00
C1     C     0.18720   0.76830   0.97040   0.01267  Uiso   1.00
C2     C     0.74480   0.77560   0.95390   0.01267  Uiso   1.00
C3     C     0.47460   0.06250   0.76400   0.01267  Uiso   1.00
C4     C     0.31280   0.73170   0.47040   0.01267  Uiso   1.00
C5     C     0.97460   0.56250   0.73600   0.01267  Uiso   1.00
C6     C     0.75520   0.72440   0.45390   0.01267  Uiso   1.00
C7     C     0.24480   0.27560   0.54610   0.01267  Uiso   1.00
C8     C     0.68720   0.26830   0.52960   0.01267  Uiso   1.00
C9     C     0.81280   0.23170   0.02960   0.01267  Uiso   1.00
C10    C     0.02540   0.43750   0.26400   0.01267  Uiso   1.00
C11    C     0.25520   0.22440   0.04610   0.01267  Uiso   1.00
C12    C     0.52540   0.93750   0.23600   0.01267  Uiso   1.00
S1     S     0.03390   0.66460   0.36840   0.01267  Uiso   1.00
S2     S     0.01890   0.72090   0.57210   0.01267  Uiso   1.00
S3     S     0.24380   0.02310   0.90820   0.01267  Uiso   1.00
S4     S     0.98110   0.27910   0.42790   0.01267  Uiso   1.00
S5     S     0.48110   0.77910   0.07210   0.01267  Uiso   1.00
S6     S     0.51890   0.22090   0.92790   0.01267  Uiso   1.00
S7     S     0.46610   0.83540   0.86840   0.01267  Uiso   1.00
S8     S     0.53390   0.16460   0.13160   0.01267  Uiso   1.00
S9     S     0.75980   0.46700   0.38830   0.01267  Uiso   1.00
S10    S     0.25620   0.47690   0.40820   0.01267  Uiso   1.00
S11    S     0.74020   0.03300   0.88830   0.01267  Uiso   1.00
S12    S     0.96610   0.33540   0.63160   0.01267  Uiso   1.00
S13    S     0.74380   0.52310   0.59180   0.01267  Uiso   1.00
S14    S     0.24020   0.53300   0.61170   0.01267  Uiso   1.00
S15    S     0.75620   0.97690   0.09180   0.01267  Uiso   1.00
S16    S     0.25980   0.96700   0.11170   0.01267  Uiso   1.00
N1     N     0.19270   0.29690   0.05900   0.01267  Uiso   1.00
N2     N     0.40020   0.80180   0.45580   0.01267  Uiso   1.00
N3     N     0.45820   0.07800   0.69460   0.01267  Uiso   1.00
N4     N     0.09980   0.69820   0.95580   0.01267  Uiso   1.00
N5     N     0.04180   0.42200   0.19460   0.01267  Uiso   1.00
N6     N     0.54180   0.92200   0.30540   0.01267  Uiso   1.00
N7     N     0.69270   0.79690   0.44100   0.01267  Uiso   1.00
N8     N     0.95820   0.57800   0.80540   0.01267  Uiso   1.00
N9     N     0.90020   0.30180   0.04420   0.01267  Uiso   1.00
N10    N     0.80730   0.70310   0.94100   0.01267  Uiso   1.00
N11    N     0.30730   0.20310   0.55900   0.01267  Uiso   1.00
N12    N     0.59980   0.19820   0.54420   0.01267  Uiso   1.00
O1     O     0.74140   0.03860   0.42160   0.01267  Uiso   1.00
O2     O     0.75860   0.46140   0.92160   0.01267  Uiso   1.00
O3     O     0.07260   0.45370   0.93840   0.01267  Uiso   1.00
O4     O     0.25860   0.96140   0.57840   0.01267  Uiso   1.00
O5     O     0.92740   0.54630   0.06160   0.01267  Uiso   1.00
O6     O     0.57260   0.95370   0.56160   0.01267  Uiso   1.00
O7     O     0.24140   0.53860   0.07840   0.01267  Uiso   1.00
O8     O     0.42740   0.04630   0.43840   0.01267  Uiso   1.00
