data_image0
_cell_length_a       20.9119
_cell_length_b       16.5299
_cell_length_c       6.9496
_cell_angle_alpha    90
_cell_angle_beta     98.143
_cell_angle_gamma    90

_symmetry_space_group_name_H-M    "P 1"
_symmetry_int_tables_number       1

loop_
  _symmetry_equiv_pos_as_xyz
  'x, y, z'

loop_
  _atom_site_label
  _atom_site_occupancy
  _atom_site_fract_x
  _atom_site_fract_y
  _atom_site_fract_z
  _atom_site_thermal_displace_type
  _atom_site_B_iso_or_equiv
  _atom_site_type_symbol
  C1       1.0000 0.22200  0.24400  0.16000  Biso   1.000  C
  C2       1.0000 0.27800  0.28200  0.16000  Biso   1.000  C
  C3       1.0000 0.31100  0.28800  0.00000  Biso   1.000  C
  C4       1.0000 0.36200  0.34500  0.00000  Biso   1.000  C
  C5       1.0000 0.37800  0.40300  0.13000  Biso   1.000  C
  C6       1.0000 0.40700  0.34400  0.88000  Biso   1.000  C
  F1       1.0000 0.30600  0.32400  0.32000  Biso   1.000  F
  N1       1.0000 0.43200  0.44000  0.11000  Biso   1.000  N
  N2       1.0000 0.44800  0.40400  0.92000  Biso   1.000  N
  H1       1.0000 0.20256  0.23941  0.29527  Biso   1.000  H
  H2       1.0000 0.34883  0.41849  0.24241  Biso   1.000  H
  H3       1.0000 0.40925  0.29856  0.77187  Biso   1.000  H
  C7       1.0000 0.72200  0.74400  0.16000  Biso   1.000  C
  C8       1.0000 0.77800  0.78200  0.16000  Biso   1.000  C
  C9       1.0000 0.81100  0.78800  0.00000  Biso   1.000  C
  C10      1.0000 0.86200  0.84500  0.00000  Biso   1.000  C
  C11      1.0000 0.87800  0.90300  0.13000  Biso   1.000  C
  C12      1.0000 0.90700  0.84400  0.88000  Biso   1.000  C
  F2       1.0000 0.80600  0.82400  0.32000  Biso   1.000  F
  N3       1.0000 0.93200  0.94000  0.11000  Biso   1.000  N
  N4       1.0000 0.94800  0.90400  0.92000  Biso   1.000  N
  H4       1.0000 0.70256  0.73941  0.29527  Biso   1.000  H
  H5       1.0000 0.84883  0.91849  0.24241  Biso   1.000  H
  H6       1.0000 0.90925  0.79856  0.77187  Biso   1.000  H
  C13      1.0000 0.77800  0.24400  0.34000  Biso   1.000  C
  C14      1.0000 0.72200  0.28200  0.34000  Biso   1.000  C
  C15      1.0000 0.68900  0.28800  0.50000  Biso   1.000  C
  C16      1.0000 0.63800  0.34500  0.50000  Biso   1.000  C
  C17      1.0000 0.62200  0.40300  0.37000  Biso   1.000  C
  C18      1.0000 0.59300  0.34400  0.62000  Biso   1.000  C
  F3       1.0000 0.69400  0.32400  0.18000  Biso   1.000  F
  N5       1.0000 0.56800  0.44000  0.39000  Biso   1.000  N
  N6       1.0000 0.55200  0.40400  0.58000  Biso   1.000  N
  H7       1.0000 0.79744  0.23941  0.20473  Biso   1.000  H
  H8       1.0000 0.65117  0.41849  0.25759  Biso   1.000  H
  H9       1.0000 0.59075  0.29856  0.72813  Biso   1.000  H
  C19      1.0000 0.27800  0.74400  0.34000  Biso   1.000  C
  C20      1.0000 0.22200  0.78200  0.34000  Biso   1.000  C
  C21      1.0000 0.18900  0.78800  0.50000  Biso   1.000  C
  C22      1.0000 0.13800  0.84500  0.50000  Biso   1.000  C
  C23      1.0000 0.12200  0.90300  0.37000  Biso   1.000  C
  C24      1.0000 0.09300  0.84400  0.62000  Biso   1.000  C
  F4       1.0000 0.19400  0.82400  0.18000  Biso   1.000  F
  N7       1.0000 0.06800  0.94000  0.39000  Biso   1.000  N
  N8       1.0000 0.05200  0.90400  0.58000  Biso   1.000  N
  H10      1.0000 0.29744  0.73941  0.20473  Biso   1.000  H
  H11      1.0000 0.15117  0.91849  0.25759  Biso   1.000  H
  H12      1.0000 0.09075  0.79856  0.72813  Biso   1.000  H
  C25      1.0000 0.77800  0.75600  0.84000  Biso   1.000  C
  C26      1.0000 0.72200  0.71800  0.84000  Biso   1.000  C
  C27      1.0000 0.68900  0.71200  0.00000  Biso   1.000  C
  C28      1.0000 0.63800  0.65500  0.00000  Biso   1.000  C
  C29      1.0000 0.62200  0.59700  0.87000  Biso   1.000  C
  C30      1.0000 0.59300  0.65600  0.12000  Biso   1.000  C
  F5       1.0000 0.69400  0.67600  0.68000  Biso   1.000  F
  N9       1.0000 0.56800  0.56000  0.89000  Biso   1.000  N
  N10      1.0000 0.55200  0.59600  0.08000  Biso   1.000  N
  H13      1.0000 0.79744  0.76059  0.70473  Biso   1.000  H
  H14      1.0000 0.65117  0.58151  0.75759  Biso   1.000  H
  H15      1.0000 0.59075  0.70144  0.22813  Biso   1.000  H
  C31      1.0000 0.27800  0.25600  0.84000  Biso   1.000  C
  C32      1.0000 0.22200  0.21800  0.84000  Biso   1.000  C
  C33      1.0000 0.18900  0.21200  0.00000  Biso   1.000  C
  C34      1.0000 0.13800  0.15500  0.00000  Biso   1.000  C
  C35      1.0000 0.12200  0.09700  0.87000  Biso   1.000  C
  C36      1.0000 0.09300  0.15600  0.12000  Biso   1.000  C
  F6       1.0000 0.19400  0.17600  0.68000  Biso   1.000  F
  N11      1.0000 0.06800  0.06000  0.89000  Biso   1.000  N
  N12      1.0000 0.05200  0.09600  0.08000  Biso   1.000  N
  H16      1.0000 0.29744  0.26059  0.70473  Biso   1.000  H
  H17      1.0000 0.15117  0.08151  0.75759  Biso   1.000  H
  H18      1.0000 0.09075  0.20144  0.22813  Biso   1.000  H
  C37      1.0000 0.22200  0.75600  0.66000  Biso   1.000  C
  C38      1.0000 0.27800  0.71800  0.66000  Biso   1.000  C
  C39      1.0000 0.31100  0.71200  0.50000  Biso   1.000  C
  C40      1.0000 0.36200  0.65500  0.50000  Biso   1.000  C
  C41      1.0000 0.37800  0.59700  0.63000  Biso   1.000  C
  C42      1.0000 0.40700  0.65600  0.38000  Biso   1.000  C
  F7       1.0000 0.30600  0.67600  0.82000  Biso   1.000  F
  N13      1.0000 0.43200  0.56000  0.61000  Biso   1.000  N
  N14      1.0000 0.44800  0.59600  0.42000  Biso   1.000  N
  H19      1.0000 0.20256  0.76059  0.79527  Biso   1.000  H
  H20      1.0000 0.34883  0.58151  0.74241  Biso   1.000  H
  H21      1.0000 0.40925  0.70144  0.27187  Biso   1.000  H
  C43      1.0000 0.72200  0.25600  0.66000  Biso   1.000  C
  C44      1.0000 0.77800  0.21800  0.66000  Biso   1.000  C
  C45      1.0000 0.81100  0.21200  0.50000  Biso   1.000  C
  C46      1.0000 0.86200  0.15500  0.50000  Biso   1.000  C
  C47      1.0000 0.87800  0.09700  0.63000  Biso   1.000  C
  C48      1.0000 0.90700  0.15600  0.38000  Biso   1.000  C
  F8       1.0000 0.80600  0.17600  0.82000  Biso   1.000  F
  N15      1.0000 0.93200  0.06000  0.61000  Biso   1.000  N
  N16      1.0000 0.94800  0.09600  0.42000  Biso   1.000  N
  H22      1.0000 0.70256  0.26059  0.79527  Biso   1.000  H
  H23      1.0000 0.84883  0.08151  0.74241  Biso   1.000  H
  H24      1.0000 0.90925  0.20144  0.27187  Biso   1.000  H
  Co1      1.0000 0.50000  0.51610  0.25000  Biso   1.000  Co
  Co2      1.0000 0.00000  0.01610  0.25000  Biso   1.000  Co
  Co3      1.0000 0.50000  0.48390  0.75000  Biso   1.000  Co
  Co4      1.0000 0.00000  0.98390  0.75000  Biso   1.000  Co
