data_image0
_cell_length_a       22.901
_cell_length_b       22.901
_cell_length_c       22.272
_cell_angle_alpha    90
_cell_angle_beta     90
_cell_angle_gamma    120

_symmetry_space_group_name_H-M    "P 1"
_symmetry_int_tables_number       1

loop_
  _symmetry_equiv_pos_as_xyz
  'x, y, z'

loop_
  _atom_site_label
  _atom_site_occupancy
  _atom_site_fract_x
  _atom_site_fract_y
  _atom_site_fract_z
  _atom_site_thermal_displace_type
  _atom_site_B_iso_or_equiv
  _atom_site_type_symbol
  I1       1.0000 0.76274  0.60953  0.83788  Biso   1.000  I
  I2       1.0000 0.81052  0.44464  0.79101  Biso   1.000  I
  Cu1      1.0000 0.71652  0.48121  0.80421  Biso   1.000  Cu
  Cu2      1.0000 0.84155  0.57580  0.77745  Biso   1.000  Cu
  N1       1.0000 0.65620  0.42140  0.87390  Biso   1.000  N
  N2       1.0000 0.93790  0.62710  0.81160  Biso   1.000  N
  C1       1.0000 0.60430  0.43710  0.88780  Biso   1.000  C
  H1       1.0000 0.57400  0.42580  0.85380  Biso   1.000  H
  H2       1.0000 0.62450  0.48500  0.89550  Biso   1.000  H
  C2       1.0000 0.69730  0.43060  0.92680  Biso   1.000  C
  H3       1.0000 0.71700  0.47660  0.94130  Biso   1.000  H
  H4       1.0000 0.73340  0.42190  0.91700  Biso   1.000  H
  C3       1.0000 0.62170  0.35130  0.85570  Biso   1.000  C
  H5       1.0000 0.65470  0.33740  0.84800  Biso   1.000  H
  H6       1.0000 0.59740  0.34630  0.81870  Biso   1.000  H
  C4       1.0000 0.98580  0.61880  0.77130  Biso   1.000  C
  H7       1.0000 0.98380  0.63430  0.73120  Biso   1.000  H
  H8       1.0000 0.97250  0.57150  0.76890  Biso   1.000  H
  C5       1.0000 0.94190  0.60120  0.87120  Biso   1.000  C
  H9       1.0000 0.92290  0.55280  0.86860  Biso   1.000  H
  H10      1.0000 0.91490  0.60990  0.89940  Biso   1.000  H
  C6       1.0000 0.96300  0.70150  0.81810  Biso   1.000  C
  H11      1.0000 0.93190  0.70820  0.84280  Biso   1.000  H
  H12      1.0000 0.96520  0.72100  0.77890  Biso   1.000  H
  I3       1.0000 0.39047  0.15321  0.17121  Biso   1.000  I
  I4       1.0000 0.55536  0.36588  0.12434  Biso   1.000  I
  Cu3      1.0000 0.51879  0.23531  0.13754  Biso   1.000  Cu
  Cu4      1.0000 0.42420  0.26575  0.11078  Biso   1.000  Cu
  N3       1.0000 0.57860  0.23480  0.20723  Biso   1.000  N
  N4       1.0000 0.37290  0.31080  0.14493  Biso   1.000  N
  C7       1.0000 0.56290  0.16720  0.22113  Biso   1.000  C
  H13      1.0000 0.57420  0.14820  0.18713  Biso   1.000  H
  H14      1.0000 0.51500  0.13950  0.22883  Biso   1.000  H
  C8       1.0000 0.56940  0.26670  0.26013  Biso   1.000  C
  H15      1.0000 0.52340  0.24040  0.27463  Biso   1.000  H
  H16      1.0000 0.57810  0.31150  0.25033  Biso   1.000  H
  C9       1.0000 0.64870  0.27040  0.18903  Biso   1.000  C
  H17      1.0000 0.66260  0.31730  0.18133  Biso   1.000  H
  H18      1.0000 0.65370  0.25110  0.15203  Biso   1.000  H
  C10      1.0000 0.38120  0.36700  0.10463  Biso   1.000  C
  H19      1.0000 0.36570  0.34950  0.06453  Biso   1.000  H
  H20      1.0000 0.42850  0.40100  0.10223  Biso   1.000  H
  C11      1.0000 0.39880  0.34070  0.20453  Biso   1.000  C
  H21      1.0000 0.44720  0.37010  0.20193  Biso   1.000  H
  H22      1.0000 0.39010  0.30500  0.23273  Biso   1.000  H
  C12      1.0000 0.29850  0.26150  0.15143  Biso   1.000  C
  H23      1.0000 0.29180  0.22370  0.17613  Biso   1.000  H
  H24      1.0000 0.27900  0.24420  0.11223  Biso   1.000  H
  I5       1.0000 0.84679  0.23726  0.50455  Biso   1.000  I
  I6       1.0000 0.63412  0.18948  0.45768  Biso   1.000  I
  Cu5      1.0000 0.76469  0.28348  0.47088  Biso   1.000  Cu
  Cu6      1.0000 0.73425  0.15845  0.44412  Biso   1.000  Cu
  N5       1.0000 0.76520  0.34380  0.54057  Biso   1.000  N
  N6       1.0000 0.68920  0.06210  0.47827  Biso   1.000  N
  C13      1.0000 0.83280  0.39570  0.55447  Biso   1.000  C
  H25      1.0000 0.85180  0.42600  0.52047  Biso   1.000  H
  H26      1.0000 0.86050  0.37550  0.56217  Biso   1.000  H
  C14      1.0000 0.73330  0.30270  0.59347  Biso   1.000  C
  H27      1.0000 0.75960  0.28300  0.60797  Biso   1.000  H
  H28      1.0000 0.68850  0.26660  0.58367  Biso   1.000  H
  C15      1.0000 0.72960  0.37830  0.52237  Biso   1.000  C
  H29      1.0000 0.68270  0.34530  0.51467  Biso   1.000  H
  H30      1.0000 0.74890  0.40260  0.48537  Biso   1.000  H
  C16      1.0000 0.63300  0.01420  0.43797  Biso   1.000  C
  H31      1.0000 0.65050  0.01620  0.39787  Biso   1.000  H
  H32      1.0000 0.59900  0.02750  0.43557  Biso   1.000  H
  C17      1.0000 0.65930  0.05810  0.53787  Biso   1.000  C
  H33      1.0000 0.62990  0.07710  0.53527  Biso   1.000  H
  H34      1.0000 0.69500  0.08510  0.56607  Biso   1.000  H
  C18      1.0000 0.73850  0.03700  0.48477  Biso   1.000  C
  H35      1.0000 0.77630  0.06810  0.50947  Biso   1.000  H
  H36      1.0000 0.75580  0.03480  0.44557  Biso   1.000  H
  I7       1.0000 0.23726  0.39047  0.33788  Biso   1.000  I
  I8       1.0000 0.18948  0.55536  0.29101  Biso   1.000  I
  Cu7      1.0000 0.28348  0.51879  0.30421  Biso   1.000  Cu
  Cu8      1.0000 0.15845  0.42420  0.27745  Biso   1.000  Cu
  N7       1.0000 0.34380  0.57860  0.37390  Biso   1.000  N
  N8       1.0000 0.06210  0.37290  0.31160  Biso   1.000  N
  C19      1.0000 0.39570  0.56290  0.38780  Biso   1.000  C
  H37      1.0000 0.42600  0.57420  0.35380  Biso   1.000  H
  H38      1.0000 0.37550  0.51500  0.39550  Biso   1.000  H
  C20      1.0000 0.30270  0.56940  0.42680  Biso   1.000  C
  H39      1.0000 0.28300  0.52340  0.44130  Biso   1.000  H
  H40      1.0000 0.26660  0.57810  0.41700  Biso   1.000  H
  C21      1.0000 0.37830  0.64870  0.35570  Biso   1.000  C
  H41      1.0000 0.34530  0.66260  0.34800  Biso   1.000  H
  H42      1.0000 0.40260  0.65370  0.31870  Biso   1.000  H
  C22      1.0000 0.01420  0.38120  0.27130  Biso   1.000  C
  H43      1.0000 0.01620  0.36570  0.23120  Biso   1.000  H
  H44      1.0000 0.02750  0.42850  0.26890  Biso   1.000  H
  C23      1.0000 0.05810  0.39880  0.37120  Biso   1.000  C
  H45      1.0000 0.07710  0.44720  0.36860  Biso   1.000  H
  H46      1.0000 0.08510  0.39010  0.39940  Biso   1.000  H
  C24      1.0000 0.03700  0.29850  0.31810  Biso   1.000  C
  H47      1.0000 0.06810  0.29180  0.34280  Biso   1.000  H
  H48      1.0000 0.03480  0.27900  0.27890  Biso   1.000  H
  I9       1.0000 0.60953  0.84679  0.67121  Biso   1.000  I
  I10      1.0000 0.44464  0.63412  0.62434  Biso   1.000  I
  Cu9      1.0000 0.48121  0.76469  0.63754  Biso   1.000  Cu
  Cu10     1.0000 0.57580  0.73425  0.61078  Biso   1.000  Cu
  N9       1.0000 0.42140  0.76520  0.70723  Biso   1.000  N
  N10      1.0000 0.62710  0.68920  0.64493  Biso   1.000  N
  C25      1.0000 0.43710  0.83280  0.72113  Biso   1.000  C
  H49      1.0000 0.42580  0.85180  0.68713  Biso   1.000  H
  H50      1.0000 0.48500  0.86050  0.72883  Biso   1.000  H
  C26      1.0000 0.43060  0.73330  0.76013  Biso   1.000  C
  H51      1.0000 0.47660  0.75960  0.77463  Biso   1.000  H
  H52      1.0000 0.42190  0.68850  0.75033  Biso   1.000  H
  C27      1.0000 0.35130  0.72960  0.68903  Biso   1.000  C
  H53      1.0000 0.33740  0.68270  0.68133  Biso   1.000  H
  H54      1.0000 0.34630  0.74890  0.65203  Biso   1.000  H
  C28      1.0000 0.61880  0.63300  0.60463  Biso   1.000  C
  H55      1.0000 0.63430  0.65050  0.56453  Biso   1.000  H
  H56      1.0000 0.57150  0.59900  0.60223  Biso   1.000  H
  C29      1.0000 0.60120  0.65930  0.70453  Biso   1.000  C
  H57      1.0000 0.55280  0.62990  0.70193  Biso   1.000  H
  H58      1.0000 0.60990  0.69500  0.73273  Biso   1.000  H
  C30      1.0000 0.70150  0.73850  0.65143  Biso   1.000  C
  H59      1.0000 0.70820  0.77630  0.67613  Biso   1.000  H
  H60      1.0000 0.72100  0.75580  0.61223  Biso   1.000  H
  I11      1.0000 0.15321  0.76274  0.00455  Biso   1.000  I
  I12      1.0000 0.36588  0.81052  0.95768  Biso   1.000  I
  Cu11     1.0000 0.23531  0.71652  0.97088  Biso   1.000  Cu
  Cu12     1.0000 0.26575  0.84155  0.94412  Biso   1.000  Cu
  N11      1.0000 0.23480  0.65620  0.04057  Biso   1.000  N
  N12      1.0000 0.31080  0.93790  0.97827  Biso   1.000  N
  C31      1.0000 0.16720  0.60430  0.05447  Biso   1.000  C
  H61      1.0000 0.14820  0.57400  0.02047  Biso   1.000  H
  H62      1.0000 0.13950  0.62450  0.06217  Biso   1.000  H
  C32      1.0000 0.26670  0.69730  0.09347  Biso   1.000  C
  H63      1.0000 0.24040  0.71700  0.10797  Biso   1.000  H
  H64      1.0000 0.31150  0.73340  0.08367  Biso   1.000  H
  C33      1.0000 0.27040  0.62170  0.02237  Biso   1.000  C
  H65      1.0000 0.31730  0.65470  0.01467  Biso   1.000  H
  H66      1.0000 0.25110  0.59740  0.98537  Biso   1.000  H
  C34      1.0000 0.36700  0.98580  0.93797  Biso   1.000  C
  H67      1.0000 0.34950  0.98380  0.89787  Biso   1.000  H
  H68      1.0000 0.40100  0.97250  0.93557  Biso   1.000  H
  C35      1.0000 0.34070  0.94190  0.03787  Biso   1.000  C
  H69      1.0000 0.37010  0.92290  0.03527  Biso   1.000  H
  H70      1.0000 0.30500  0.91490  0.06607  Biso   1.000  H
  C36      1.0000 0.26150  0.96300  0.98477  Biso   1.000  C
  H71      1.0000 0.22370  0.93190  0.00947  Biso   1.000  H
  H72      1.0000 0.24420  0.96520  0.94557  Biso   1.000  H
  I13      1.0000 0.60953  0.76274  0.49545  Biso   1.000  I
  I14      1.0000 0.44464  0.81052  0.54232  Biso   1.000  I
  Cu13     1.0000 0.48121  0.71652  0.52912  Biso   1.000  Cu
  Cu14     1.0000 0.57580  0.84155  0.55588  Biso   1.000  Cu
  N13      1.0000 0.42140  0.65620  0.45943  Biso   1.000  N
  N14      1.0000 0.62710  0.93790  0.52173  Biso   1.000  N
  C37      1.0000 0.43710  0.60430  0.44553  Biso   1.000  C
  H73      1.0000 0.42580  0.57400  0.47953  Biso   1.000  H
  H74      1.0000 0.48500  0.62450  0.43783  Biso   1.000  H
  C38      1.0000 0.43060  0.69730  0.40653  Biso   1.000  C
  H75      1.0000 0.47660  0.71700  0.39203  Biso   1.000  H
  H76      1.0000 0.42190  0.73340  0.41633  Biso   1.000  H
  C39      1.0000 0.35130  0.62170  0.47763  Biso   1.000  C
  H77      1.0000 0.33740  0.65470  0.48533  Biso   1.000  H
  H78      1.0000 0.34630  0.59740  0.51463  Biso   1.000  H
  C40      1.0000 0.61880  0.98580  0.56203  Biso   1.000  C
  H79      1.0000 0.63430  0.98380  0.60213  Biso   1.000  H
  H80      1.0000 0.57150  0.97250  0.56443  Biso   1.000  H
  C41      1.0000 0.60120  0.94190  0.46213  Biso   1.000  C
  H81      1.0000 0.55280  0.92290  0.46473  Biso   1.000  H
  H82      1.0000 0.60990  0.91490  0.43393  Biso   1.000  H
  C42      1.0000 0.70150  0.96300  0.51523  Biso   1.000  C
  H83      1.0000 0.70820  0.93190  0.49053  Biso   1.000  H
  H84      1.0000 0.72100  0.96520  0.55443  Biso   1.000  H
  I15      1.0000 0.15321  0.39047  0.16212  Biso   1.000  I
  I16      1.0000 0.36588  0.55536  0.20899  Biso   1.000  I
  Cu15     1.0000 0.23531  0.51879  0.19579  Biso   1.000  Cu
  Cu16     1.0000 0.26575  0.42420  0.22255  Biso   1.000  Cu
  N15      1.0000 0.23480  0.57860  0.12610  Biso   1.000  N
  N16      1.0000 0.31080  0.37290  0.18840  Biso   1.000  N
  C43      1.0000 0.16720  0.56290  0.11220  Biso   1.000  C
  H85      1.0000 0.14820  0.57420  0.14620  Biso   1.000  H
  H86      1.0000 0.13950  0.51500  0.10450  Biso   1.000  H
  C44      1.0000 0.26670  0.56940  0.07320  Biso   1.000  C
  H87      1.0000 0.24040  0.52340  0.05870  Biso   1.000  H
  H88      1.0000 0.31150  0.57810  0.08300  Biso   1.000  H
  C45      1.0000 0.27040  0.64870  0.14430  Biso   1.000  C
  H89      1.0000 0.31730  0.66260  0.15200  Biso   1.000  H
  H90      1.0000 0.25110  0.65370  0.18130  Biso   1.000  H
  C46      1.0000 0.36700  0.38120  0.22870  Biso   1.000  C
  H91      1.0000 0.34950  0.36570  0.26880  Biso   1.000  H
  H92      1.0000 0.40100  0.42850  0.23110  Biso   1.000  H
  C47      1.0000 0.34070  0.39880  0.12880  Biso   1.000  C
  H93      1.0000 0.37010  0.44720  0.13140  Biso   1.000  H
  H94      1.0000 0.30500  0.39010  0.10060  Biso   1.000  H
  C48      1.0000 0.26150  0.29850  0.18190  Biso   1.000  C
  H95      1.0000 0.22370  0.29180  0.15720  Biso   1.000  H
  H96      1.0000 0.24420  0.27900  0.22110  Biso   1.000  H
  I17      1.0000 0.23726  0.84679  0.82879  Biso   1.000  I
  I18      1.0000 0.18948  0.63412  0.87566  Biso   1.000  I
  Cu17     1.0000 0.28348  0.76469  0.86246  Biso   1.000  Cu
  Cu18     1.0000 0.15845  0.73425  0.88922  Biso   1.000  Cu
  N17      1.0000 0.34380  0.76520  0.79277  Biso   1.000  N
  N18      1.0000 0.06210  0.68920  0.85507  Biso   1.000  N
  C49      1.0000 0.39570  0.83280  0.77887  Biso   1.000  C
  H97      1.0000 0.42600  0.85180  0.81287  Biso   1.000  H
  H98      1.0000 0.37550  0.86050  0.77117  Biso   1.000  H
  C50      1.0000 0.30270  0.73330  0.73987  Biso   1.000  C
  H99      1.0000 0.28300  0.75960  0.72537  Biso   1.000  H
  H100     1.0000 0.26660  0.68850  0.74967  Biso   1.000  H
  C51      1.0000 0.37830  0.72960  0.81097  Biso   1.000  C
  H101     1.0000 0.34530  0.68270  0.81867  Biso   1.000  H
  H102     1.0000 0.40260  0.74890  0.84797  Biso   1.000  H
  C52      1.0000 0.01420  0.63300  0.89537  Biso   1.000  C
  H103     1.0000 0.01620  0.65050  0.93547  Biso   1.000  H
  H104     1.0000 0.02750  0.59900  0.89777  Biso   1.000  H
  C53      1.0000 0.05810  0.65930  0.79547  Biso   1.000  C
  H105     1.0000 0.07710  0.62990  0.79807  Biso   1.000  H
  H106     1.0000 0.08510  0.69500  0.76727  Biso   1.000  H
  C54      1.0000 0.03700  0.73850  0.84857  Biso   1.000  C
  H107     1.0000 0.06810  0.77630  0.82387  Biso   1.000  H
  H108     1.0000 0.03480  0.75580  0.88777  Biso   1.000  H
  I19      1.0000 0.39047  0.23726  0.99545  Biso   1.000  I
  I20      1.0000 0.55536  0.18948  0.04232  Biso   1.000  I
  Cu19     1.0000 0.51879  0.28348  0.02912  Biso   1.000  Cu
  Cu20     1.0000 0.42420  0.15845  0.05588  Biso   1.000  Cu
  N19      1.0000 0.57860  0.34380  0.95943  Biso   1.000  N
  N20      1.0000 0.37290  0.06210  0.02173  Biso   1.000  N
  C55      1.0000 0.56290  0.39570  0.94553  Biso   1.000  C
  H109     1.0000 0.57420  0.42600  0.97953  Biso   1.000  H
  H110     1.0000 0.51500  0.37550  0.93783  Biso   1.000  H
  C56      1.0000 0.56940  0.30270  0.90653  Biso   1.000  C
  H111     1.0000 0.52340  0.28300  0.89203  Biso   1.000  H
  H112     1.0000 0.57810  0.26660  0.91633  Biso   1.000  H
  C57      1.0000 0.64870  0.37830  0.97763  Biso   1.000  C
  H113     1.0000 0.66260  0.34530  0.98533  Biso   1.000  H
  H114     1.0000 0.65370  0.40260  0.01463  Biso   1.000  H
  C58      1.0000 0.38120  0.01420  0.06203  Biso   1.000  C
  H115     1.0000 0.36570  0.01620  0.10213  Biso   1.000  H
  H116     1.0000 0.42850  0.02750  0.06443  Biso   1.000  H
  C59      1.0000 0.39880  0.05810  0.96213  Biso   1.000  C
  H117     1.0000 0.44720  0.07710  0.96473  Biso   1.000  H
  H118     1.0000 0.39010  0.08510  0.93393  Biso   1.000  H
  C60      1.0000 0.29850  0.03700  0.01523  Biso   1.000  C
  H119     1.0000 0.29180  0.06810  0.99053  Biso   1.000  H
  H120     1.0000 0.27900  0.03480  0.05443  Biso   1.000  H
  I21      1.0000 0.84679  0.60953  0.66212  Biso   1.000  I
  I22      1.0000 0.63412  0.44464  0.70899  Biso   1.000  I
  Cu21     1.0000 0.76469  0.48121  0.69579  Biso   1.000  Cu
  Cu22     1.0000 0.73425  0.57580  0.72255  Biso   1.000  Cu
  N21      1.0000 0.76520  0.42140  0.62610  Biso   1.000  N
  N22      1.0000 0.68920  0.62710  0.68840  Biso   1.000  N
  C61      1.0000 0.83280  0.43710  0.61220  Biso   1.000  C
  H121     1.0000 0.85180  0.42580  0.64620  Biso   1.000  H
  H122     1.0000 0.86050  0.48500  0.60450  Biso   1.000  H
  C62      1.0000 0.73330  0.43060  0.57320  Biso   1.000  C
  H123     1.0000 0.75960  0.47660  0.55870  Biso   1.000  H
  H124     1.0000 0.68850  0.42190  0.58300  Biso   1.000  H
  C63      1.0000 0.72960  0.35130  0.64430  Biso   1.000  C
  H125     1.0000 0.68270  0.33740  0.65200  Biso   1.000  H
  H126     1.0000 0.74890  0.34630  0.68130  Biso   1.000  H
  C64      1.0000 0.63300  0.61880  0.72870  Biso   1.000  C
  H127     1.0000 0.65050  0.63430  0.76880  Biso   1.000  H
  H128     1.0000 0.59900  0.57150  0.73110  Biso   1.000  H
  C65      1.0000 0.65930  0.60120  0.62880  Biso   1.000  C
  H129     1.0000 0.62990  0.55280  0.63140  Biso   1.000  H
  H130     1.0000 0.69500  0.60990  0.60060  Biso   1.000  H
  C66      1.0000 0.73850  0.70150  0.68190  Biso   1.000  C
  H131     1.0000 0.77630  0.70820  0.65720  Biso   1.000  H
  H132     1.0000 0.75580  0.72100  0.72110  Biso   1.000  H
  I23      1.0000 0.76274  0.15321  0.32879  Biso   1.000  I
  I24      1.0000 0.81052  0.36588  0.37566  Biso   1.000  I
  Cu23     1.0000 0.71652  0.23531  0.36246  Biso   1.000  Cu
  Cu24     1.0000 0.84155  0.26575  0.38922  Biso   1.000  Cu
  N23      1.0000 0.65620  0.23480  0.29277  Biso   1.000  N
  N24      1.0000 0.93790  0.31080  0.35507  Biso   1.000  N
  C67      1.0000 0.60430  0.16720  0.27887  Biso   1.000  C
  H133     1.0000 0.57400  0.14820  0.31287  Biso   1.000  H
  H134     1.0000 0.62450  0.13950  0.27117  Biso   1.000  H
  C68      1.0000 0.69730  0.26670  0.23987  Biso   1.000  C
  H135     1.0000 0.71700  0.24040  0.22537  Biso   1.000  H
  H136     1.0000 0.73340  0.31150  0.24967  Biso   1.000  H
  C69      1.0000 0.62170  0.27040  0.31097  Biso   1.000  C
  H137     1.0000 0.65470  0.31730  0.31867  Biso   1.000  H
  H138     1.0000 0.59740  0.25110  0.34797  Biso   1.000  H
  C70      1.0000 0.98580  0.36700  0.39537  Biso   1.000  C
  H139     1.0000 0.98380  0.34950  0.43547  Biso   1.000  H
  H140     1.0000 0.97250  0.40100  0.39777  Biso   1.000  H
  C71      1.0000 0.94190  0.34070  0.29547  Biso   1.000  C
  H141     1.0000 0.92290  0.37010  0.29807  Biso   1.000  H
  H142     1.0000 0.91490  0.30500  0.26727  Biso   1.000  H
  C72      1.0000 0.96300  0.26150  0.34857  Biso   1.000  C
  H143     1.0000 0.93190  0.22370  0.32387  Biso   1.000  H
  H144     1.0000 0.96520  0.24420  0.38777  Biso   1.000  H
  Cu25     1.0000 0.13645  0.21976  0.39233  Biso   1.000  Cu
  N25      1.0000 0.22510  0.14540  0.28290  Biso   1.000  N
  N26      1.0000 0.19430  0.20400  0.34340  Biso   1.000  N
  C73      1.0000 0.10650  0.12140  0.27340  Biso   1.000  C
  C74      1.0000 0.06960  0.04980  0.27060  Biso   1.000  C
  H145     1.0000 0.09010  0.02590  0.28400  Biso   1.000  H
  C75      1.0000 0.17620  0.15700  0.29880  Biso   1.000  C
  C76      1.0000 0.27860  0.18820  0.31880  Biso   1.000  C
  C77      1.0000 0.25800  0.22370  0.35540  Biso   1.000  C
  C78      1.0000 0.30310  0.27140  0.39560  Biso   1.000  C
  H146     1.0000 0.28930  0.29510  0.42000  Biso   1.000  H
  C79      1.0000 0.36880  0.28360  0.39920  Biso   1.000  C
  H147     1.0000 0.39900  0.31550  0.42610  Biso   1.000  H
  C80      1.0000 0.38950  0.24810  0.36260  Biso   1.000  C
  H148     1.0000 0.43350  0.25620  0.36510  Biso   1.000  H
  C81      1.0000 0.34440  0.20040  0.32250  Biso   1.000  C
  H149     1.0000 0.35820  0.17660  0.29800  Biso   1.000  H
  Cu26     1.0000 0.78024  0.91669  0.72566  Biso   1.000  Cu
  N27      1.0000 0.85460  0.07970  0.61623  Biso   1.000  N
  N28      1.0000 0.79600  0.99030  0.67673  Biso   1.000  N
  C82      1.0000 0.87860  0.98510  0.60673  Biso   1.000  C
  C83      1.0000 0.95020  0.01980  0.60393  Biso   1.000  C
  H150     1.0000 0.97410  0.06420  0.61733  Biso   1.000  H
  C84      1.0000 0.84300  0.01920  0.63213  Biso   1.000  C
  C85      1.0000 0.81180  0.09040  0.65213  Biso   1.000  C
  C86      1.0000 0.77630  0.03430  0.68873  Biso   1.000  C
  C87      1.0000 0.72860  0.03170  0.72893  Biso   1.000  C
  H151     1.0000 0.70490  0.99420  0.75333  Biso   1.000  H
  C88      1.0000 0.71640  0.08520  0.73253  Biso   1.000  C
  H152     1.0000 0.68450  0.08350  0.75943  Biso   1.000  H
  C89      1.0000 0.75190  0.14140  0.69593  Biso   1.000  C
  H153     1.0000 0.74380  0.17730  0.69843  Biso   1.000  H
  C90      1.0000 0.79960  0.14400  0.65583  Biso   1.000  C
  H154     1.0000 0.82340  0.18160  0.63133  Biso   1.000  H
  Cu27     1.0000 0.08331  0.86355  0.05900  Biso   1.000  Cu
  N29      1.0000 0.92030  0.77490  0.94957  Biso   1.000  N
  N30      1.0000 0.00970  0.80570  0.01007  Biso   1.000  N
  C91      1.0000 0.01490  0.89350  0.94007  Biso   1.000  C
  C92      1.0000 0.98020  0.93040  0.93727  Biso   1.000  C
  H155     1.0000 0.93580  0.90990  0.95067  Biso   1.000  H
  C93      1.0000 0.98080  0.82380  0.96547  Biso   1.000  C
  C94      1.0000 0.90960  0.72140  0.98547  Biso   1.000  C
  C95      1.0000 0.96570  0.74200  0.02207  Biso   1.000  C
  C96      1.0000 0.96830  0.69690  0.06227  Biso   1.000  C
  H156     1.0000 0.00580  0.71070  0.08667  Biso   1.000  H
  C97      1.0000 0.91480  0.63120  0.06587  Biso   1.000  C
  H157     1.0000 0.91650  0.60100  0.09277  Biso   1.000  H
  C98      1.0000 0.85860  0.61050  0.02927  Biso   1.000  C
  H158     1.0000 0.82270  0.56650  0.03177  Biso   1.000  H
  C99      1.0000 0.85600  0.65560  0.98917  Biso   1.000  C
  H159     1.0000 0.81840  0.64180  0.96467  Biso   1.000  H
  Cu28     1.0000 0.86355  0.78024  0.89233  Biso   1.000  Cu
  N31      1.0000 0.77490  0.85460  0.78290  Biso   1.000  N
  N32      1.0000 0.80570  0.79600  0.84340  Biso   1.000  N
  C100     1.0000 0.89350  0.87860  0.77340  Biso   1.000  C
  C101     1.0000 0.93040  0.95020  0.77060  Biso   1.000  C
  H160     1.0000 0.90990  0.97410  0.78400  Biso   1.000  H
  C102     1.0000 0.82380  0.84300  0.79880  Biso   1.000  C
  C103     1.0000 0.72140  0.81180  0.81880  Biso   1.000  C
  C104     1.0000 0.74200  0.77630  0.85540  Biso   1.000  C
  C105     1.0000 0.69690  0.72860  0.89560  Biso   1.000  C
  H161     1.0000 0.71070  0.70490  0.92000  Biso   1.000  H
  C106     1.0000 0.63120  0.71640  0.89920  Biso   1.000  C
  H162     1.0000 0.60100  0.68450  0.92610  Biso   1.000  H
  C107     1.0000 0.61050  0.75190  0.86260  Biso   1.000  C
  H163     1.0000 0.56650  0.74380  0.86510  Biso   1.000  H
  C108     1.0000 0.65560  0.79960  0.82250  Biso   1.000  C
  H164     1.0000 0.64180  0.82340  0.79800  Biso   1.000  H
  Cu29     1.0000 0.21976  0.08331  0.22566  Biso   1.000  Cu
  N33      1.0000 0.14540  0.92030  0.11623  Biso   1.000  N
  N34      1.0000 0.20400  0.00970  0.17673  Biso   1.000  N
  C109     1.0000 0.12140  0.01490  0.10673  Biso   1.000  C
  C110     1.0000 0.04980  0.98020  0.10393  Biso   1.000  C
  H165     1.0000 0.02590  0.93580  0.11733  Biso   1.000  H
  C111     1.0000 0.15700  0.98080  0.13213  Biso   1.000  C
  C112     1.0000 0.18820  0.90960  0.15213  Biso   1.000  C
  C113     1.0000 0.22370  0.96570  0.18873  Biso   1.000  C
  C114     1.0000 0.27140  0.96830  0.22893  Biso   1.000  C
  H166     1.0000 0.29510  0.00580  0.25333  Biso   1.000  H
  C115     1.0000 0.28360  0.91480  0.23253  Biso   1.000  C
  H167     1.0000 0.31550  0.91650  0.25943  Biso   1.000  H
  C116     1.0000 0.24810  0.85860  0.19593  Biso   1.000  C
  H168     1.0000 0.25620  0.82270  0.19843  Biso   1.000  H
  C117     1.0000 0.20040  0.85600  0.15583  Biso   1.000  C
  H169     1.0000 0.17660  0.81840  0.13133  Biso   1.000  H
  Cu30     1.0000 0.91669  0.13645  0.55900  Biso   1.000  Cu
  N35      1.0000 0.07970  0.22510  0.44957  Biso   1.000  N
  N36      1.0000 0.99030  0.19430  0.51007  Biso   1.000  N
  C118     1.0000 0.98510  0.10650  0.44007  Biso   1.000  C
  C119     1.0000 0.01980  0.06960  0.43727  Biso   1.000  C
  H170     1.0000 0.06420  0.09010  0.45067  Biso   1.000  H
  C120     1.0000 0.01920  0.17620  0.46547  Biso   1.000  C
  C121     1.0000 0.09040  0.27860  0.48547  Biso   1.000  C
  C122     1.0000 0.03430  0.25800  0.52207  Biso   1.000  C
  C123     1.0000 0.03170  0.30310  0.56227  Biso   1.000  C
  H171     1.0000 0.99420  0.28930  0.58667  Biso   1.000  H
  C124     1.0000 0.08520  0.36880  0.56587  Biso   1.000  C
  H172     1.0000 0.08350  0.39900  0.59277  Biso   1.000  H
  C125     1.0000 0.14140  0.38950  0.52927  Biso   1.000  C
  H173     1.0000 0.17730  0.43350  0.53177  Biso   1.000  H
  C126     1.0000 0.14400  0.34440  0.48917  Biso   1.000  C
  H174     1.0000 0.18160  0.35820  0.46467  Biso   1.000  H
  Cu31     1.0000 0.21976  0.13645  0.94100  Biso   1.000  Cu
  N37      1.0000 0.14540  0.22510  0.05043  Biso   1.000  N
  N38      1.0000 0.20400  0.19430  0.98993  Biso   1.000  N
  C127     1.0000 0.12140  0.10650  0.05993  Biso   1.000  C
  C128     1.0000 0.04980  0.06960  0.06273  Biso   1.000  C
  H175     1.0000 0.02590  0.09010  0.04933  Biso   1.000  H
  C129     1.0000 0.15700  0.17620  0.03453  Biso   1.000  C
  C130     1.0000 0.18820  0.27860  0.01453  Biso   1.000  C
  C131     1.0000 0.22370  0.25800  0.97793  Biso   1.000  C
  C132     1.0000 0.27140  0.30310  0.93773  Biso   1.000  C
  H176     1.0000 0.29510  0.28930  0.91333  Biso   1.000  H
  C133     1.0000 0.28360  0.36880  0.93413  Biso   1.000  C
  H177     1.0000 0.31550  0.39900  0.90723  Biso   1.000  H
  C134     1.0000 0.24810  0.38950  0.97073  Biso   1.000  C
  H178     1.0000 0.25620  0.43350  0.96823  Biso   1.000  H
  C135     1.0000 0.20040  0.34440  0.01083  Biso   1.000  C
  H179     1.0000 0.17660  0.35820  0.03533  Biso   1.000  H
  Cu32     1.0000 0.91669  0.78024  0.60767  Biso   1.000  Cu
  N39      1.0000 0.07970  0.85460  0.71710  Biso   1.000  N
  N40      1.0000 0.99030  0.79600  0.65660  Biso   1.000  N
  C136     1.0000 0.98510  0.87860  0.72660  Biso   1.000  C
  C137     1.0000 0.01980  0.95020  0.72940  Biso   1.000  C
  H180     1.0000 0.06420  0.97410  0.71600  Biso   1.000  H
  C138     1.0000 0.01920  0.84300  0.70120  Biso   1.000  C
  C139     1.0000 0.09040  0.81180  0.68120  Biso   1.000  C
  C140     1.0000 0.03430  0.77630  0.64460  Biso   1.000  C
  C141     1.0000 0.03170  0.72860  0.60440  Biso   1.000  C
  H181     1.0000 0.99420  0.70490  0.58000  Biso   1.000  H
  C142     1.0000 0.08520  0.71640  0.60080  Biso   1.000  C
  H182     1.0000 0.08350  0.68450  0.57390  Biso   1.000  H
  C143     1.0000 0.14140  0.75190  0.63740  Biso   1.000  C
  H183     1.0000 0.17730  0.74380  0.63490  Biso   1.000  H
  C144     1.0000 0.14400  0.79960  0.67750  Biso   1.000  C
  H184     1.0000 0.18160  0.82340  0.70200  Biso   1.000  H
  Cu33     1.0000 0.86355  0.08331  0.27434  Biso   1.000  Cu
  N41      1.0000 0.77490  0.92030  0.38377  Biso   1.000  N
  N42      1.0000 0.80570  0.00970  0.32327  Biso   1.000  N
  C145     1.0000 0.89350  0.01490  0.39327  Biso   1.000  C
  C146     1.0000 0.93040  0.98020  0.39607  Biso   1.000  C
  H185     1.0000 0.90990  0.93580  0.38267  Biso   1.000  H
  C147     1.0000 0.82380  0.98080  0.36787  Biso   1.000  C
  C148     1.0000 0.72140  0.90960  0.34787  Biso   1.000  C
  C149     1.0000 0.74200  0.96570  0.31127  Biso   1.000  C
  C150     1.0000 0.69690  0.96830  0.27107  Biso   1.000  C
  H186     1.0000 0.71070  0.00580  0.24667  Biso   1.000  H
  C151     1.0000 0.63120  0.91480  0.26747  Biso   1.000  C
  H187     1.0000 0.60100  0.91650  0.24057  Biso   1.000  H
  C152     1.0000 0.61050  0.85860  0.30407  Biso   1.000  C
  H188     1.0000 0.56650  0.82270  0.30157  Biso   1.000  H
  C153     1.0000 0.65560  0.85600  0.34417  Biso   1.000  C
  H189     1.0000 0.64180  0.81840  0.36867  Biso   1.000  H
  Cu34     1.0000 0.78024  0.86355  0.44100  Biso   1.000  Cu
  N43      1.0000 0.85460  0.77490  0.55043  Biso   1.000  N
  N44      1.0000 0.79600  0.80570  0.48993  Biso   1.000  N
  C154     1.0000 0.87860  0.89350  0.55993  Biso   1.000  C
  C155     1.0000 0.95020  0.93040  0.56273  Biso   1.000  C
  H190     1.0000 0.97410  0.90990  0.54933  Biso   1.000  H
  C156     1.0000 0.84300  0.82380  0.53453  Biso   1.000  C
  C157     1.0000 0.81180  0.72140  0.51453  Biso   1.000  C
  C158     1.0000 0.77630  0.74200  0.47793  Biso   1.000  C
  C159     1.0000 0.72860  0.69690  0.43773  Biso   1.000  C
  H191     1.0000 0.70490  0.71070  0.41333  Biso   1.000  H
  C160     1.0000 0.71640  0.63120  0.43413  Biso   1.000  C
  H192     1.0000 0.68450  0.60100  0.40723  Biso   1.000  H
  C161     1.0000 0.75190  0.61050  0.47073  Biso   1.000  C
  H193     1.0000 0.74380  0.56650  0.46823  Biso   1.000  H
  C162     1.0000 0.79960  0.65560  0.51083  Biso   1.000  C
  H194     1.0000 0.82340  0.64180  0.53533  Biso   1.000  H
  Cu35     1.0000 0.08331  0.21976  0.10767  Biso   1.000  Cu
  N45      1.0000 0.92030  0.14540  0.21710  Biso   1.000  N
  N46      1.0000 0.00970  0.20400  0.15660  Biso   1.000  N
  C163     1.0000 0.01490  0.12140  0.22660  Biso   1.000  C
  C164     1.0000 0.98020  0.04980  0.22940  Biso   1.000  C
  H195     1.0000 0.93580  0.02590  0.21600  Biso   1.000  H
  C165     1.0000 0.98080  0.15700  0.20120  Biso   1.000  C
  C166     1.0000 0.90960  0.18820  0.18120  Biso   1.000  C
  C167     1.0000 0.96570  0.22370  0.14460  Biso   1.000  C
  C168     1.0000 0.96830  0.27140  0.10440  Biso   1.000  C
  H196     1.0000 0.00580  0.29510  0.08000  Biso   1.000  H
  C169     1.0000 0.91480  0.28360  0.10080  Biso   1.000  C
  H197     1.0000 0.91650  0.31550  0.07390  Biso   1.000  H
  C170     1.0000 0.85860  0.24810  0.13740  Biso   1.000  C
  H198     1.0000 0.82270  0.25620  0.13490  Biso   1.000  H
  C171     1.0000 0.85600  0.20040  0.17750  Biso   1.000  C
  H199     1.0000 0.81840  0.17660  0.20200  Biso   1.000  H
  Cu36     1.0000 0.13645  0.91669  0.77434  Biso   1.000  Cu
  N47      1.0000 0.22510  0.07970  0.88377  Biso   1.000  N
  N48      1.0000 0.19430  0.99030  0.82327  Biso   1.000  N
  C172     1.0000 0.10650  0.98510  0.89327  Biso   1.000  C
  C173     1.0000 0.06960  0.01980  0.89607  Biso   1.000  C
  H200     1.0000 0.09010  0.06420  0.88267  Biso   1.000  H
  C174     1.0000 0.17620  0.01920  0.86787  Biso   1.000  C
  C175     1.0000 0.27860  0.09040  0.84787  Biso   1.000  C
  C176     1.0000 0.25800  0.03430  0.81127  Biso   1.000  C
  C177     1.0000 0.30310  0.03170  0.77107  Biso   1.000  C
  H201     1.0000 0.28930  0.99420  0.74667  Biso   1.000  H
  C178     1.0000 0.36880  0.08520  0.76747  Biso   1.000  C
  H202     1.0000 0.39900  0.08350  0.74057  Biso   1.000  H
  C179     1.0000 0.38950  0.14140  0.80407  Biso   1.000  C
  H203     1.0000 0.43350  0.17730  0.80157  Biso   1.000  H
  C180     1.0000 0.34440  0.14400  0.84417  Biso   1.000  C
  H204     1.0000 0.35820  0.18160  0.86867  Biso   1.000  H
  C181     1.0000 0.07685  0.15370  0.25000  Biso   1.000  C
  H205     1.0000 0.10030  0.20060  0.25000  Biso   1.000  H
  C182     1.0000 0.00810  0.01620  0.25000  Biso   1.000  C
  H206     1.0000 0.98465  0.96930  0.25000  Biso   1.000  H
  C183     1.0000 0.84630  0.92315  0.58333  Biso   1.000  C
  H207     1.0000 0.79940  0.89970  0.58333  Biso   1.000  H
  C184     1.0000 0.98380  0.99190  0.58333  Biso   1.000  C
  H208     1.0000 0.03070  0.01535  0.58333  Biso   1.000  H
  C185     1.0000 0.07685  0.92315  0.91667  Biso   1.000  C
  H209     1.0000 0.10030  0.89970  0.91667  Biso   1.000  H
  C186     1.0000 0.00810  0.99190  0.91667  Biso   1.000  C
  H210     1.0000 0.98465  0.01535  0.91667  Biso   1.000  H
  C187     1.0000 0.92315  0.84630  0.75000  Biso   1.000  C
  H211     1.0000 0.89970  0.79940  0.75000  Biso   1.000  H
  C188     1.0000 0.99190  0.98380  0.75000  Biso   1.000  C
  H212     1.0000 0.01535  0.03070  0.75000  Biso   1.000  H
  C189     1.0000 0.15370  0.07685  0.08333  Biso   1.000  C
  H213     1.0000 0.20060  0.10030  0.08333  Biso   1.000  H
  C190     1.0000 0.01620  0.00810  0.08333  Biso   1.000  C
  H214     1.0000 0.96930  0.98465  0.08333  Biso   1.000  H
  C191     1.0000 0.92315  0.07685  0.41667  Biso   1.000  C
  H215     1.0000 0.89970  0.10030  0.41667  Biso   1.000  H
  C192     1.0000 0.99190  0.00810  0.41667  Biso   1.000  C
  H216     1.0000 0.01535  0.98465  0.41667  Biso   1.000  H
