data_image0
_cell_length_a       22.22
_cell_length_b       22.22
_cell_length_c       22.487
_cell_angle_alpha    90
_cell_angle_beta     90
_cell_angle_gamma    120

_symmetry_space_group_name_H-M    "P 1"
_symmetry_int_tables_number       1

loop_
  _symmetry_equiv_pos_as_xyz
  'x, y, z'

loop_
  _atom_site_label
  _atom_site_occupancy
  _atom_site_fract_x
  _atom_site_fract_y
  _atom_site_fract_z
  _atom_site_thermal_displace_type
  _atom_site_B_iso_or_equiv
  _atom_site_type_symbol
  I1       1.0000 0.39077  0.23829  0.49576  Biso   1.000  I
  I2       1.0000 0.56337  0.37383  0.62163  Biso   1.000  I
  Cu1      1.0000 0.52290  0.28471  0.53072  Biso   1.000  Cu
  Cu2      1.0000 0.42842  0.26793  0.60888  Biso   1.000  Cu
  N1       1.0000 0.58190  0.34340  0.46010  Biso   1.000  N
  N2       1.0000 0.37560  0.31210  0.64360  Biso   1.000  N
  C1       1.0000 0.57020  0.29950  0.40810  Biso   1.000  C
  H1       1.0000 0.52220  0.27900  0.39530  Biso   1.000  H
  H2       1.0000 0.57890  0.26210  0.41840  Biso   1.000  H
  C2       1.0000 0.56290  0.39530  0.44420  Biso   1.000  C
  H3       1.0000 0.57250  0.42670  0.47740  Biso   1.000  H
  H4       1.0000 0.51360  0.37260  0.43570  Biso   1.000  H
  C3       1.0000 0.65670  0.38050  0.47700  Biso   1.000  C
  H5       1.0000 0.67180  0.34720  0.48490  Biso   1.000  H
  H6       1.0000 0.66340  0.40740  0.51290  Biso   1.000  H
  C4       1.0000 0.29730  0.26290  0.64960  Biso   1.000  C
  H7       1.0000 0.28900  0.22120  0.67030  Biso   1.000  H
  H8       1.0000 0.27670  0.24960  0.61030  Biso   1.000  H
  C5       1.0000 0.40270  0.34020  0.70440  Biso   1.000  C
  H9       1.0000 0.45300  0.36720  0.70320  Biso   1.000  H
  H10      1.0000 0.38950  0.30180  0.73180  Biso   1.000  H
  C6       1.0000 0.38690  0.37330  0.60600  Biso   1.000  C
  H11      1.0000 0.37550  0.35880  0.56490  Biso   1.000  H
  H12      1.0000 0.43530  0.40930  0.60790  Biso   1.000  H
  I3       1.0000 0.76171  0.15248  0.82909  Biso   1.000  I
  I4       1.0000 0.62617  0.18954  0.95496  Biso   1.000  I
  Cu3      1.0000 0.71529  0.23819  0.86405  Biso   1.000  Cu
  Cu4      1.0000 0.73207  0.16049  0.94221  Biso   1.000  Cu
  N3       1.0000 0.65660  0.23850  0.79343  Biso   1.000  N
  N4       1.0000 0.68790  0.06350  0.97693  Biso   1.000  N
  C7       1.0000 0.70050  0.27070  0.74143  Biso   1.000  C
  H13      1.0000 0.72100  0.24320  0.72863  Biso   1.000  H
  H14      1.0000 0.73790  0.31680  0.75173  Biso   1.000  H
  C8       1.0000 0.60470  0.16760  0.77753  Biso   1.000  C
  H15      1.0000 0.57330  0.14580  0.81073  Biso   1.000  H
  H16      1.0000 0.62740  0.14100  0.76903  Biso   1.000  H
  C9       1.0000 0.61950  0.27620  0.81033  Biso   1.000  C
  H17      1.0000 0.65280  0.32460  0.81823  Biso   1.000  H
  H18      1.0000 0.59260  0.25600  0.84623  Biso   1.000  H
  C10      1.0000 0.73710  0.03440  0.98293  Biso   1.000  C
  H19      1.0000 0.77880  0.06780  0.00363  Biso   1.000  H
  H20      1.0000 0.75040  0.02710  0.94363  Biso   1.000  H
  C11      1.0000 0.65980  0.06250  0.03773  Biso   1.000  C
  H21      1.0000 0.63280  0.08580  0.03653  Biso   1.000  H
  H22      1.0000 0.69820  0.08770  0.06513  Biso   1.000  H
  C12      1.0000 0.62670  0.01360  0.93933  Biso   1.000  C
  H23      1.0000 0.64120  0.01670  0.89823  Biso   1.000  H
  H24      1.0000 0.59070  0.02600  0.94123  Biso   1.000  H
  I5       1.0000 0.84752  0.60923  0.16243  Biso   1.000  I
  I6       1.0000 0.81046  0.43663  0.28830  Biso   1.000  I
  Cu5      1.0000 0.76181  0.47710  0.19739  Biso   1.000  Cu
  Cu6      1.0000 0.83951  0.57158  0.27555  Biso   1.000  Cu
  N5       1.0000 0.76150  0.41810  0.12677  Biso   1.000  N
  N6       1.0000 0.93650  0.62440  0.31027  Biso   1.000  N
  C13      1.0000 0.72930  0.42980  0.07477  Biso   1.000  C
  H25      1.0000 0.75680  0.47780  0.06197  Biso   1.000  H
  H26      1.0000 0.68320  0.42110  0.08507  Biso   1.000  H
  C14      1.0000 0.83240  0.43710  0.11087  Biso   1.000  C
  H27      1.0000 0.85420  0.42750  0.14407  Biso   1.000  H
  H28      1.0000 0.85900  0.48640  0.10237  Biso   1.000  H
  C15      1.0000 0.72380  0.34330  0.14367  Biso   1.000  C
  H29      1.0000 0.67540  0.32820  0.15157  Biso   1.000  H
  H30      1.0000 0.74400  0.33660  0.17957  Biso   1.000  H
  C16      1.0000 0.96560  0.70270  0.31627  Biso   1.000  C
  H31      1.0000 0.93220  0.71100  0.33697  Biso   1.000  H
  H32      1.0000 0.97290  0.72330  0.27697  Biso   1.000  H
  C17      1.0000 0.93750  0.59730  0.37107  Biso   1.000  C
  H33      1.0000 0.91420  0.54700  0.36987  Biso   1.000  H
  H34      1.0000 0.91230  0.61050  0.39847  Biso   1.000  H
  C18      1.0000 0.98640  0.61310  0.27267  Biso   1.000  C
  H35      1.0000 0.98330  0.62450  0.23157  Biso   1.000  H
  H36      1.0000 0.97400  0.56470  0.27457  Biso   1.000  H
  I7       1.0000 0.60923  0.76171  0.99576  Biso   1.000  I
  I8       1.0000 0.43663  0.62617  0.12163  Biso   1.000  I
  Cu7      1.0000 0.47710  0.71529  0.03072  Biso   1.000  Cu
  Cu8      1.0000 0.57158  0.73207  0.10888  Biso   1.000  Cu
  N7       1.0000 0.41810  0.65660  0.96010  Biso   1.000  N
  N8       1.0000 0.62440  0.68790  0.14360  Biso   1.000  N
  C19      1.0000 0.42980  0.70050  0.90810  Biso   1.000  C
  H37      1.0000 0.47780  0.72100  0.89530  Biso   1.000  H
  H38      1.0000 0.42110  0.73790  0.91840  Biso   1.000  H
  C20      1.0000 0.43710  0.60470  0.94420  Biso   1.000  C
  H39      1.0000 0.42750  0.57330  0.97740  Biso   1.000  H
  H40      1.0000 0.48640  0.62740  0.93570  Biso   1.000  H
  C21      1.0000 0.34330  0.61950  0.97700  Biso   1.000  C
  H41      1.0000 0.32820  0.65280  0.98490  Biso   1.000  H
  H42      1.0000 0.33660  0.59260  0.01290  Biso   1.000  H
  C22      1.0000 0.70270  0.73710  0.14960  Biso   1.000  C
  H43      1.0000 0.71100  0.77880  0.17030  Biso   1.000  H
  H44      1.0000 0.72330  0.75040  0.11030  Biso   1.000  H
  C23      1.0000 0.59730  0.65980  0.20440  Biso   1.000  C
  H45      1.0000 0.54700  0.63280  0.20320  Biso   1.000  H
  H46      1.0000 0.61050  0.69820  0.23180  Biso   1.000  H
  C24      1.0000 0.61310  0.62670  0.10600  Biso   1.000  C
  H47      1.0000 0.62450  0.64120  0.06490  Biso   1.000  H
  H48      1.0000 0.56470  0.59070  0.10790  Biso   1.000  H
  I9       1.0000 0.23829  0.84752  0.32909  Biso   1.000  I
  I10      1.0000 0.37383  0.81046  0.45496  Biso   1.000  I
  Cu9      1.0000 0.28471  0.76181  0.36405  Biso   1.000  Cu
  Cu10     1.0000 0.26793  0.83951  0.44221  Biso   1.000  Cu
  N9       1.0000 0.34340  0.76150  0.29343  Biso   1.000  N
  N10      1.0000 0.31210  0.93650  0.47693  Biso   1.000  N
  C25      1.0000 0.29950  0.72930  0.24143  Biso   1.000  C
  H49      1.0000 0.27900  0.75680  0.22863  Biso   1.000  H
  H50      1.0000 0.26210  0.68320  0.25173  Biso   1.000  H
  C26      1.0000 0.39530  0.83240  0.27753  Biso   1.000  C
  H51      1.0000 0.42670  0.85420  0.31073  Biso   1.000  H
  H52      1.0000 0.37260  0.85900  0.26903  Biso   1.000  H
  C27      1.0000 0.38050  0.72380  0.31033  Biso   1.000  C
  H53      1.0000 0.34720  0.67540  0.31823  Biso   1.000  H
  H54      1.0000 0.40740  0.74400  0.34623  Biso   1.000  H
  C28      1.0000 0.26290  0.96560  0.48293  Biso   1.000  C
  H55      1.0000 0.22120  0.93220  0.50363  Biso   1.000  H
  H56      1.0000 0.24960  0.97290  0.44363  Biso   1.000  H
  C29      1.0000 0.34020  0.93750  0.53773  Biso   1.000  C
  H57      1.0000 0.36720  0.91420  0.53653  Biso   1.000  H
  H58      1.0000 0.30180  0.91230  0.56513  Biso   1.000  H
  C30      1.0000 0.37330  0.98640  0.43933  Biso   1.000  C
  H59      1.0000 0.35880  0.98330  0.39823  Biso   1.000  H
  H60      1.0000 0.40930  0.97400  0.44123  Biso   1.000  H
  I11      1.0000 0.15248  0.39077  0.66243  Biso   1.000  I
  I12      1.0000 0.18954  0.56337  0.78830  Biso   1.000  I
  Cu11     1.0000 0.23819  0.52290  0.69739  Biso   1.000  Cu
  Cu12     1.0000 0.16049  0.42842  0.77555  Biso   1.000  Cu
  N11      1.0000 0.23850  0.58190  0.62677  Biso   1.000  N
  N12      1.0000 0.06350  0.37560  0.81027  Biso   1.000  N
  C31      1.0000 0.27070  0.57020  0.57477  Biso   1.000  C
  H61      1.0000 0.24320  0.52220  0.56197  Biso   1.000  H
  H62      1.0000 0.31680  0.57890  0.58507  Biso   1.000  H
  C32      1.0000 0.16760  0.56290  0.61087  Biso   1.000  C
  H63      1.0000 0.14580  0.57250  0.64407  Biso   1.000  H
  H64      1.0000 0.14100  0.51360  0.60237  Biso   1.000  H
  C33      1.0000 0.27620  0.65670  0.64367  Biso   1.000  C
  H65      1.0000 0.32460  0.67180  0.65157  Biso   1.000  H
  H66      1.0000 0.25600  0.66340  0.67957  Biso   1.000  H
  C34      1.0000 0.03440  0.29730  0.81627  Biso   1.000  C
  H67      1.0000 0.06780  0.28900  0.83697  Biso   1.000  H
  H68      1.0000 0.02710  0.27670  0.77697  Biso   1.000  H
  C35      1.0000 0.06250  0.40270  0.87107  Biso   1.000  C
  H69      1.0000 0.08580  0.45300  0.86987  Biso   1.000  H
  H70      1.0000 0.08770  0.38950  0.89847  Biso   1.000  H
  C36      1.0000 0.01360  0.38690  0.77267  Biso   1.000  C
  H71      1.0000 0.01670  0.37550  0.73157  Biso   1.000  H
  H72      1.0000 0.02600  0.43530  0.77457  Biso   1.000  H
  I13      1.0000 0.23829  0.39077  0.83757  Biso   1.000  I
  I14      1.0000 0.37383  0.56337  0.71170  Biso   1.000  I
  Cu13     1.0000 0.28471  0.52290  0.80261  Biso   1.000  Cu
  Cu14     1.0000 0.26793  0.42842  0.72445  Biso   1.000  Cu
  N13      1.0000 0.34340  0.58190  0.87323  Biso   1.000  N
  N14      1.0000 0.31210  0.37560  0.68973  Biso   1.000  N
  C37      1.0000 0.29950  0.57020  0.92523  Biso   1.000  C
  H73      1.0000 0.27900  0.52220  0.93803  Biso   1.000  H
  H74      1.0000 0.26210  0.57890  0.91493  Biso   1.000  H
  C38      1.0000 0.39530  0.56290  0.88913  Biso   1.000  C
  H75      1.0000 0.42670  0.57250  0.85593  Biso   1.000  H
  H76      1.0000 0.37260  0.51360  0.89763  Biso   1.000  H
  C39      1.0000 0.38050  0.65670  0.85633  Biso   1.000  C
  H77      1.0000 0.34720  0.67180  0.84843  Biso   1.000  H
  H78      1.0000 0.40740  0.66340  0.82043  Biso   1.000  H
  C40      1.0000 0.26290  0.29730  0.68373  Biso   1.000  C
  H79      1.0000 0.22120  0.28900  0.66303  Biso   1.000  H
  H80      1.0000 0.24960  0.27670  0.72303  Biso   1.000  H
  C41      1.0000 0.34020  0.40270  0.62893  Biso   1.000  C
  H81      1.0000 0.36720  0.45300  0.63013  Biso   1.000  H
  H82      1.0000 0.30180  0.38950  0.60153  Biso   1.000  H
  C42      1.0000 0.37330  0.38690  0.72733  Biso   1.000  C
  H83      1.0000 0.35880  0.37550  0.76843  Biso   1.000  H
  H84      1.0000 0.40930  0.43530  0.72543  Biso   1.000  H
  I15      1.0000 0.15248  0.76171  0.50424  Biso   1.000  I
  I16      1.0000 0.18954  0.62617  0.37837  Biso   1.000  I
  Cu15     1.0000 0.23819  0.71529  0.46928  Biso   1.000  Cu
  Cu16     1.0000 0.16049  0.73207  0.39112  Biso   1.000  Cu
  N15      1.0000 0.23850  0.65660  0.53990  Biso   1.000  N
  N16      1.0000 0.06350  0.68790  0.35640  Biso   1.000  N
  C43      1.0000 0.27070  0.70050  0.59190  Biso   1.000  C
  H85      1.0000 0.24320  0.72100  0.60470  Biso   1.000  H
  H86      1.0000 0.31680  0.73790  0.58160  Biso   1.000  H
  C44      1.0000 0.16760  0.60470  0.55580  Biso   1.000  C
  H87      1.0000 0.14580  0.57330  0.52260  Biso   1.000  H
  H88      1.0000 0.14100  0.62740  0.56430  Biso   1.000  H
  C45      1.0000 0.27620  0.61950  0.52300  Biso   1.000  C
  H89      1.0000 0.32460  0.65280  0.51510  Biso   1.000  H
  H90      1.0000 0.25600  0.59260  0.48710  Biso   1.000  H
  C46      1.0000 0.03440  0.73710  0.35040  Biso   1.000  C
  H91      1.0000 0.06780  0.77880  0.32970  Biso   1.000  H
  H92      1.0000 0.02710  0.75040  0.38970  Biso   1.000  H
  C47      1.0000 0.06250  0.65980  0.29560  Biso   1.000  C
  H93      1.0000 0.08580  0.63280  0.29680  Biso   1.000  H
  H94      1.0000 0.08770  0.69820  0.26820  Biso   1.000  H
  C48      1.0000 0.01360  0.62670  0.39400  Biso   1.000  C
  H95      1.0000 0.01670  0.64120  0.43510  Biso   1.000  H
  H96      1.0000 0.02600  0.59070  0.39210  Biso   1.000  H
  I17      1.0000 0.60923  0.84752  0.17091  Biso   1.000  I
  I18      1.0000 0.43663  0.81046  0.04504  Biso   1.000  I
  Cu17     1.0000 0.47710  0.76181  0.13595  Biso   1.000  Cu
  Cu18     1.0000 0.57158  0.83951  0.05779  Biso   1.000  Cu
  N17      1.0000 0.41810  0.76150  0.20657  Biso   1.000  N
  N18      1.0000 0.62440  0.93650  0.02307  Biso   1.000  N
  C49      1.0000 0.42980  0.72930  0.25857  Biso   1.000  C
  H97      1.0000 0.47780  0.75680  0.27137  Biso   1.000  H
  H98      1.0000 0.42110  0.68320  0.24827  Biso   1.000  H
  C50      1.0000 0.43710  0.83240  0.22247  Biso   1.000  C
  H99      1.0000 0.42750  0.85420  0.18927  Biso   1.000  H
  H100     1.0000 0.48640  0.85900  0.23097  Biso   1.000  H
  C51      1.0000 0.34330  0.72380  0.18967  Biso   1.000  C
  H101     1.0000 0.32820  0.67540  0.18177  Biso   1.000  H
  H102     1.0000 0.33660  0.74400  0.15377  Biso   1.000  H
  C52      1.0000 0.70270  0.96560  0.01707  Biso   1.000  C
  H103     1.0000 0.71100  0.93220  0.99637  Biso   1.000  H
  H104     1.0000 0.72330  0.97290  0.05637  Biso   1.000  H
  C53      1.0000 0.59730  0.93750  0.96227  Biso   1.000  C
  H105     1.0000 0.54700  0.91420  0.96347  Biso   1.000  H
  H106     1.0000 0.61050  0.91230  0.93487  Biso   1.000  H
  C54      1.0000 0.61310  0.98640  0.06067  Biso   1.000  C
  H107     1.0000 0.62450  0.98330  0.10177  Biso   1.000  H
  H108     1.0000 0.56470  0.97400  0.05877  Biso   1.000  H
  I19      1.0000 0.76171  0.60923  0.33757  Biso   1.000  I
  I20      1.0000 0.62617  0.43663  0.21170  Biso   1.000  I
  Cu19     1.0000 0.71529  0.47710  0.30261  Biso   1.000  Cu
  Cu20     1.0000 0.73207  0.57158  0.22445  Biso   1.000  Cu
  N19      1.0000 0.65660  0.41810  0.37323  Biso   1.000  N
  N20      1.0000 0.68790  0.62440  0.18973  Biso   1.000  N
  C55      1.0000 0.70050  0.42980  0.42523  Biso   1.000  C
  H109     1.0000 0.72100  0.47780  0.43803  Biso   1.000  H
  H110     1.0000 0.73790  0.42110  0.41493  Biso   1.000  H
  C56      1.0000 0.60470  0.43710  0.38913  Biso   1.000  C
  H111     1.0000 0.57330  0.42750  0.35593  Biso   1.000  H
  H112     1.0000 0.62740  0.48640  0.39763  Biso   1.000  H
  C57      1.0000 0.61950  0.34330  0.35633  Biso   1.000  C
  H113     1.0000 0.65280  0.32820  0.34843  Biso   1.000  H
  H114     1.0000 0.59260  0.33660  0.32043  Biso   1.000  H
  C58      1.0000 0.73710  0.70270  0.18373  Biso   1.000  C
  H115     1.0000 0.77880  0.71100  0.16303  Biso   1.000  H
  H116     1.0000 0.75040  0.72330  0.22303  Biso   1.000  H
  C59      1.0000 0.65980  0.59730  0.12893  Biso   1.000  C
  H117     1.0000 0.63280  0.54700  0.13013  Biso   1.000  H
  H118     1.0000 0.69820  0.61050  0.10153  Biso   1.000  H
  C60      1.0000 0.62670  0.61310  0.22733  Biso   1.000  C
  H119     1.0000 0.64120  0.62450  0.26843  Biso   1.000  H
  H120     1.0000 0.59070  0.56470  0.22543  Biso   1.000  H
  I21      1.0000 0.84752  0.23829  0.00424  Biso   1.000  I
  I22      1.0000 0.81046  0.37383  0.87837  Biso   1.000  I
  Cu21     1.0000 0.76181  0.28471  0.96928  Biso   1.000  Cu
  Cu22     1.0000 0.83951  0.26793  0.89112  Biso   1.000  Cu
  N21      1.0000 0.76150  0.34340  0.03990  Biso   1.000  N
  N22      1.0000 0.93650  0.31210  0.85640  Biso   1.000  N
  C61      1.0000 0.72930  0.29950  0.09190  Biso   1.000  C
  H121     1.0000 0.75680  0.27900  0.10470  Biso   1.000  H
  H122     1.0000 0.68320  0.26210  0.08160  Biso   1.000  H
  C62      1.0000 0.83240  0.39530  0.05580  Biso   1.000  C
  H123     1.0000 0.85420  0.42670  0.02260  Biso   1.000  H
  H124     1.0000 0.85900  0.37260  0.06430  Biso   1.000  H
  C63      1.0000 0.72380  0.38050  0.02300  Biso   1.000  C
  H125     1.0000 0.67540  0.34720  0.01510  Biso   1.000  H
  H126     1.0000 0.74400  0.40740  0.98710  Biso   1.000  H
  C64      1.0000 0.96560  0.26290  0.85040  Biso   1.000  C
  H127     1.0000 0.93220  0.22120  0.82970  Biso   1.000  H
  H128     1.0000 0.97290  0.24960  0.88970  Biso   1.000  H
  C65      1.0000 0.93750  0.34020  0.79560  Biso   1.000  C
  H129     1.0000 0.91420  0.36720  0.79680  Biso   1.000  H
  H130     1.0000 0.91230  0.30180  0.76820  Biso   1.000  H
  C66      1.0000 0.98640  0.37330  0.89400  Biso   1.000  C
  H131     1.0000 0.98330  0.35880  0.93510  Biso   1.000  H
  H132     1.0000 0.97400  0.40930  0.89210  Biso   1.000  H
  I23      1.0000 0.39077  0.15248  0.67091  Biso   1.000  I
  I24      1.0000 0.56337  0.18954  0.54504  Biso   1.000  I
  Cu23     1.0000 0.52290  0.23819  0.63595  Biso   1.000  Cu
  Cu24     1.0000 0.42842  0.16049  0.55779  Biso   1.000  Cu
  N23      1.0000 0.58190  0.23850  0.70657  Biso   1.000  N
  N24      1.0000 0.37560  0.06350  0.52307  Biso   1.000  N
  C67      1.0000 0.57020  0.27070  0.75857  Biso   1.000  C
  H133     1.0000 0.52220  0.24320  0.77137  Biso   1.000  H
  H134     1.0000 0.57890  0.31680  0.74827  Biso   1.000  H
  C68      1.0000 0.56290  0.16760  0.72247  Biso   1.000  C
  H135     1.0000 0.57250  0.14580  0.68927  Biso   1.000  H
  H136     1.0000 0.51360  0.14100  0.73097  Biso   1.000  H
  C69      1.0000 0.65670  0.27620  0.68967  Biso   1.000  C
  H137     1.0000 0.67180  0.32460  0.68177  Biso   1.000  H
  H138     1.0000 0.66340  0.25600  0.65377  Biso   1.000  H
  C70      1.0000 0.29730  0.03440  0.51707  Biso   1.000  C
  H139     1.0000 0.28900  0.06780  0.49637  Biso   1.000  H
  H140     1.0000 0.27670  0.02710  0.55637  Biso   1.000  H
  C71      1.0000 0.40270  0.06250  0.46227  Biso   1.000  C
  H141     1.0000 0.45300  0.08580  0.46347  Biso   1.000  H
  H142     1.0000 0.38950  0.08770  0.43487  Biso   1.000  H
  C72      1.0000 0.38690  0.01360  0.56067  Biso   1.000  C
  H143     1.0000 0.37550  0.01670  0.60177  Biso   1.000  H
  H144     1.0000 0.43530  0.02600  0.55877  Biso   1.000  H
  Cu25     1.0000 0.85862  0.77425  0.39303  Biso   1.000  Cu
  N25      1.0000 0.80110  0.79270  0.34330  Biso   1.000  N
  N26      1.0000 0.76780  0.85040  0.28340  Biso   1.000  N
  C73      1.0000 0.88890  0.87500  0.27360  Biso   1.000  C
  C74      1.0000 0.92570  0.94910  0.27250  Biso   1.000  C
  H145     1.0000 0.90430  0.97280  0.28710  Biso   1.000  H
  C75      1.0000 0.81760  0.83900  0.29970  Biso   1.000  C
  C76      1.0000 0.73230  0.77270  0.35620  Biso   1.000  C
  C77      1.0000 0.71200  0.80820  0.31940  Biso   1.000  C
  C78      1.0000 0.64460  0.80010  0.32410  Biso   1.000  C
  H146     1.0000 0.63150  0.82570  0.30000  Biso   1.000  H
  C79      1.0000 0.59810  0.75240  0.36600  Biso   1.000  C
  H147     1.0000 0.55310  0.74460  0.36950  Biso   1.000  H
  C80      1.0000 0.62150  0.71700  0.40220  Biso   1.000  C
  H148     1.0000 0.59090  0.68680  0.43060  Biso   1.000  H
  C81      1.0000 0.68710  0.72390  0.39890  Biso   1.000  C
  H149     1.0000 0.70040  0.69830  0.42280  Biso   1.000  H
  Cu26     1.0000 0.22575  0.08437  0.72636  Biso   1.000  Cu
  N27      1.0000 0.20730  0.00840  0.67663  Biso   1.000  N
  N28      1.0000 0.14960  0.91740  0.61673  Biso   1.000  N
  C82      1.0000 0.12500  0.01390  0.60693  Biso   1.000  C
  C83      1.0000 0.05090  0.97660  0.60583  Biso   1.000  C
  H150     1.0000 0.02720  0.93150  0.62043  Biso   1.000  H
  C84      1.0000 0.16100  0.97860  0.63303  Biso   1.000  C
  C85      1.0000 0.22730  0.95960  0.68953  Biso   1.000  C
  C86      1.0000 0.19180  0.90380  0.65273  Biso   1.000  C
  C87      1.0000 0.19990  0.84450  0.65743  Biso   1.000  C
  H151     1.0000 0.17430  0.80580  0.63333  Biso   1.000  H
  C88      1.0000 0.24760  0.84570  0.69933  Biso   1.000  C
  H152     1.0000 0.25540  0.80850  0.70283  Biso   1.000  H
  C89      1.0000 0.28300  0.90450  0.73553  Biso   1.000  C
  H153     1.0000 0.31320  0.90410  0.76393  Biso   1.000  H
  C90      1.0000 0.27610  0.96320  0.73223  Biso   1.000  C
  H154     1.0000 0.30170  0.00210  0.75613  Biso   1.000  H
  Cu27     1.0000 0.91563  0.14138  0.05970  Biso   1.000  Cu
  N29      1.0000 0.99160  0.19890  0.00997  Biso   1.000  N
  N30      1.0000 0.08260  0.23220  0.95007  Biso   1.000  N
  C91      1.0000 0.98610  0.11110  0.94027  Biso   1.000  C
  C92      1.0000 0.02340  0.07430  0.93917  Biso   1.000  C
  H155     1.0000 0.06850  0.09570  0.95377  Biso   1.000  H
  C93      1.0000 0.02140  0.18240  0.96637  Biso   1.000  C
  C94      1.0000 0.04040  0.26770  0.02287  Biso   1.000  C
  C95      1.0000 0.09620  0.28800  0.98607  Biso   1.000  C
  C96      1.0000 0.15550  0.35540  0.99077  Biso   1.000  C
  H156     1.0000 0.19420  0.36850  0.96667  Biso   1.000  H
  C97      1.0000 0.15430  0.40190  0.03267  Biso   1.000  C
  H157     1.0000 0.19150  0.44690  0.03617  Biso   1.000  H
  C98      1.0000 0.09550  0.37850  0.06887  Biso   1.000  C
  H158     1.0000 0.09590  0.40910  0.09727  Biso   1.000  H
  C99      1.0000 0.03680  0.31290  0.06557  Biso   1.000  C
  H159     1.0000 0.99790  0.29960  0.08947  Biso   1.000  H
  Cu28     1.0000 0.14138  0.22575  0.89303  Biso   1.000  Cu
  N31      1.0000 0.19890  0.20730  0.84330  Biso   1.000  N
  N32      1.0000 0.23220  0.14960  0.78340  Biso   1.000  N
  C100     1.0000 0.11110  0.12500  0.77360  Biso   1.000  C
  C101     1.0000 0.07430  0.05090  0.77250  Biso   1.000  C
  H160     1.0000 0.09570  0.02720  0.78710  Biso   1.000  H
  C102     1.0000 0.18240  0.16100  0.79970  Biso   1.000  C
  C103     1.0000 0.26770  0.22730  0.85620  Biso   1.000  C
  C104     1.0000 0.28800  0.19180  0.81940  Biso   1.000  C
  C105     1.0000 0.35540  0.19990  0.82410  Biso   1.000  C
  H161     1.0000 0.36850  0.17430  0.80000  Biso   1.000  H
  C106     1.0000 0.40190  0.24760  0.86600  Biso   1.000  C
  H162     1.0000 0.44690  0.25540  0.86950  Biso   1.000  H
  C107     1.0000 0.37850  0.28300  0.90220  Biso   1.000  C
  H163     1.0000 0.40910  0.31320  0.93060  Biso   1.000  H
  C108     1.0000 0.31290  0.27610  0.89890  Biso   1.000  C
  H164     1.0000 0.29960  0.30170  0.92280  Biso   1.000  H
  Cu29     1.0000 0.77425  0.91563  0.22636  Biso   1.000  Cu
  N33      1.0000 0.79270  0.99160  0.17663  Biso   1.000  N
  N34      1.0000 0.85040  0.08260  0.11673  Biso   1.000  N
  C109     1.0000 0.87500  0.98610  0.10693  Biso   1.000  C
  C110     1.0000 0.94910  0.02340  0.10583  Biso   1.000  C
  H165     1.0000 0.97280  0.06850  0.12043  Biso   1.000  H
  C111     1.0000 0.83900  0.02140  0.13303  Biso   1.000  C
  C112     1.0000 0.77270  0.04040  0.18953  Biso   1.000  C
  C113     1.0000 0.80820  0.09620  0.15273  Biso   1.000  C
  C114     1.0000 0.80010  0.15550  0.15743  Biso   1.000  C
  H166     1.0000 0.82570  0.19420  0.13333  Biso   1.000  H
  C115     1.0000 0.75240  0.15430  0.19933  Biso   1.000  C
  H167     1.0000 0.74460  0.19150  0.20283  Biso   1.000  H
  C116     1.0000 0.71700  0.09550  0.23553  Biso   1.000  C
  H168     1.0000 0.68680  0.09590  0.26393  Biso   1.000  H
  C117     1.0000 0.72390  0.03680  0.23223  Biso   1.000  C
  H169     1.0000 0.69830  0.99790  0.25613  Biso   1.000  H
  Cu30     1.0000 0.08437  0.85862  0.55970  Biso   1.000  Cu
  N35      1.0000 0.00840  0.80110  0.50997  Biso   1.000  N
  N36      1.0000 0.91740  0.76780  0.45007  Biso   1.000  N
  C118     1.0000 0.01390  0.88890  0.44027  Biso   1.000  C
  C119     1.0000 0.97660  0.92570  0.43917  Biso   1.000  C
  H170     1.0000 0.93150  0.90430  0.45377  Biso   1.000  H
  C120     1.0000 0.97860  0.81760  0.46637  Biso   1.000  C
  C121     1.0000 0.95960  0.73230  0.52287  Biso   1.000  C
  C122     1.0000 0.90380  0.71200  0.48607  Biso   1.000  C
  C123     1.0000 0.84450  0.64460  0.49077  Biso   1.000  C
  H171     1.0000 0.80580  0.63150  0.46667  Biso   1.000  H
  C124     1.0000 0.84570  0.59810  0.53267  Biso   1.000  C
  H172     1.0000 0.80850  0.55310  0.53617  Biso   1.000  H
  C125     1.0000 0.90450  0.62150  0.56887  Biso   1.000  C
  H173     1.0000 0.90410  0.59090  0.59727  Biso   1.000  H
  C126     1.0000 0.96320  0.68710  0.56557  Biso   1.000  C
  H174     1.0000 0.00210  0.70040  0.58947  Biso   1.000  H
  Cu31     1.0000 0.77425  0.85862  0.94030  Biso   1.000  Cu
  N37      1.0000 0.79270  0.80110  0.99003  Biso   1.000  N
  N38      1.0000 0.85040  0.76780  0.04993  Biso   1.000  N
  C127     1.0000 0.87500  0.88890  0.05973  Biso   1.000  C
  C128     1.0000 0.94910  0.92570  0.06083  Biso   1.000  C
  H175     1.0000 0.97280  0.90430  0.04623  Biso   1.000  H
  C129     1.0000 0.83900  0.81760  0.03363  Biso   1.000  C
  C130     1.0000 0.77270  0.73230  0.97713  Biso   1.000  C
  C131     1.0000 0.80820  0.71200  0.01393  Biso   1.000  C
  C132     1.0000 0.80010  0.64460  0.00923  Biso   1.000  C
  H176     1.0000 0.82570  0.63150  0.03333  Biso   1.000  H
  C133     1.0000 0.75240  0.59810  0.96733  Biso   1.000  C
  H177     1.0000 0.74460  0.55310  0.96383  Biso   1.000  H
  C134     1.0000 0.71700  0.62150  0.93113  Biso   1.000  C
  H178     1.0000 0.68680  0.59090  0.90273  Biso   1.000  H
  C135     1.0000 0.72390  0.68710  0.93443  Biso   1.000  C
  H179     1.0000 0.69830  0.70040  0.91053  Biso   1.000  H
  Cu32     1.0000 0.08437  0.22575  0.60697  Biso   1.000  Cu
  N39      1.0000 0.00840  0.20730  0.65670  Biso   1.000  N
  N40      1.0000 0.91740  0.14960  0.71660  Biso   1.000  N
  C136     1.0000 0.01390  0.12500  0.72640  Biso   1.000  C
  C137     1.0000 0.97660  0.05090  0.72750  Biso   1.000  C
  H180     1.0000 0.93150  0.02720  0.71290  Biso   1.000  H
  C138     1.0000 0.97860  0.16100  0.70030  Biso   1.000  C
  C139     1.0000 0.95960  0.22730  0.64380  Biso   1.000  C
  C140     1.0000 0.90380  0.19180  0.68060  Biso   1.000  C
  C141     1.0000 0.84450  0.19990  0.67590  Biso   1.000  C
  H181     1.0000 0.80580  0.17430  0.70000  Biso   1.000  H
  C142     1.0000 0.84570  0.24760  0.63400  Biso   1.000  C
  H182     1.0000 0.80850  0.25540  0.63050  Biso   1.000  H
  C143     1.0000 0.90450  0.28300  0.59780  Biso   1.000  C
  H183     1.0000 0.90410  0.31320  0.56940  Biso   1.000  H
  C144     1.0000 0.96320  0.27610  0.60110  Biso   1.000  C
  H184     1.0000 0.00210  0.30170  0.57720  Biso   1.000  H
  Cu33     1.0000 0.14138  0.91563  0.27364  Biso   1.000  Cu
  N41      1.0000 0.19890  0.99160  0.32337  Biso   1.000  N
  N42      1.0000 0.23220  0.08260  0.38327  Biso   1.000  N
  C145     1.0000 0.11110  0.98610  0.39307  Biso   1.000  C
  C146     1.0000 0.07430  0.02340  0.39417  Biso   1.000  C
  H185     1.0000 0.09570  0.06850  0.37957  Biso   1.000  H
  C147     1.0000 0.18240  0.02140  0.36697  Biso   1.000  C
  C148     1.0000 0.26770  0.04040  0.31047  Biso   1.000  C
  C149     1.0000 0.28800  0.09620  0.34727  Biso   1.000  C
  C150     1.0000 0.35540  0.15550  0.34257  Biso   1.000  C
  H186     1.0000 0.36850  0.19420  0.36667  Biso   1.000  H
  C151     1.0000 0.40190  0.15430  0.30067  Biso   1.000  C
  H187     1.0000 0.44690  0.19150  0.29717  Biso   1.000  H
  C152     1.0000 0.37850  0.09550  0.26447  Biso   1.000  C
  H188     1.0000 0.40910  0.09590  0.23607  Biso   1.000  H
  C153     1.0000 0.31290  0.03680  0.26777  Biso   1.000  C
  H189     1.0000 0.29960  0.99790  0.24387  Biso   1.000  H
  Cu34     1.0000 0.22575  0.14138  0.44030  Biso   1.000  Cu
  N43      1.0000 0.20730  0.19890  0.49003  Biso   1.000  N
  N44      1.0000 0.14960  0.23220  0.54993  Biso   1.000  N
  C154     1.0000 0.12500  0.11110  0.55973  Biso   1.000  C
  C155     1.0000 0.05090  0.07430  0.56083  Biso   1.000  C
  H190     1.0000 0.02720  0.09570  0.54623  Biso   1.000  H
  C156     1.0000 0.16100  0.18240  0.53363  Biso   1.000  C
  C157     1.0000 0.22730  0.26770  0.47713  Biso   1.000  C
  C158     1.0000 0.19180  0.28800  0.51393  Biso   1.000  C
  C159     1.0000 0.19990  0.35540  0.50923  Biso   1.000  C
  H191     1.0000 0.17430  0.36850  0.53333  Biso   1.000  H
  C160     1.0000 0.24760  0.40190  0.46733  Biso   1.000  C
  H192     1.0000 0.25540  0.44690  0.46383  Biso   1.000  H
  C161     1.0000 0.28300  0.37850  0.43113  Biso   1.000  C
  H193     1.0000 0.31320  0.40910  0.40273  Biso   1.000  H
  C162     1.0000 0.27610  0.31290  0.43443  Biso   1.000  C
  H194     1.0000 0.30170  0.29960  0.41053  Biso   1.000  H
  Cu35     1.0000 0.91563  0.77425  0.10697  Biso   1.000  Cu
  N45      1.0000 0.99160  0.79270  0.15670  Biso   1.000  N
  N46      1.0000 0.08260  0.85040  0.21660  Biso   1.000  N
  C163     1.0000 0.98610  0.87500  0.22640  Biso   1.000  C
  C164     1.0000 0.02340  0.94910  0.22750  Biso   1.000  C
  H195     1.0000 0.06850  0.97280  0.21290  Biso   1.000  H
  C165     1.0000 0.02140  0.83900  0.20030  Biso   1.000  C
  C166     1.0000 0.04040  0.77270  0.14380  Biso   1.000  C
  C167     1.0000 0.09620  0.80820  0.18060  Biso   1.000  C
  C168     1.0000 0.15550  0.80010  0.17590  Biso   1.000  C
  H196     1.0000 0.19420  0.82570  0.20000  Biso   1.000  H
  C169     1.0000 0.15430  0.75240  0.13400  Biso   1.000  C
  H197     1.0000 0.19150  0.74460  0.13050  Biso   1.000  H
  C170     1.0000 0.09550  0.71700  0.09780  Biso   1.000  C
  H198     1.0000 0.09590  0.68680  0.06940  Biso   1.000  H
  C171     1.0000 0.03680  0.72390  0.10110  Biso   1.000  C
  H199     1.0000 0.99790  0.69830  0.07720  Biso   1.000  H
  Cu36     1.0000 0.85862  0.08437  0.77364  Biso   1.000  Cu
  N47      1.0000 0.80110  0.00840  0.82337  Biso   1.000  N
  N48      1.0000 0.76780  0.91740  0.88327  Biso   1.000  N
  C172     1.0000 0.88890  0.01390  0.89307  Biso   1.000  C
  C173     1.0000 0.92570  0.97660  0.89417  Biso   1.000  C
  H200     1.0000 0.90430  0.93150  0.87957  Biso   1.000  H
  C174     1.0000 0.81760  0.97860  0.86697  Biso   1.000  C
  C175     1.0000 0.73230  0.95960  0.81047  Biso   1.000  C
  C176     1.0000 0.71200  0.90380  0.84727  Biso   1.000  C
  C177     1.0000 0.64460  0.84450  0.84257  Biso   1.000  C
  H201     1.0000 0.63150  0.80580  0.86667  Biso   1.000  H
  C178     1.0000 0.59810  0.84570  0.80067  Biso   1.000  C
  H202     1.0000 0.55310  0.80850  0.79717  Biso   1.000  H
  C179     1.0000 0.62150  0.90450  0.76447  Biso   1.000  C
  H203     1.0000 0.59090  0.90410  0.73607  Biso   1.000  H
  C180     1.0000 0.68710  0.96320  0.76777  Biso   1.000  C
  H204     1.0000 0.70040  0.00210  0.74387  Biso   1.000  H
  C181     1.0000 0.99350  0.98700  0.25000  Biso   1.000  C
  H205     1.0000 0.01770  0.03540  0.25000  Biso   1.000  H
  C182     1.0000 0.92165  0.84330  0.25000  Biso   1.000  C
  H206     1.0000 0.89750  0.79500  0.25000  Biso   1.000  H
  C183     1.0000 0.01300  0.00650  0.58333  Biso   1.000  C
  H207     1.0000 0.96460  0.98230  0.58333  Biso   1.000  H
  C184     1.0000 0.15670  0.07835  0.58333  Biso   1.000  C
  H208     1.0000 0.20500  0.10250  0.58333  Biso   1.000  H
  C185     1.0000 0.99350  0.00650  0.91667  Biso   1.000  C
  H209     1.0000 0.01770  0.98230  0.91667  Biso   1.000  H
  C186     1.0000 0.92165  0.07835  0.91667  Biso   1.000  C
  H210     1.0000 0.89750  0.10250  0.91667  Biso   1.000  H
  C187     1.0000 0.00650  0.01300  0.75000  Biso   1.000  C
  H211     1.0000 0.98230  0.96460  0.75000  Biso   1.000  H
  C188     1.0000 0.07835  0.15670  0.75000  Biso   1.000  C
  H212     1.0000 0.10250  0.20500  0.75000  Biso   1.000  H
  C189     1.0000 0.98700  0.99350  0.08333  Biso   1.000  C
  H213     1.0000 0.03540  0.01770  0.08333  Biso   1.000  H
  C190     1.0000 0.84330  0.92165  0.08333  Biso   1.000  C
  H214     1.0000 0.79500  0.89750  0.08333  Biso   1.000  H
  C191     1.0000 0.00650  0.99350  0.41667  Biso   1.000  C
  H215     1.0000 0.98230  0.01770  0.41667  Biso   1.000  H
  C192     1.0000 0.07835  0.92165  0.41667  Biso   1.000  C
  H216     1.0000 0.10250  0.89750  0.41667  Biso   1.000  H
