data_image0
_cell_length_a       10.3287
_cell_length_b       11.7366
_cell_length_c       20.3354
_cell_angle_alpha    90
_cell_angle_beta     90
_cell_angle_gamma    90

_symmetry_space_group_name_H-M    "P 1"
_symmetry_int_tables_number       1

loop_
  _symmetry_equiv_pos_as_xyz
  'x, y, z'

loop_
  _atom_site_label
  _atom_site_occupancy
  _atom_site_fract_x
  _atom_site_fract_y
  _atom_site_fract_z
  _atom_site_thermal_displace_type
  _atom_site_B_iso_or_equiv
  _atom_site_type_symbol
  Zn1      1.0000 0.96092  0.42088  0.50681  Biso   1.000  Zn
  Zn2      1.0000 0.64691  0.32501  0.51018  Biso   1.000  Zn
  O1       1.0000 0.84480  0.27080  0.50718  Biso   1.000  O
  O2       1.0000 0.96270  0.12310  0.47352  Biso   1.000  O
  O3       1.0000 0.62470  0.16070  0.49312  Biso   1.000  O
  C1       1.0000 0.85810  0.17120  0.48392  Biso   1.000  C
  C2       1.0000 0.73460  0.10720  0.46520  Biso   1.000  C
  H1       1.0000 0.74040  0.02770  0.48260  Biso   1.000  H
  C3       1.0000 0.72490  0.10190  0.39000  Biso   1.000  C
  H2       1.0000 0.64640  0.06030  0.37750  Biso   1.000  H
  H3       1.0000 0.80100  0.06250  0.37230  Biso   1.000  H
  H4       1.0000 0.72120  0.17940  0.37220  Biso   1.000  H
  O4       1.0000 0.87650  0.45780  0.42154  Biso   1.000  O
  O5       1.0000 0.66490  0.41540  0.42778  Biso   1.000  O
  C4       1.0000 0.76530  0.44720  0.39811  Biso   1.000  C
  C5       1.0000 0.74990  0.47610  0.32630  Biso   1.000  C
  C6       1.0000 0.85680  0.51090  0.29000  Biso   1.000  C
  H5       1.0000 0.93880  0.51830  0.31070  Biso   1.000  H
  C7       1.0000 0.84370  0.53520  0.22320  Biso   1.000  C
  H6       1.0000 0.91740  0.55710  0.19830  Biso   1.000  H
  C8       1.0000 0.72500  0.52760  0.19310  Biso   1.000  C
  C9       1.0000 0.61730  0.49250  0.22900  Biso   1.000  C
  H7       1.0000 0.53500  0.48680  0.20830  Biso   1.000  H
  C10      1.0000 0.63080  0.46570  0.29540  Biso   1.000  C
  H8       1.0000 0.55780  0.44010  0.31960  Biso   1.000  H
  C11      1.0000 0.71190  0.55550  0.12110  Biso   1.000  C
  O6       1.0000 0.60530  0.53570  0.09471  Biso   1.000  O
  O7       1.0000 0.81100  0.59620  0.09416  Biso   1.000  O
  O8       1.0000 0.04650  0.58440  0.50214  Biso   1.000  O
  C12      1.0000 0.01980  0.66190  0.46550  Biso   1.000  C
  H9       1.0000 0.94980  0.64900  0.43610  Biso   1.000  H
  N1       1.0000 0.07740  0.76400  0.46150  Biso   1.000  N
  C13      1.0000 0.18310  0.78940  0.50910  Biso   1.000  C
  H10      1.0000 0.21690  0.86610  0.50080  Biso   1.000  H
  H11      1.0000 0.25290  0.73350  0.50370  Biso   1.000  H
  H12      1.0000 0.14920  0.78510  0.55400  Biso   1.000  H
  C14      1.0000 0.04440  0.84650  0.41140  Biso   1.000  C
  H13      1.0000 0.09770  0.91490  0.41700  Biso   1.000  H
  H14      1.0000 0.95270  0.86690  0.41530  Biso   1.000  H
  H15      1.0000 0.06050  0.81360  0.36780  Biso   1.000  H
  Zn3      1.0000 0.53908  0.57912  0.00681  Biso   1.000  Zn
  Zn4      1.0000 0.85309  0.67499  0.01018  Biso   1.000  Zn
  O9       1.0000 0.65520  0.72920  0.00718  Biso   1.000  O
  O10      1.0000 0.53730  0.87690  0.97352  Biso   1.000  O
  O11      1.0000 0.87530  0.83930  0.99312  Biso   1.000  O
  C15      1.0000 0.64190  0.82880  0.98392  Biso   1.000  C
  C16      1.0000 0.76540  0.89280  0.96520  Biso   1.000  C
  H16      1.0000 0.75960  0.97230  0.98260  Biso   1.000  H
  C17      1.0000 0.77510  0.89810  0.89000  Biso   1.000  C
  H17      1.0000 0.85360  0.93970  0.87750  Biso   1.000  H
  H18      1.0000 0.69900  0.93750  0.87230  Biso   1.000  H
  H19      1.0000 0.77880  0.82060  0.87220  Biso   1.000  H
  O12      1.0000 0.62350  0.54220  0.92154  Biso   1.000  O
  O13      1.0000 0.83510  0.58460  0.92778  Biso   1.000  O
  C18      1.0000 0.73470  0.55280  0.89811  Biso   1.000  C
  C19      1.0000 0.75010  0.52390  0.82630  Biso   1.000  C
  C20      1.0000 0.64320  0.48910  0.79000  Biso   1.000  C
  H20      1.0000 0.56120  0.48170  0.81070  Biso   1.000  H
  C21      1.0000 0.65630  0.46480  0.72320  Biso   1.000  C
  H21      1.0000 0.58260  0.44290  0.69830  Biso   1.000  H
  C22      1.0000 0.77500  0.47240  0.69310  Biso   1.000  C
  C23      1.0000 0.88270  0.50750  0.72900  Biso   1.000  C
  H22      1.0000 0.96500  0.51320  0.70830  Biso   1.000  H
  C24      1.0000 0.86920  0.53430  0.79540  Biso   1.000  C
  H23      1.0000 0.94220  0.55990  0.81960  Biso   1.000  H
  C25      1.0000 0.78810  0.44450  0.62110  Biso   1.000  C
  O14      1.0000 0.89470  0.46430  0.59471  Biso   1.000  O
  O15      1.0000 0.68900  0.40380  0.59416  Biso   1.000  O
  O16      1.0000 0.45350  0.41560  0.00214  Biso   1.000  O
  C26      1.0000 0.48020  0.33810  0.96550  Biso   1.000  C
  H24      1.0000 0.55020  0.35100  0.93610  Biso   1.000  H
  N2       1.0000 0.42260  0.23600  0.96150  Biso   1.000  N
  C27      1.0000 0.31690  0.21060  0.00910  Biso   1.000  C
  H25      1.0000 0.28310  0.13390  0.00080  Biso   1.000  H
  H26      1.0000 0.24710  0.26650  0.00370  Biso   1.000  H
  H27      1.0000 0.35080  0.21490  0.05400  Biso   1.000  H
  C28      1.0000 0.45560  0.15350  0.91140  Biso   1.000  C
  H28      1.0000 0.40230  0.08510  0.91700  Biso   1.000  H
  H29      1.0000 0.54730  0.13310  0.91530  Biso   1.000  H
  H30      1.0000 0.43950  0.18640  0.86780  Biso   1.000  H
  Zn5      1.0000 0.03908  0.92088  0.99319  Biso   1.000  Zn
  Zn6      1.0000 0.35309  0.82501  0.98982  Biso   1.000  Zn
  O17      1.0000 0.15520  0.77080  0.99282  Biso   1.000  O
  O18      1.0000 0.03730  0.62310  0.02648  Biso   1.000  O
  O19      1.0000 0.37530  0.66070  0.00688  Biso   1.000  O
  C29      1.0000 0.14190  0.67120  0.01608  Biso   1.000  C
  C30      1.0000 0.26540  0.60720  0.03480  Biso   1.000  C
  H31      1.0000 0.25960  0.52770  0.01740  Biso   1.000  H
  C31      1.0000 0.27510  0.60190  0.11000  Biso   1.000  C
  H32      1.0000 0.35360  0.56030  0.12250  Biso   1.000  H
  H33      1.0000 0.19900  0.56250  0.12770  Biso   1.000  H
  H34      1.0000 0.27880  0.67940  0.12780  Biso   1.000  H
  O20      1.0000 0.12350  0.95780  0.07846  Biso   1.000  O
  O21      1.0000 0.33510  0.91540  0.07222  Biso   1.000  O
  C32      1.0000 0.23470  0.94720  0.10189  Biso   1.000  C
  C33      1.0000 0.25010  0.97610  0.17370  Biso   1.000  C
  C34      1.0000 0.14320  0.01090  0.21000  Biso   1.000  C
  H35      1.0000 0.06120  0.01830  0.18930  Biso   1.000  H
  C35      1.0000 0.15630  0.03520  0.27680  Biso   1.000  C
  H36      1.0000 0.08260  0.05710  0.30170  Biso   1.000  H
  C36      1.0000 0.27500  0.02760  0.30690  Biso   1.000  C
  C37      1.0000 0.38270  0.99250  0.27100  Biso   1.000  C
  H37      1.0000 0.46500  0.98680  0.29170  Biso   1.000  H
  C38      1.0000 0.36920  0.96570  0.20460  Biso   1.000  C
  H38      1.0000 0.44220  0.94010  0.18040  Biso   1.000  H
  C39      1.0000 0.28810  0.05550  0.37890  Biso   1.000  C
  O22      1.0000 0.39470  0.03570  0.40529  Biso   1.000  O
  O23      1.0000 0.18900  0.09620  0.40584  Biso   1.000  O
  O24      1.0000 0.95350  0.08440  0.99786  Biso   1.000  O
  C40      1.0000 0.98020  0.16190  0.03450  Biso   1.000  C
  H39      1.0000 0.05020  0.14900  0.06390  Biso   1.000  H
  N3       1.0000 0.92260  0.26400  0.03850  Biso   1.000  N
  C41      1.0000 0.81690  0.28940  0.99090  Biso   1.000  C
  H40      1.0000 0.78310  0.36610  0.99920  Biso   1.000  H
  H41      1.0000 0.74710  0.23350  0.99630  Biso   1.000  H
  H42      1.0000 0.85080  0.28510  0.94600  Biso   1.000  H
  C42      1.0000 0.95560  0.34650  0.08860  Biso   1.000  C
  H43      1.0000 0.90230  0.41490  0.08300  Biso   1.000  H
  H44      1.0000 0.04730  0.36690  0.08470  Biso   1.000  H
  H45      1.0000 0.93950  0.31360  0.13220  Biso   1.000  H
  Zn7      1.0000 0.46092  0.07912  0.49319  Biso   1.000  Zn
  Zn8      1.0000 0.14691  0.17499  0.48982  Biso   1.000  Zn
  O25      1.0000 0.34480  0.22920  0.49282  Biso   1.000  O
  O26      1.0000 0.46270  0.37690  0.52648  Biso   1.000  O
  O27      1.0000 0.12470  0.33930  0.50688  Biso   1.000  O
  C43      1.0000 0.35810  0.32880  0.51608  Biso   1.000  C
  C44      1.0000 0.23460  0.39280  0.53480  Biso   1.000  C
  H46      1.0000 0.24040  0.47230  0.51740  Biso   1.000  H
  C45      1.0000 0.22490  0.39810  0.61000  Biso   1.000  C
  H47      1.0000 0.14640  0.43970  0.62250  Biso   1.000  H
  H48      1.0000 0.30100  0.43750  0.62770  Biso   1.000  H
  H49      1.0000 0.22120  0.32060  0.62780  Biso   1.000  H
  O28      1.0000 0.37650  0.04220  0.57846  Biso   1.000  O
  O29      1.0000 0.16490  0.08460  0.57222  Biso   1.000  O
  C46      1.0000 0.26530  0.05280  0.60189  Biso   1.000  C
  C47      1.0000 0.24990  0.02390  0.67370  Biso   1.000  C
  C48      1.0000 0.35680  0.98910  0.71000  Biso   1.000  C
  H50      1.0000 0.43880  0.98170  0.68930  Biso   1.000  H
  C49      1.0000 0.34370  0.96480  0.77680  Biso   1.000  C
  H51      1.0000 0.41740  0.94290  0.80170  Biso   1.000  H
  C50      1.0000 0.22500  0.97240  0.80690  Biso   1.000  C
  C51      1.0000 0.11730  0.00750  0.77100  Biso   1.000  C
  H52      1.0000 0.03500  0.01320  0.79170  Biso   1.000  H
  C52      1.0000 0.13080  0.03430  0.70460  Biso   1.000  C
  H53      1.0000 0.05780  0.05990  0.68040  Biso   1.000  H
  C53      1.0000 0.21190  0.94450  0.87890  Biso   1.000  C
  O30      1.0000 0.10530  0.96430  0.90529  Biso   1.000  O
  O31      1.0000 0.31100  0.90380  0.90584  Biso   1.000  O
  O32      1.0000 0.54650  0.91560  0.49786  Biso   1.000  O
  C54      1.0000 0.51980  0.83810  0.53450  Biso   1.000  C
  H54      1.0000 0.44980  0.85100  0.56390  Biso   1.000  H
  N4       1.0000 0.57740  0.73600  0.53850  Biso   1.000  N
  C55      1.0000 0.68310  0.71060  0.49090  Biso   1.000  C
  H55      1.0000 0.71690  0.63390  0.49920  Biso   1.000  H
  H56      1.0000 0.75290  0.76650  0.49630  Biso   1.000  H
  H57      1.0000 0.64920  0.71490  0.44600  Biso   1.000  H
  C56      1.0000 0.54440  0.65350  0.58860  Biso   1.000  C
  H58      1.0000 0.59770  0.58510  0.58300  Biso   1.000  H
  H59      1.0000 0.45270  0.63310  0.58470  Biso   1.000  H
  H60      1.0000 0.56050  0.68640  0.63220  Biso   1.000  H
