data_image0
_cell_length_a       5.748
_cell_length_b       17.794
_cell_length_c       18.339
_cell_angle_alpha    95.83
_cell_angle_beta     98.89
_cell_angle_gamma    95.49

_symmetry_space_group_name_H-M    "P 1"
_symmetry_int_tables_number       1

loop_
  _symmetry_equiv_pos_as_xyz
  'x, y, z'

loop_
  _atom_site_label
  _atom_site_occupancy
  _atom_site_fract_x
  _atom_site_fract_y
  _atom_site_fract_z
  _atom_site_thermal_displace_type
  _atom_site_B_iso_or_equiv
  _atom_site_type_symbol
  Ag1      1.0000 0.10248  0.55109  0.37965  Biso   1.000  Ag
  Ag2      1.0000 0.36485  0.42763  0.50033  Biso   1.000  Ag
  Ag3      1.0000 0.61791  0.03445  0.19056  Biso   1.000  Ag
  Ag4      1.0000 0.26721  0.94860  0.00600  Biso   1.000  Ag
  C1       1.0000 0.55290  0.45780  0.35800  Biso   1.000  C
  C2       1.0000 0.58370  0.42580  0.28180  Biso   1.000  C
  H1       1.0000 0.70600  0.39180  0.28670  Biso   1.000  H
  H2       1.0000 0.63900  0.46720  0.25600  Biso   1.000  H
  C3       1.0000 0.36420  0.38330  0.23510  Biso   1.000  C
  H3       1.0000 0.40210  0.36440  0.18730  Biso   1.000  H
  H4       1.0000 0.24660  0.41840  0.22630  Biso   1.000  H
  C4       1.0000 0.39630  0.25020  0.26700  Biso   1.000  C
  H5       1.0000 0.56130  0.26700  0.28720  Biso   1.000  H
  H6       1.0000 0.38740  0.22860  0.21580  Biso   1.000  H
  C5       1.0000 0.30210  0.18850  0.31210  Biso   1.000  C
  H7       1.0000 0.41110  0.15020  0.31590  Biso   1.000  H
  H8       1.0000 0.29680  0.21150  0.36200  Biso   1.000  H
  C6       1.0000 0.06030  0.15100  0.27770  Biso   1.000  C
  C7       1.0000 0.75640  0.91190  0.08040  Biso   1.000  C
  C8       1.0000 0.83030  0.83290  0.08550  Biso   1.000  C
  H9       1.0000 0.82980  0.80860  0.03560  Biso   1.000  H
  H10      1.0000 0.99150  0.83740  0.11200  Biso   1.000  H
  C9       1.0000 0.67560  0.78260  0.12360  Biso   1.000  C
  H11      1.0000 0.68520  0.73000  0.10550  Biso   1.000  H
  H12      1.0000 0.51250  0.79260  0.11010  Biso   1.000  H
  C10      1.0000 0.59540  0.73790  0.24540  Biso   1.000  C
  H13      1.0000 0.43130  0.74820  0.23740  Biso   1.000  H
  H14      1.0000 0.60170  0.68640  0.22320  Biso   1.000  H
  C11      1.0000 0.68480  0.74420  0.32710  Biso   1.000  C
  H15      1.0000 0.85120  0.73660  0.33560  Biso   1.000  H
  H16      1.0000 0.66860  0.79450  0.35020  Biso   1.000  H
  C12      1.0000 0.55110  0.68790  0.35900  Biso   1.000  C
  C13      1.0000 0.87370  0.21480  0.47940  Biso   1.000  C
  C14      1.0000 0.85150  0.54870  0.12550  Biso   1.000  C
  F1       1.0000 0.79700  0.21190  0.54430  Biso   1.000  F
  F2       1.0000 0.09880  0.20170  0.49310  Biso   1.000  F
  F3       1.0000 0.75590  0.16130  0.43080  Biso   1.000  F
  F4       1.0000 0.78090  0.47880  0.13470  Biso   1.000  F
  F5       1.0000 0.96370  0.54600  0.06790  Biso   1.000  F
  F6       1.0000 0.66000  0.58140  0.10670  Biso   1.000  F
  N1       1.0000 0.25710  0.31710  0.26930  Biso   1.000  N
  H17      1.0000 0.09990  0.30110  0.24260  Biso   1.000  H
  H18      1.0000 0.24440  0.33360  0.31980  Biso   1.000  H
  N2       1.0000 0.88440  0.11910  0.25150  Biso   1.000  N
  N3       1.0000 0.74040  0.79300  0.20770  Biso   1.000  N
  H19      1.0000 0.71830  0.84390  0.22590  Biso   1.000  H
  H20      1.0000 0.90530  0.78700  0.22070  Biso   1.000  H
  N4       1.0000 0.44520  0.64230  0.38400  Biso   1.000  N
  S1       1.0000 0.84890  0.30876  0.44983  Biso   1.000  S
  S2       1.0000 0.03230  0.59860  0.20715  Biso   1.000  S
  O1       1.0000 0.34910  0.44620  0.37790  Biso   1.000  O
  O2       1.0000 0.73020  0.49420  0.40050  Biso   1.000  O
  O3       1.0000 0.56300  0.92620  0.09900  Biso   1.000  O
  O4       1.0000 0.89010  0.95790  0.05390  Biso   1.000  O
  O5       1.0000 0.98760  0.36040  0.51090  Biso   1.000  O
  O6       1.0000 0.60070  0.31470  0.43900  Biso   1.000  O
  O7       1.0000 0.95100  0.30430  0.38280  Biso   1.000  O
  O8       1.0000 0.88730  0.58820  0.26340  Biso   1.000  O
  O9       1.0000 0.06220  0.67610  0.19260  Biso   1.000  O
  O10      1.0000 0.25130  0.56360  0.21790  Biso   1.000  O
  O11      1.0000 0.26700  0.07710  0.12780  Biso   1.000  O
  Ag5      1.0000 0.89752  0.44891  0.62035  Biso   1.000  Ag
  Ag6      1.0000 0.63515  0.57237  0.49967  Biso   1.000  Ag
  Ag7      1.0000 0.38209  0.96555  0.80944  Biso   1.000  Ag
  Ag8      1.0000 0.73279  0.05140  0.99400  Biso   1.000  Ag
  C15      1.0000 0.44710  0.54220  0.64200  Biso   1.000  C
  C16      1.0000 0.41630  0.57420  0.71820  Biso   1.000  C
  H21      1.0000 0.29400  0.60820  0.71330  Biso   1.000  H
  H22      1.0000 0.36100  0.53280  0.74400  Biso   1.000  H
  C17      1.0000 0.63580  0.61670  0.76490  Biso   1.000  C
  H23      1.0000 0.59790  0.63560  0.81270  Biso   1.000  H
  H24      1.0000 0.75340  0.58160  0.77370  Biso   1.000  H
  C18      1.0000 0.60370  0.74980  0.73300  Biso   1.000  C
  H25      1.0000 0.43870  0.73300  0.71280  Biso   1.000  H
  H26      1.0000 0.61260  0.77140  0.78420  Biso   1.000  H
  C19      1.0000 0.69790  0.81150  0.68790  Biso   1.000  C
  H27      1.0000 0.58890  0.84980  0.68410  Biso   1.000  H
  H28      1.0000 0.70320  0.78850  0.63800  Biso   1.000  H
  C20      1.0000 0.93970  0.84900  0.72230  Biso   1.000  C
  C21      1.0000 0.24360  0.08810  0.91960  Biso   1.000  C
  C22      1.0000 0.16970  0.16710  0.91450  Biso   1.000  C
  H29      1.0000 0.17020  0.19140  0.96440  Biso   1.000  H
  H30      1.0000 0.00850  0.16260  0.88800  Biso   1.000  H
  C23      1.0000 0.32440  0.21740  0.87640  Biso   1.000  C
  H31      1.0000 0.31480  0.27000  0.89450  Biso   1.000  H
  H32      1.0000 0.48750  0.20740  0.88990  Biso   1.000  H
  C24      1.0000 0.40460  0.26210  0.75460  Biso   1.000  C
  H33      1.0000 0.56870  0.25180  0.76260  Biso   1.000  H
  H34      1.0000 0.39830  0.31360  0.77680  Biso   1.000  H
  C25      1.0000 0.31520  0.25580  0.67290  Biso   1.000  C
  H35      1.0000 0.14880  0.26340  0.66440  Biso   1.000  H
  H36      1.0000 0.33140  0.20550  0.64980  Biso   1.000  H
  C26      1.0000 0.44890  0.31210  0.64100  Biso   1.000  C
  C27      1.0000 0.12630  0.78520  0.52060  Biso   1.000  C
  C28      1.0000 0.14850  0.45130  0.87450  Biso   1.000  C
  F7       1.0000 0.20300  0.78810  0.45570  Biso   1.000  F
  F8       1.0000 0.90120  0.79830  0.50690  Biso   1.000  F
  F9       1.0000 0.24410  0.83870  0.56920  Biso   1.000  F
  F10      1.0000 0.21910  0.52120  0.86530  Biso   1.000  F
  F11      1.0000 0.03630  0.45400  0.93210  Biso   1.000  F
  F12      1.0000 0.34000  0.41860  0.89330  Biso   1.000  F
  N5       1.0000 0.74290  0.68290  0.73070  Biso   1.000  N
  H37      1.0000 0.90010  0.69890  0.75740  Biso   1.000  H
  H38      1.0000 0.75560  0.66640  0.68020  Biso   1.000  H
  N6       1.0000 0.11560  0.88090  0.74850  Biso   1.000  N
  N7       1.0000 0.25960  0.20700  0.79230  Biso   1.000  N
  H39      1.0000 0.28170  0.15610  0.77410  Biso   1.000  H
  H40      1.0000 0.09470  0.21300  0.77930  Biso   1.000  H
  N8       1.0000 0.55480  0.35770  0.61600  Biso   1.000  N
  S3       1.0000 0.15110  0.69124  0.55017  Biso   1.000  S
  S4       1.0000 0.96770  0.40140  0.79285  Biso   1.000  S
  O12      1.0000 0.65090  0.55380  0.62210  Biso   1.000  O
  O13      1.0000 0.26980  0.50580  0.59950  Biso   1.000  O
  O14      1.0000 0.43700  0.07380  0.90100  Biso   1.000  O
  O15      1.0000 0.10990  0.04210  0.94610  Biso   1.000  O
  O16      1.0000 0.01240  0.63960  0.48910  Biso   1.000  O
  O17      1.0000 0.39930  0.68530  0.56100  Biso   1.000  O
  O18      1.0000 0.04900  0.69570  0.61720  Biso   1.000  O
  O19      1.0000 0.11270  0.41180  0.73660  Biso   1.000  O
  O20      1.0000 0.93780  0.32390  0.80740  Biso   1.000  O
  O21      1.0000 0.74870  0.43640  0.78210  Biso   1.000  O
  O22      1.0000 0.73300  0.92290  0.87220  Biso   1.000  O
