data_image0
_cell_length_a       13.6093
_cell_length_b       13.6093
_cell_length_c       8.1609
_cell_angle_alpha    90
_cell_angle_beta     90
_cell_angle_gamma    120

_symmetry_space_group_name_H-M    "P 1"
_symmetry_int_tables_number       1

loop_
  _symmetry_equiv_pos_as_xyz
  'x, y, z'

loop_
  _atom_site_label
  _atom_site_occupancy
  _atom_site_fract_x
  _atom_site_fract_y
  _atom_site_fract_z
  _atom_site_thermal_displace_type
  _atom_site_B_iso_or_equiv
  _atom_site_type_symbol
  Mn1      1.0000 0.29578  0.33471  0.54340  Biso   1.000  Mn
  O1       1.0000 0.22790  0.18060  0.40480  Biso   1.000  O
  C1       1.0000 0.52970  0.32070  0.55520  Biso   1.000  C
  C2       1.0000 0.35440  0.55580  0.77630  Biso   1.000  C
  O2       1.0000 0.24470  0.05850  0.24670  Biso   1.000  O
  C3       1.0000 0.26660  0.15870  0.28000  Biso   1.000  C
  N1       1.0000 0.34590  0.21010  0.00360  Biso   1.000  N
  H1       1.0000 0.41040  0.25770  0.95030  Biso   1.000  H
  H2       1.0000 0.28660  0.20160  0.94370  Biso   1.000  H
  C4       1.0000 0.34470  0.25540  0.16580  Biso   1.000  C
  H3       1.0000 0.42160  0.28720  0.21010  Biso   1.000  H
  N2       1.0000 0.36360  0.42590  0.30660  Biso   1.000  N
  H4       1.0000 0.34700  0.48200  0.29900  Biso   1.000  H
  H5       1.0000 0.43970  0.45810  0.30710  Biso   1.000  H
  C5       1.0000 0.31860  0.35280  0.16120  Biso   1.000  C
  H6       1.0000 0.35180  0.39790  0.06330  Biso   1.000  H
  H7       1.0000 0.23710  0.32160  0.15580  Biso   1.000  H
  N3       1.0000 0.44870  0.31890  0.60370  Biso   1.000  N
  N4       1.0000 0.36650  0.49570  0.69160  Biso   1.000  N
  Mn2      1.0000 0.66529  0.96107  0.54340  Biso   1.000  Mn
  O3       1.0000 0.81940  0.04730  0.40480  Biso   1.000  O
  C6       1.0000 0.67930  0.20900  0.55520  Biso   1.000  C
  C7       1.0000 0.44420  0.79860  0.77630  Biso   1.000  C
  O4       1.0000 0.94150  0.18620  0.24670  Biso   1.000  O
  C8       1.0000 0.84130  0.10790  0.28000  Biso   1.000  C
  N5       1.0000 0.78990  0.13580  0.00360  Biso   1.000  N
  H8       1.0000 0.74230  0.15270  0.95030  Biso   1.000  H
  H9       1.0000 0.79840  0.08500  0.94370  Biso   1.000  H
  C9       1.0000 0.74460  0.08930  0.16580  Biso   1.000  C
  H10      1.0000 0.71280  0.13440  0.21010  Biso   1.000  H
  N6       1.0000 0.57410  0.93770  0.30660  Biso   1.000  N
  H11      1.0000 0.51800  0.86500  0.29900  Biso   1.000  H
  H12      1.0000 0.54190  0.98160  0.30710  Biso   1.000  H
  C10      1.0000 0.64720  0.96580  0.16120  Biso   1.000  C
  H13      1.0000 0.60210  0.95390  0.06330  Biso   1.000  H
  H14      1.0000 0.67840  0.91550  0.15580  Biso   1.000  H
  N7       1.0000 0.68110  0.12980  0.60370  Biso   1.000  N
  N8       1.0000 0.50430  0.87080  0.69160  Biso   1.000  N
  Mn3      1.0000 0.03893  0.70422  0.54340  Biso   1.000  Mn
  O5       1.0000 0.95270  0.77210  0.40480  Biso   1.000  O
  C11      1.0000 0.79100  0.47030  0.55520  Biso   1.000  C
  C12      1.0000 0.20140  0.64560  0.77630  Biso   1.000  C
  O6       1.0000 0.81380  0.75530  0.24670  Biso   1.000  O
  C13      1.0000 0.89210  0.73340  0.28000  Biso   1.000  C
  N9       1.0000 0.86420  0.65410  0.00360  Biso   1.000  N
  H15      1.0000 0.84730  0.58960  0.95030  Biso   1.000  H
  H16      1.0000 0.91500  0.71340  0.94370  Biso   1.000  H
  C14      1.0000 0.91070  0.65530  0.16580  Biso   1.000  C
  H17      1.0000 0.86560  0.57840  0.21010  Biso   1.000  H
  N10      1.0000 0.06230  0.63640  0.30660  Biso   1.000  N
  H18      1.0000 0.13500  0.65300  0.29900  Biso   1.000  H
  H19      1.0000 0.01840  0.56030  0.30710  Biso   1.000  H
  C15      1.0000 0.03420  0.68140  0.16120  Biso   1.000  C
  H20      1.0000 0.04610  0.64820  0.06330  Biso   1.000  H
  H21      1.0000 0.08450  0.76290  0.15580  Biso   1.000  H
  N11      1.0000 0.87020  0.55130  0.60370  Biso   1.000  N
  N12      1.0000 0.12920  0.63350  0.69160  Biso   1.000  N
  Mn4      1.0000 0.70422  0.66529  0.04340  Biso   1.000  Mn
  O7       1.0000 0.77210  0.81940  0.90480  Biso   1.000  O
  C16      1.0000 0.47030  0.67930  0.05520  Biso   1.000  C
  C17      1.0000 0.64560  0.44420  0.27630  Biso   1.000  C
  O8       1.0000 0.75530  0.94150  0.74670  Biso   1.000  O
  C18      1.0000 0.73340  0.84130  0.78000  Biso   1.000  C
  N13      1.0000 0.65410  0.78990  0.50360  Biso   1.000  N
  H22      1.0000 0.58960  0.74230  0.45030  Biso   1.000  H
  H23      1.0000 0.71340  0.79840  0.44370  Biso   1.000  H
  C19      1.0000 0.65530  0.74460  0.66580  Biso   1.000  C
  H24      1.0000 0.57840  0.71280  0.71010  Biso   1.000  H
  N14      1.0000 0.63640  0.57410  0.80660  Biso   1.000  N
  H25      1.0000 0.65300  0.51800  0.79900  Biso   1.000  H
  H26      1.0000 0.56030  0.54190  0.80710  Biso   1.000  H
  C20      1.0000 0.68140  0.64720  0.66120  Biso   1.000  C
  H27      1.0000 0.64820  0.60210  0.56330  Biso   1.000  H
  H28      1.0000 0.76290  0.67840  0.65580  Biso   1.000  H
  N15      1.0000 0.55130  0.68110  0.10370  Biso   1.000  N
  N16      1.0000 0.63350  0.50430  0.19160  Biso   1.000  N
  Mn5      1.0000 0.33471  0.03893  0.04340  Biso   1.000  Mn
  O9       1.0000 0.18060  0.95270  0.90480  Biso   1.000  O
  C21      1.0000 0.32070  0.79100  0.05520  Biso   1.000  C
  C22      1.0000 0.55580  0.20140  0.27630  Biso   1.000  C
  O10      1.0000 0.05850  0.81380  0.74670  Biso   1.000  O
  C23      1.0000 0.15870  0.89210  0.78000  Biso   1.000  C
  N17      1.0000 0.21010  0.86420  0.50360  Biso   1.000  N
  H29      1.0000 0.25770  0.84730  0.45030  Biso   1.000  H
  H30      1.0000 0.20160  0.91500  0.44370  Biso   1.000  H
  C24      1.0000 0.25540  0.91070  0.66580  Biso   1.000  C
  H31      1.0000 0.28720  0.86560  0.71010  Biso   1.000  H
  N18      1.0000 0.42590  0.06230  0.80660  Biso   1.000  N
  H32      1.0000 0.48200  0.13500  0.79900  Biso   1.000  H
  H33      1.0000 0.45810  0.01840  0.80710  Biso   1.000  H
  C25      1.0000 0.35280  0.03420  0.66120  Biso   1.000  C
  H34      1.0000 0.39790  0.04610  0.56330  Biso   1.000  H
  H35      1.0000 0.32160  0.08450  0.65580  Biso   1.000  H
  N19      1.0000 0.31890  0.87020  0.10370  Biso   1.000  N
  N20      1.0000 0.49570  0.12920  0.19160  Biso   1.000  N
  Mn6      1.0000 0.96107  0.29578  0.04340  Biso   1.000  Mn
  O11      1.0000 0.04730  0.22790  0.90480  Biso   1.000  O
  C26      1.0000 0.20900  0.52970  0.05520  Biso   1.000  C
  C27      1.0000 0.79860  0.35440  0.27630  Biso   1.000  C
  O12      1.0000 0.18620  0.24470  0.74670  Biso   1.000  O
  C28      1.0000 0.10790  0.26660  0.78000  Biso   1.000  C
  N21      1.0000 0.13580  0.34590  0.50360  Biso   1.000  N
  H36      1.0000 0.15270  0.41040  0.45030  Biso   1.000  H
  H37      1.0000 0.08500  0.28660  0.44370  Biso   1.000  H
  C29      1.0000 0.08930  0.34470  0.66580  Biso   1.000  C
  H38      1.0000 0.13440  0.42160  0.71010  Biso   1.000  H
  N22      1.0000 0.93770  0.36360  0.80660  Biso   1.000  N
  H39      1.0000 0.86500  0.34700  0.79900  Biso   1.000  H
  H40      1.0000 0.98160  0.43970  0.80710  Biso   1.000  H
  C30      1.0000 0.96580  0.31860  0.66120  Biso   1.000  C
  H41      1.0000 0.95390  0.35180  0.56330  Biso   1.000  H
  H42      1.0000 0.91550  0.23710  0.65580  Biso   1.000  H
  N23      1.0000 0.12980  0.44870  0.10370  Biso   1.000  N
  N24      1.0000 0.87080  0.36650  0.19160  Biso   1.000  N
  Cr1      1.0000 0.33333  0.66667  0.92566  Biso   1.000  Cr
  Cr2      1.0000 0.66667  0.33333  0.42566  Biso   1.000  Cr
