data_image0
_cell_length_a       8.153
_cell_length_b       13.6802
_cell_length_c       13.6802
_cell_angle_alpha    120
_cell_angle_beta     90
_cell_angle_gamma    90

_symmetry_space_group_name_H-M    P 1
_symmetry_int_tables_number       1

loop_
  _symmetry_equiv_pos_as_xyz
  'x, y, z'

loop_
  _atom_site_label
  _atom_site_occupancy
  _atom_site_fract_x
  _atom_site_fract_y
  _atom_site_fract_z
  _atom_site_thermal_displace_type
  _atom_site_B_iso_or_equiv
  _atom_site_type_symbol
  Mn1      1.0000 0.20692  0.33427  0.03788  Biso   1.000  Mn
  Mn2      1.0000 0.20692  0.70361  0.66573  Biso   1.000  Mn
  Mn3      1.0000 0.20692  0.96212  0.29639  Biso   1.000  Mn
  Mn4      1.0000 0.70692  0.66573  0.96212  Biso   1.000  Mn
  Mn5      1.0000 0.70692  0.29639  0.33427  Biso   1.000  Mn
  Mn6      1.0000 0.70692  0.03788  0.70361  Biso   1.000  Mn
  Cr1      1.0000 0.58960  0.66667  0.33334  Biso   1.000  Cr
  Cr2      1.0000 0.08960  0.33333  0.66666  Biso   1.000  Cr
  H1       1.0000 0.60950  0.25430  0.84810  Biso   1.000  H
  H2       1.0000 0.60580  0.19720  0.91420  Biso   1.000  H
  H3       1.0000 0.86920  0.28580  0.86600  Biso   1.000  H
  H4       1.0000 0.72410  0.39540  0.04340  Biso   1.000  H
  H5       1.0000 0.81630  0.32040  0.08280  Biso   1.000  H
  H6       1.0000 0.96020  0.48020  0.13320  Biso   1.000  H
  H7       1.0000 0.96860  0.45660  0.01720  Biso   1.000  H
  H8       1.0000 0.60950  0.59380  0.74570  Biso   1.000  H
  H9       1.0000 0.60580  0.71700  0.80280  Biso   1.000  H
  H10      1.0000 0.86920  0.58020  0.71420  Biso   1.000  H
  H11      1.0000 0.72410  0.64800  0.60460  Biso   1.000  H
  H12      1.0000 0.81630  0.76240  0.67960  Biso   1.000  H
  H13      1.0000 0.96020  0.65300  0.51980  Biso   1.000  H
  H14      1.0000 0.96860  0.56060  0.54340  Biso   1.000  H
  H15      1.0000 0.60950  0.15190  0.40620  Biso   1.000  H
  H16      1.0000 0.60580  0.08580  0.28300  Biso   1.000  H
  H17      1.0000 0.86920  0.13400  0.41980  Biso   1.000  H
  H18      1.0000 0.72410  0.95660  0.35200  Biso   1.000  H
  H19      1.0000 0.81630  0.91720  0.23760  Biso   1.000  H
  H20      1.0000 0.96020  0.86680  0.34700  Biso   1.000  H
  H21      1.0000 0.96860  0.98280  0.43940  Biso   1.000  H
  H22      1.0000 0.10950  0.74570  0.15190  Biso   1.000  H
  H23      1.0000 0.10580  0.80280  0.08580  Biso   1.000  H
  H24      1.0000 0.36920  0.71420  0.13400  Biso   1.000  H
  H25      1.0000 0.22410  0.60460  0.95660  Biso   1.000  H
  H26      1.0000 0.31630  0.67960  0.91720  Biso   1.000  H
  H27      1.0000 0.46020  0.51980  0.86680  Biso   1.000  H
  H28      1.0000 0.46860  0.54340  0.98280  Biso   1.000  H
  H29      1.0000 0.10950  0.40620  0.25430  Biso   1.000  H
  H30      1.0000 0.10580  0.28300  0.19720  Biso   1.000  H
  H31      1.0000 0.36920  0.41980  0.28580  Biso   1.000  H
  H32      1.0000 0.22410  0.35200  0.39540  Biso   1.000  H
  H33      1.0000 0.31630  0.23760  0.32040  Biso   1.000  H
  H34      1.0000 0.46020  0.34700  0.48020  Biso   1.000  H
  H35      1.0000 0.46860  0.43940  0.45660  Biso   1.000  H
  H36      1.0000 0.10950  0.84810  0.59380  Biso   1.000  H
  H37      1.0000 0.10580  0.91420  0.71700  Biso   1.000  H
  H38      1.0000 0.36920  0.86600  0.58020  Biso   1.000  H
  H39      1.0000 0.22410  0.04340  0.64800  Biso   1.000  H
  H40      1.0000 0.31630  0.08280  0.76240  Biso   1.000  H
  H41      1.0000 0.46020  0.13320  0.65300  Biso   1.000  H
  H42      1.0000 0.46860  0.01720  0.56060  Biso   1.000  H
  C1       1.0000 0.43910  0.55660  0.20260  Biso   1.000  C
  C2       1.0000 0.82660  0.25410  0.91120  Biso   1.000  C
  C3       1.0000 0.82210  0.35070  0.03220  Biso   1.000  C
  C4       1.0000 0.72110  0.67950  0.20980  Biso   1.000  C
  C5       1.0000 0.94480  0.15860  0.89200  Biso   1.000  C
  C6       1.0000 0.43910  0.64600  0.44340  Biso   1.000  C
  C7       1.0000 0.82660  0.65710  0.74590  Biso   1.000  C
  C8       1.0000 0.82210  0.68150  0.64930  Biso   1.000  C
  C9       1.0000 0.72110  0.53030  0.32050  Biso   1.000  C
  C10      1.0000 0.94480  0.73340  0.84140  Biso   1.000  C
  C11      1.0000 0.43910  0.79740  0.35400  Biso   1.000  C
  C12      1.0000 0.82660  0.08880  0.34290  Biso   1.000  C
  C13      1.0000 0.82210  0.96780  0.31850  Biso   1.000  C
  C14      1.0000 0.72110  0.79020  0.46970  Biso   1.000  C
  C15      1.0000 0.94480  0.10800  0.26660  Biso   1.000  C
  C16      1.0000 0.93910  0.44340  0.79740  Biso   1.000  C
  C17      1.0000 0.32660  0.74590  0.08880  Biso   1.000  C
  C18      1.0000 0.32210  0.64930  0.96780  Biso   1.000  C
  C19      1.0000 0.22110  0.32050  0.79020  Biso   1.000  C
  C20      1.0000 0.44480  0.84140  0.10800  Biso   1.000  C
  C21      1.0000 0.93910  0.35400  0.55660  Biso   1.000  C
  C22      1.0000 0.32660  0.34290  0.25410  Biso   1.000  C
  C23      1.0000 0.32210  0.31850  0.35070  Biso   1.000  C
  C24      1.0000 0.22110  0.46970  0.67950  Biso   1.000  C
  C25      1.0000 0.44480  0.26660  0.15860  Biso   1.000  C
  C26      1.0000 0.93910  0.20260  0.64600  Biso   1.000  C
  C27      1.0000 0.32660  0.91120  0.65710  Biso   1.000  C
  C28      1.0000 0.32210  0.03220  0.68150  Biso   1.000  C
  C29      1.0000 0.22110  0.20980  0.53030  Biso   1.000  C
  C30      1.0000 0.44480  0.89200  0.73340  Biso   1.000  C
  N1       1.0000 0.66470  0.20710  0.86420  Biso   1.000  N
  N2       1.0000 0.35360  0.49550  0.12940  Biso   1.000  N
  N3       1.0000 0.76880  0.68040  0.12990  Biso   1.000  N
  N4       1.0000 0.96820  0.42450  0.06080  Biso   1.000  N
  N5       1.0000 0.66470  0.65710  0.79290  Biso   1.000  N
  N6       1.0000 0.35360  0.63390  0.50450  Biso   1.000  N
  N7       1.0000 0.76880  0.44950  0.31960  Biso   1.000  N
  N8       1.0000 0.96820  0.63630  0.57550  Biso   1.000  N
  N9       1.0000 0.66470  0.13580  0.34290  Biso   1.000  N
  N10      1.0000 0.35360  0.87060  0.36610  Biso   1.000  N
  N11      1.0000 0.76880  0.87010  0.55050  Biso   1.000  N
  N12      1.0000 0.96820  0.93920  0.36370  Biso   1.000  N
  N13      1.0000 0.16470  0.79290  0.13580  Biso   1.000  N
  N14      1.0000 0.85360  0.50450  0.87060  Biso   1.000  N
  N15      1.0000 0.26880  0.31960  0.87010  Biso   1.000  N
  N16      1.0000 0.46820  0.57550  0.93920  Biso   1.000  N
  N17      1.0000 0.16470  0.34290  0.20710  Biso   1.000  N
  N18      1.0000 0.85360  0.36610  0.49550  Biso   1.000  N
  N19      1.0000 0.26880  0.55050  0.68040  Biso   1.000  N
  N20      1.0000 0.46820  0.36370  0.42450  Biso   1.000  N
  N21      1.0000 0.16470  0.86420  0.65710  Biso   1.000  N
  N22      1.0000 0.85360  0.12940  0.63390  Biso   1.000  N
  N23      1.0000 0.26880  0.12990  0.44950  Biso   1.000  N
  N24      1.0000 0.46820  0.06080  0.63630  Biso   1.000  N
  O1       1.0000 0.06640  0.17970  0.95220  Biso   1.000  O
  O2       1.0000 0.91030  0.05770  0.81310  Biso   1.000  O
  O3       1.0000 0.06640  0.77250  0.82030  Biso   1.000  O
  O4       1.0000 0.91030  0.75540  0.94230  Biso   1.000  O
  O5       1.0000 0.06640  0.04780  0.22750  Biso   1.000  O
  O6       1.0000 0.91030  0.18690  0.24460  Biso   1.000  O
  O7       1.0000 0.56640  0.82030  0.04780  Biso   1.000  O
  O8       1.0000 0.41030  0.94230  0.18690  Biso   1.000  O
  O9       1.0000 0.56640  0.22750  0.17970  Biso   1.000  O
  O10      1.0000 0.41030  0.24460  0.05770  Biso   1.000  O
  O11      1.0000 0.56640  0.95220  0.77250  Biso   1.000  O
  O12      1.0000 0.41030  0.81310  0.75540  Biso   1.000  O
