data_image0
_cell_length_a       14.3982
_cell_length_b       15.0175
_cell_length_c       24.6029
_cell_angle_alpha    75.0846
_cell_angle_beta     72.9856
_cell_angle_gamma    61.3551

_symmetry_space_group_name_H-M    P 1
_symmetry_int_tables_number       1

loop_
  _symmetry_equiv_pos_as_xyz
  'x, y, z'

loop_
  _atom_site_label
  _atom_site_occupancy
  _atom_site_fract_x
  _atom_site_fract_y
  _atom_site_fract_z
  _atom_site_thermal_displace_type
  _atom_site_B_iso_or_equiv
  _atom_site_type_symbol
  Gd1      1.0000 0.85058  0.88326  0.68988  Biso   1.000  Gd
  Gd2      1.0000 0.25129  0.63251  0.69865  Biso   1.000  Gd
  Gd3      1.0000 0.42372  0.61674  0.81012  Biso   1.000  Gd
  Gd4      1.0000 0.58245  0.86749  0.80135  Biso   1.000  Gd
  Gd5      1.0000 0.14942  0.11674  0.31012  Biso   1.000  Gd
  Gd6      1.0000 0.74871  0.36749  0.30135  Biso   1.000  Gd
  Gd7      1.0000 0.57628  0.38326  0.18988  Biso   1.000  Gd
  Gd8      1.0000 0.41755  0.13251  0.19865  Biso   1.000  Gd
  H1       1.0000 0.99000  0.08770  0.71750  Biso   1.000  H
  H2       1.0000 0.07620  0.17190  0.73330  Biso   1.000  H
  H3       1.0000 0.23600  0.08130  0.76610  Biso   1.000  H
  H4       1.0000 0.22160  0.82010  0.76990  Biso   1.000  H
  H5       1.0000 0.69340  0.87140  0.53880  Biso   1.000  H
  H6       1.0000 0.59570  0.83080  0.49780  Biso   1.000  H
  H7       1.0000 0.47460  0.76900  0.55420  Biso   1.000  H
  H8       1.0000 0.54620  0.78790  0.69470  Biso   1.000  H
  H9       1.0000 0.59120  0.20980  0.63180  Biso   1.000  H
  H10      1.0000 0.46910  0.35630  0.58510  Biso   1.000  H
  H11      1.0000 0.52310  0.41510  0.49030  Biso   1.000  H
  H12      1.0000 0.82580  0.19900  0.49360  Biso   1.000  H
  H13      1.0000 0.77380  0.09700  0.75760  Biso   1.000  H
  H14      1.0000 0.79520  0.41230  0.78250  Biso   1.000  H
  H15      1.0000 0.98140  0.32810  0.76670  Biso   1.000  H
  H16      1.0000 0.08340  0.41870  0.73390  Biso   1.000  H
  H17      1.0000 0.81160  0.67990  0.73010  Biso   1.000  H
  H18      1.0000 0.10360  0.62860  0.96120  Biso   1.000  H
  H19      1.0000 0.92430  0.66920  0.00220  Biso   1.000  H
  H20      1.0000 0.79780  0.73100  0.94580  Biso   1.000  H
  H21      1.0000 0.02880  0.71210  0.80530  Biso   1.000  H
  H22      1.0000 0.43280  0.29020  0.86820  Biso   1.000  H
  H23      1.0000 0.41050  0.14370  0.91490  Biso   1.000  H
  H24      1.0000 0.42850  0.08490  0.00970  Biso   1.000  H
  H25      1.0000 0.51840  0.30100  0.00640  Biso   1.000  H
  H26      1.0000 0.62840  0.40300  0.74240  Biso   1.000  H
  H27      1.0000 0.01000  0.91230  0.28250  Biso   1.000  H
  H28      1.0000 0.92380  0.82810  0.26670  Biso   1.000  H
  H29      1.0000 0.76400  0.91870  0.23390  Biso   1.000  H
  H30      1.0000 0.77840  0.17990  0.23010  Biso   1.000  H
  H31      1.0000 0.30660  0.12860  0.46120  Biso   1.000  H
  H32      1.0000 0.40430  0.16920  0.50220  Biso   1.000  H
  H33      1.0000 0.52540  0.23100  0.44580  Biso   1.000  H
  H34      1.0000 0.45380  0.21210  0.30530  Biso   1.000  H
  H35      1.0000 0.40880  0.79020  0.36820  Biso   1.000  H
  H36      1.0000 0.53090  0.64370  0.41490  Biso   1.000  H
  H37      1.0000 0.47690  0.58490  0.50970  Biso   1.000  H
  H38      1.0000 0.17420  0.80100  0.50640  Biso   1.000  H
  H39      1.0000 0.22620  0.90300  0.24240  Biso   1.000  H
  H40      1.0000 0.20480  0.58770  0.21750  Biso   1.000  H
  H41      1.0000 0.01860  0.67190  0.23330  Biso   1.000  H
  H42      1.0000 0.91660  0.58130  0.26610  Biso   1.000  H
  H43      1.0000 0.18840  0.32010  0.26990  Biso   1.000  H
  H44      1.0000 0.89640  0.37140  0.03880  Biso   1.000  H
  H45      1.0000 0.07570  0.33080  0.99780  Biso   1.000  H
  H46      1.0000 0.20220  0.26900  0.05420  Biso   1.000  H
  H47      1.0000 0.97120  0.28790  0.19470  Biso   1.000  H
  H48      1.0000 0.56720  0.70980  0.13180  Biso   1.000  H
  H49      1.0000 0.58950  0.85630  0.08510  Biso   1.000  H
  H50      1.0000 0.57150  0.91510  0.99030  Biso   1.000  H
  H51      1.0000 0.48160  0.69900  0.99360  Biso   1.000  H
  H52      1.0000 0.37160  0.59700  0.25760  Biso   1.000  H
  H53      1.0000 0.77970  0.25000  0.75000  Biso   1.000  H
  H54      1.0000 0.45880  0.25000  0.75000  Biso   1.000  H
  H55      1.0000 0.22030  0.75000  0.25000  Biso   1.000  H
  H56      1.0000 0.54120  0.75000  0.25000  Biso   1.000  H
  C1       1.0000 0.05200  0.88610  0.72470  Biso   1.000  C
  C2       1.0000 0.09990  0.94400  0.74020  Biso   1.000  C
  C3       1.0000 0.05470  0.05040  0.73060  Biso   1.000  C
  C4       1.0000 0.10600  0.10090  0.74030  Biso   1.000  C
  C5       1.0000 0.20120  0.04670  0.76050  Biso   1.000  C
  C6       1.0000 0.24500  0.94040  0.77240  Biso   1.000  C
  C7       1.0000 0.19290  0.89100  0.76200  Biso   1.000  C
  C8       1.0000 0.34920  0.87730  0.79410  Biso   1.000  C
  C9       1.0000 0.69890  0.85200  0.64800  Biso   1.000  C
  C10      1.0000 0.63010  0.83320  0.62140  Biso   1.000  C
  C11      1.0000 0.64470  0.84640  0.56200  Biso   1.000  C
  C12      1.0000 0.58600  0.82200  0.53760  Biso   1.000  C
  C13      1.0000 0.51320  0.78530  0.57130  Biso   1.000  C
  C14      1.0000 0.49800  0.77240  0.63020  Biso   1.000  C
  C15      1.0000 0.55650  0.79650  0.65490  Biso   1.000  C
  C16      1.0000 0.41920  0.73310  0.66870  Biso   1.000  C
  C17      1.0000 0.80460  0.09750  0.59710  Biso   1.000  C
  C18      1.0000 0.72150  0.19010  0.56770  Biso   1.000  C
  C19      1.0000 0.61420  0.23630  0.59470  Biso   1.000  C
  C20      1.0000 0.54020  0.32300  0.56620  Biso   1.000  C
  C21      1.0000 0.57280  0.35910  0.50970  Biso   1.000  C
  C22      1.0000 0.67920  0.31180  0.48220  Biso   1.000  C
  C23      1.0000 0.75360  0.22890  0.51170  Biso   1.000  C
  C24      1.0000 0.71420  0.34600  0.41980  Biso   1.000  C
  C25      1.0000 0.60880  0.05730  0.76490  Biso   1.000  C
  C26      1.0000 0.61530  0.15710  0.75570  Biso   1.000  C
  C27      1.0000 0.71170  0.15820  0.75480  Biso   1.000  C
  C28      1.0000 0.66280  0.61390  0.77530  Biso   1.000  C
  C29      1.0000 0.78410  0.55600  0.75980  Biso   1.000  C
  C30      1.0000 0.83570  0.44960  0.76940  Biso   1.000  C
  C31      1.0000 0.94720  0.39910  0.75970  Biso   1.000  C
  C32      1.0000 0.00840  0.45330  0.73950  Biso   1.000  C
  C33      1.0000 0.95780  0.55960  0.72760  Biso   1.000  C
  C34      1.0000 0.84590  0.60900  0.73800  Biso   1.000  C
  C35      1.0000 0.02060  0.62270  0.70590  Biso   1.000  C
  C36      1.0000 0.19890  0.64800  0.85200  Biso   1.000  C
  C37      1.0000 0.08470  0.66680  0.87860  Biso   1.000  C
  C38      1.0000 0.05310  0.65360  0.93800  Biso   1.000  C
  C39      1.0000 0.94560  0.67800  0.96240  Biso   1.000  C
  C40      1.0000 0.86980  0.71470  0.92870  Biso   1.000  C
  C41      1.0000 0.90060  0.72760  0.86980  Biso   1.000  C
  C42      1.0000 0.00790  0.70350  0.84510  Biso   1.000  C
  C43      1.0000 0.82100  0.76690  0.83130  Biso   1.000  C
  C44      1.0000 0.49920  0.40250  0.90290  Biso   1.000  C
  C45      1.0000 0.47930  0.30990  0.93230  Biso   1.000  C
  C46      1.0000 0.44520  0.26370  0.90530  Biso   1.000  C
  C47      1.0000 0.42940  0.17700  0.93380  Biso   1.000  C
  C48      1.0000 0.44160  0.14090  0.99030  Biso   1.000  C
  C49      1.0000 0.47320  0.18820  0.01780  Biso   1.000  C
  C50      1.0000 0.49420  0.27110  0.98830  Biso   1.000  C
  C51      1.0000 0.48000  0.15400  0.08020  Biso   1.000  C
  C52      1.0000 0.43100  0.44270  0.73510  Biso   1.000  C
  C53      1.0000 0.52810  0.34290  0.74430  Biso   1.000  C
  C54      1.0000 0.62470  0.34180  0.74520  Biso   1.000  C
  C55      1.0000 0.94800  0.11390  0.27530  Biso   1.000  C
  C56      1.0000 0.90010  0.05600  0.25980  Biso   1.000  C
  C57      1.0000 0.94530  0.94960  0.26940  Biso   1.000  C
  C58      1.0000 0.89400  0.89910  0.25970  Biso   1.000  C
  C59      1.0000 0.79880  0.95330  0.23950  Biso   1.000  C
  C60      1.0000 0.75500  0.05960  0.22760  Biso   1.000  C
  C61      1.0000 0.80710  0.10900  0.23800  Biso   1.000  C
  C62      1.0000 0.65080  0.12270  0.20590  Biso   1.000  C
  C63      1.0000 0.30110  0.14800  0.35200  Biso   1.000  C
  C64      1.0000 0.36990  0.16680  0.37860  Biso   1.000  C
  C65      1.0000 0.35530  0.15360  0.43800  Biso   1.000  C
  C66      1.0000 0.41400  0.17800  0.46240  Biso   1.000  C
  C67      1.0000 0.48680  0.21470  0.42870  Biso   1.000  C
  C68      1.0000 0.50200  0.22760  0.36980  Biso   1.000  C
  C69      1.0000 0.44350  0.20350  0.34510  Biso   1.000  C
  C70      1.0000 0.58080  0.26690  0.33130  Biso   1.000  C
  C71      1.0000 0.19540  0.90250  0.40290  Biso   1.000  C
  C72      1.0000 0.27850  0.80990  0.43230  Biso   1.000  C
  C73      1.0000 0.38580  0.76370  0.40530  Biso   1.000  C
  C74      1.0000 0.45980  0.67700  0.43380  Biso   1.000  C
  C75      1.0000 0.42720  0.64090  0.49030  Biso   1.000  C
  C76      1.0000 0.32080  0.68820  0.51780  Biso   1.000  C
  C77      1.0000 0.24640  0.77110  0.48830  Biso   1.000  C
  C78      1.0000 0.28580  0.65400  0.58020  Biso   1.000  C
  C79      1.0000 0.39120  0.94270  0.23510  Biso   1.000  C
  C80      1.0000 0.38470  0.84290  0.24430  Biso   1.000  C
  C81      1.0000 0.28830  0.84180  0.24520  Biso   1.000  C
  C82      1.0000 0.33720  0.38610  0.22470  Biso   1.000  C
  C83      1.0000 0.21590  0.44400  0.24020  Biso   1.000  C
  C84      1.0000 0.16430  0.55040  0.23060  Biso   1.000  C
  C85      1.0000 0.05280  0.60090  0.24030  Biso   1.000  C
  C86      1.0000 0.99160  0.54670  0.26050  Biso   1.000  C
  C87      1.0000 0.04220  0.44040  0.27240  Biso   1.000  C
  C88      1.0000 0.15410  0.39100  0.26200  Biso   1.000  C
  C89      1.0000 0.97940  0.37730  0.29410  Biso   1.000  C
  C90      1.0000 0.80110  0.35200  0.14800  Biso   1.000  C
  C91      1.0000 0.91530  0.33320  0.12140  Biso   1.000  C
  C92      1.0000 0.94690  0.34640  0.06200  Biso   1.000  C
  C93      1.0000 0.05440  0.32200  0.03760  Biso   1.000  C
  C94      1.0000 0.13020  0.28530  0.07130  Biso   1.000  C
  C95      1.0000 0.09940  0.27240  0.13020  Biso   1.000  C
  C96      1.0000 0.99210  0.29650  0.15490  Biso   1.000  C
  C97      1.0000 0.17900  0.23310  0.16870  Biso   1.000  C
  C98      1.0000 0.50080  0.59750  0.09710  Biso   1.000  C
  C99      1.0000 0.52070  0.69010  0.06770  Biso   1.000  C
  C100     1.0000 0.55480  0.73630  0.09470  Biso   1.000  C
  C101     1.0000 0.57060  0.82300  0.06620  Biso   1.000  C
  C102     1.0000 0.55840  0.85910  0.00970  Biso   1.000  C
  C103     1.0000 0.52680  0.81180  0.98220  Biso   1.000  C
  C104     1.0000 0.50580  0.72890  0.01170  Biso   1.000  C
  C105     1.0000 0.52000  0.84600  0.91980  Biso   1.000  C
  C106     1.0000 0.56900  0.55730  0.26490  Biso   1.000  C
  C107     1.0000 0.47190  0.65710  0.25570  Biso   1.000  C
  C108     1.0000 0.37530  0.65820  0.25480  Biso   1.000  C
  C109     1.0000 0.71520  0.25000  0.75000  Biso   1.000  C
  C110     1.0000 0.52340  0.25000  0.75000  Biso   1.000  C
  C111     1.0000 0.28480  0.75000  0.25000  Biso   1.000  C
  C112     1.0000 0.47660  0.75000  0.25000  Biso   1.000  C
  O1       1.0000 0.95453  0.93323  0.72071  Biso   1.000  O
  O2       1.0000 0.11240  0.79459  0.71701  Biso   1.000  O
  O3       1.0000 0.36710  0.78810  0.81890  Biso   1.000  O
  O4       1.0000 0.41176  0.91829  0.78599  Biso   1.000  O
  O5       1.0000 0.67070  0.86411  0.70089  Biso   1.000  O
  O6       1.0000 0.78465  0.85367  0.61843  Biso   1.000  O
  O7       1.0000 0.35688  0.72345  0.64699  Biso   1.000  O
  O8       1.0000 0.41885  0.71463  0.72107  Biso   1.000  O
  O9       1.0000 0.77147  0.04852  0.64174  Biso   1.000  O
  O10      1.0000 0.90130  0.07500  0.57520  Biso   1.000  O
  O11      1.0000 0.80416  0.28660  0.39268  Biso   1.000  O
  O12      1.0000 0.65389  0.42934  0.39468  Biso   1.000  O
  O13      1.0000 0.69634  0.97384  0.76548  Biso   1.000  O
  O14      1.0000 0.51936  0.05565  0.77383  Biso   1.000  O
  O15      1.0000 0.98833  0.87720  0.60514  Biso   1.000  O
  O16      1.0000 0.60847  0.56677  0.77929  Biso   1.000  O
  O17      1.0000 0.62400  0.70541  0.78299  Biso   1.000  O
  O18      1.0000 0.97410  0.71190  0.68110  Biso   1.000  O
  O19      1.0000 0.11604  0.58171  0.71401  Biso   1.000  O
  O20      1.0000 0.23570  0.63589  0.79911  Biso   1.000  O
  O21      1.0000 0.25675  0.64633  0.88157  Biso   1.000  O
  O22      1.0000 0.72732  0.77655  0.85301  Biso   1.000  O
  O23      1.0000 0.85455  0.78537  0.77893  Biso   1.000  O
  O24      1.0000 0.46173  0.45148  0.85826  Biso   1.000  O
  O25      1.0000 0.55150  0.42500  0.92480  Biso   1.000  O
  O26      1.0000 0.48344  0.21340  0.10732  Biso   1.000  O
  O27      1.0000 0.47791  0.07066  0.10532  Biso   1.000  O
  O28      1.0000 0.43566  0.52616  0.73452  Biso   1.000  O
  O29      1.0000 0.34884  0.44435  0.72617  Biso   1.000  O
  O30      1.0000 0.47067  0.62280  0.89486  Biso   1.000  O
  O31      1.0000 0.04547  0.06677  0.27929  Biso   1.000  O
  O32      1.0000 0.88760  0.20541  0.28299  Biso   1.000  O
  O33      1.0000 0.63290  0.21190  0.18110  Biso   1.000  O
  O34      1.0000 0.58824  0.08171  0.21401  Biso   1.000  O
  O35      1.0000 0.32930  0.13589  0.29911  Biso   1.000  O
  O36      1.0000 0.21535  0.14633  0.38157  Biso   1.000  O
  O37      1.0000 0.64312  0.27655  0.35301  Biso   1.000  O
  O38      1.0000 0.58115  0.28537  0.27893  Biso   1.000  O
  O39      1.0000 0.22853  0.95148  0.35826  Biso   1.000  O
  O40      1.0000 0.09870  0.92500  0.42480  Biso   1.000  O
  O41      1.0000 0.19584  0.71340  0.60732  Biso   1.000  O
  O42      1.0000 0.34611  0.57066  0.60532  Biso   1.000  O
  O43      1.0000 0.30366  0.02616  0.23452  Biso   1.000  O
  O44      1.0000 0.48064  0.94435  0.22617  Biso   1.000  O
  O45      1.0000 0.01167  0.12280  0.39486  Biso   1.000  O
  O46      1.0000 0.39153  0.43323  0.22071  Biso   1.000  O
  O47      1.0000 0.37600  0.29459  0.21701  Biso   1.000  O
  O48      1.0000 0.02590  0.28810  0.31890  Biso   1.000  O
  O49      1.0000 0.88396  0.41829  0.28599  Biso   1.000  O
  O50      1.0000 0.76430  0.36411  0.20089  Biso   1.000  O
  O51      1.0000 0.74325  0.35367  0.11843  Biso   1.000  O
  O52      1.0000 0.27268  0.22345  0.14699  Biso   1.000  O
  O53      1.0000 0.14545  0.21463  0.22107  Biso   1.000  O
  O54      1.0000 0.53827  0.54852  0.14174  Biso   1.000  O
  O55      1.0000 0.44850  0.57500  0.07520  Biso   1.000  O
  O56      1.0000 0.51656  0.78660  0.89268  Biso   1.000  O
  O57      1.0000 0.52209  0.92934  0.89468  Biso   1.000  O
  O58      1.0000 0.56434  0.47384  0.26548  Biso   1.000  O
  O59      1.0000 0.65116  0.55565  0.27383  Biso   1.000  O
  O60      1.0000 0.52933  0.37720  0.10514  Biso   1.000  O
