data_image0
_cell_length_a       10.391
_cell_length_b       15.81
_cell_length_c       15.482
_cell_angle_alpha    90
_cell_angle_beta     127.56
_cell_angle_gamma    90

_symmetry_space_group_name_H-M    "P 1"
_symmetry_int_tables_number       1

loop_
  _symmetry_equiv_pos_as_xyz
  'x, y, z'

loop_
  _atom_site_label
  _atom_site_occupancy
  _atom_site_fract_x
  _atom_site_fract_y
  _atom_site_fract_z
  _atom_site_thermal_displace_type
  _atom_site_B_iso_or_equiv
  _atom_site_type_symbol
  Mn1      1.0000 0.41640  0.18386  0.18495  Biso   1.000  Mn
  C1       1.0000 0.47130  0.36180  0.32210  Biso   1.000  C
  N1       1.0000 0.44460  0.30300  0.27210  Biso   1.000  N
  N2       1.0000 0.40270  0.38460  0.81000  Biso   1.000  N
  N3       1.0000 0.60980  0.56180  0.39660  Biso   1.000  N
  N4       1.0000 0.50260  0.42290  0.39250  Biso   1.000  N
  N5       1.0000 0.68800  0.16330  0.30840  Biso   1.000  N
  N6       1.0000 0.46450  0.25900  0.08490  Biso   1.000  N
  C2       1.0000 0.56000  0.49610  0.39070  Biso   1.000  C
  C3       1.0000 0.49510  0.30380  0.04440  Biso   1.000  C
  N7       1.0000 0.14920  0.29700  0.57530  Biso   1.000  N
  C4       1.0000 0.79910  0.18920  0.39710  Biso   1.000  C
  N8       1.0000 0.90200  0.20880  0.49750  Biso   1.000  N
  C5       1.0000 0.03370  0.25530  0.53570  Biso   1.000  C
  N9       1.0000 0.54590  0.36310  0.00820  Biso   1.000  N
  C6       1.0000 0.46450  0.37120  0.90090  Biso   1.000  C
  Mn2      1.0000 0.58360  0.68386  0.31505  Biso   1.000  Mn
  C7       1.0000 0.52870  0.86180  0.17790  Biso   1.000  C
  N10      1.0000 0.55540  0.80300  0.22790  Biso   1.000  N
  N11      1.0000 0.59730  0.88460  0.69000  Biso   1.000  N
  N12      1.0000 0.39020  0.06180  0.10340  Biso   1.000  N
  N13      1.0000 0.49740  0.92290  0.10750  Biso   1.000  N
  N14      1.0000 0.31200  0.66330  0.19160  Biso   1.000  N
  N15      1.0000 0.53550  0.75900  0.41510  Biso   1.000  N
  C8       1.0000 0.44000  0.99610  0.10930  Biso   1.000  C
  C9       1.0000 0.50490  0.80380  0.45560  Biso   1.000  C
  N16      1.0000 0.85080  0.79700  0.92470  Biso   1.000  N
  C10      1.0000 0.20090  0.68920  0.10290  Biso   1.000  C
  N17      1.0000 0.09800  0.70880  0.00250  Biso   1.000  N
  C11      1.0000 0.96630  0.75530  0.96430  Biso   1.000  C
  N18      1.0000 0.45410  0.86310  0.49180  Biso   1.000  N
  C12      1.0000 0.53550  0.87120  0.59910  Biso   1.000  C
  Mn3      1.0000 0.58360  0.81614  0.81505  Biso   1.000  Mn
  C13      1.0000 0.52870  0.63820  0.67790  Biso   1.000  C
  N19      1.0000 0.55540  0.69700  0.72790  Biso   1.000  N
  N20      1.0000 0.59730  0.61540  0.19000  Biso   1.000  N
  N21      1.0000 0.39020  0.43820  0.60340  Biso   1.000  N
  N22      1.0000 0.49740  0.57710  0.60750  Biso   1.000  N
  N23      1.0000 0.31200  0.83670  0.69160  Biso   1.000  N
  N24      1.0000 0.53550  0.74100  0.91510  Biso   1.000  N
  C14      1.0000 0.44000  0.50390  0.60930  Biso   1.000  C
  C15      1.0000 0.50490  0.69620  0.95560  Biso   1.000  C
  N25      1.0000 0.85080  0.70300  0.42470  Biso   1.000  N
  C16      1.0000 0.20090  0.81080  0.60290  Biso   1.000  C
  N26      1.0000 0.09800  0.79120  0.50250  Biso   1.000  N
  C17      1.0000 0.96630  0.74470  0.46430  Biso   1.000  C
  N27      1.0000 0.45410  0.63690  0.99180  Biso   1.000  N
  C18      1.0000 0.53550  0.62880  0.09910  Biso   1.000  C
  Mn4      1.0000 0.41640  0.31614  0.68495  Biso   1.000  Mn
  C19      1.0000 0.47130  0.13820  0.82210  Biso   1.000  C
  N28      1.0000 0.44460  0.19700  0.77210  Biso   1.000  N
  N29      1.0000 0.40270  0.11540  0.31000  Biso   1.000  N
  N30      1.0000 0.60980  0.93820  0.89660  Biso   1.000  N
  N31      1.0000 0.50260  0.07710  0.89250  Biso   1.000  N
  N32      1.0000 0.68800  0.33670  0.80840  Biso   1.000  N
  N33      1.0000 0.46450  0.24100  0.58490  Biso   1.000  N
  C20      1.0000 0.56000  0.00390  0.89070  Biso   1.000  C
  C21      1.0000 0.49510  0.19620  0.54440  Biso   1.000  C
  N34      1.0000 0.14920  0.20300  0.07530  Biso   1.000  N
  C22      1.0000 0.79910  0.31080  0.89710  Biso   1.000  C
  N35      1.0000 0.90200  0.29120  0.99750  Biso   1.000  N
  C23      1.0000 0.03370  0.24470  0.03570  Biso   1.000  C
  N36      1.0000 0.54590  0.13690  0.50820  Biso   1.000  N
  C24      1.0000 0.46450  0.12880  0.40090  Biso   1.000  C
