data_image0
_cell_length_a       14.724
_cell_length_b       8.561
_cell_length_c       13.267
_cell_angle_alpha    90
_cell_angle_beta     104.11
_cell_angle_gamma    90

_symmetry_space_group_name_H-M    "P 1"
_symmetry_int_tables_number       1

loop_
  _symmetry_equiv_pos_as_xyz
  'x, y, z'

loop_
  _atom_site_label
  _atom_site_occupancy
  _atom_site_fract_x
  _atom_site_fract_y
  _atom_site_fract_z
  _atom_site_thermal_displace_type
  _atom_site_B_iso_or_equiv
  _atom_site_type_symbol
  N1       1.0000 0.20370  0.13740  0.34670  Biso   1.000  N
  N2       1.0000 0.29510  0.33940  0.13330  Biso   1.000  N
  N3       1.0000 0.12620  0.93340  0.50940  Biso   1.000  N
  N4       1.0000 0.37320  0.93480  0.48550  Biso   1.000  N
  C1       1.0000 0.27220  0.19980  0.29150  Biso   1.000  C
  C2       1.0000 0.22750  0.26620  0.18480  Biso   1.000  C
  C3       1.0000 0.04240  0.03190  0.48310  Biso   1.000  C
  C4       1.0000 0.45580  0.03570  0.50980  Biso   1.000  C
  Li1      1.0000 0.24830  0.04010  0.49300  Biso   1.000  Li
  H1       1.0000 0.17500  0.04500  0.31200  Biso   1.000  H
  H2       1.0000 0.16100  0.21400  0.34300  Biso   1.000  H
  H3       1.0000 0.32400  0.42700  0.16800  Biso   1.000  H
  H4       1.0000 0.34000  0.26400  0.13400  Biso   1.000  H
  H5       1.0000 0.14000  0.89900  0.57300  Biso   1.000  H
  H6       1.0000 0.11200  0.83500  0.47700  Biso   1.000  H
  H7       1.0000 0.38800  0.84500  0.52200  Biso   1.000  H
  H8       1.0000 0.36100  0.89500  0.42100  Biso   1.000  H
  H9       1.0000 0.31500  0.29100  0.33900  Biso   1.000  H
  H10      1.0000 0.31400  0.10500  0.28700  Biso   1.000  H
  H11      1.0000 0.19100  0.17700  0.14000  Biso   1.000  H
  H12      1.0000 0.18500  0.35500  0.19000  Biso   1.000  H
  H13      1.0000 0.44000  0.14600  0.47400  Biso   1.000  H
  H14      1.0000 0.47200  0.06200  0.58600  Biso   1.000  H
  H15      1.0000 0.05800  0.14200  0.51000  Biso   1.000  H
  H16      1.0000 0.02000  0.04500  0.40300  Biso   1.000  H
  N5       1.0000 0.79630  0.63740  0.15330  Biso   1.000  N
  N6       1.0000 0.70490  0.83940  0.36670  Biso   1.000  N
  N7       1.0000 0.87380  0.43340  0.99060  Biso   1.000  N
  N8       1.0000 0.62680  0.43480  0.01450  Biso   1.000  N
  C5       1.0000 0.72780  0.69980  0.20850  Biso   1.000  C
  C6       1.0000 0.77250  0.76620  0.31520  Biso   1.000  C
  C7       1.0000 0.95760  0.53190  0.01690  Biso   1.000  C
  C8       1.0000 0.54420  0.53570  0.99020  Biso   1.000  C
  Li2      1.0000 0.75170  0.54010  0.00700  Biso   1.000  Li
  H17      1.0000 0.82500  0.54500  0.18800  Biso   1.000  H
  H18      1.0000 0.83900  0.71400  0.15700  Biso   1.000  H
  H19      1.0000 0.67600  0.92700  0.33200  Biso   1.000  H
  H20      1.0000 0.66000  0.76400  0.36600  Biso   1.000  H
  H21      1.0000 0.86000  0.39900  0.92700  Biso   1.000  H
  H22      1.0000 0.88800  0.33500  0.02300  Biso   1.000  H
  H23      1.0000 0.61200  0.34500  0.97800  Biso   1.000  H
  H24      1.0000 0.63900  0.39500  0.07900  Biso   1.000  H
  H25      1.0000 0.68500  0.79100  0.16100  Biso   1.000  H
  H26      1.0000 0.68600  0.60500  0.21300  Biso   1.000  H
  H27      1.0000 0.80900  0.67700  0.36000  Biso   1.000  H
  H28      1.0000 0.81500  0.85500  0.31000  Biso   1.000  H
  H29      1.0000 0.56000  0.64600  0.02600  Biso   1.000  H
  H30      1.0000 0.52800  0.56200  0.91400  Biso   1.000  H
  H31      1.0000 0.94200  0.64200  0.99000  Biso   1.000  H
  H32      1.0000 0.98000  0.54500  0.09700  Biso   1.000  H
  N9       1.0000 0.79630  0.86260  0.65330  Biso   1.000  N
  N10      1.0000 0.70490  0.66060  0.86670  Biso   1.000  N
  N11      1.0000 0.87380  0.06660  0.49060  Biso   1.000  N
  N12      1.0000 0.62680  0.06520  0.51450  Biso   1.000  N
  C9       1.0000 0.72780  0.80020  0.70850  Biso   1.000  C
  C10      1.0000 0.77250  0.73380  0.81520  Biso   1.000  C
  C11      1.0000 0.95760  0.96810  0.51690  Biso   1.000  C
  C12      1.0000 0.54420  0.96430  0.49020  Biso   1.000  C
  Li3      1.0000 0.75170  0.95990  0.50700  Biso   1.000  Li
  H33      1.0000 0.82500  0.95500  0.68800  Biso   1.000  H
  H34      1.0000 0.83900  0.78600  0.65700  Biso   1.000  H
  H35      1.0000 0.67600  0.57300  0.83200  Biso   1.000  H
  H36      1.0000 0.66000  0.73600  0.86600  Biso   1.000  H
  H37      1.0000 0.86000  0.10100  0.42700  Biso   1.000  H
  H38      1.0000 0.88800  0.16500  0.52300  Biso   1.000  H
  H39      1.0000 0.61200  0.15500  0.47800  Biso   1.000  H
  H40      1.0000 0.63900  0.10500  0.57900  Biso   1.000  H
  H41      1.0000 0.68500  0.70900  0.66100  Biso   1.000  H
  H42      1.0000 0.68600  0.89500  0.71300  Biso   1.000  H
  H43      1.0000 0.80900  0.82300  0.86000  Biso   1.000  H
  H44      1.0000 0.81500  0.64500  0.81000  Biso   1.000  H
  H45      1.0000 0.56000  0.85400  0.52600  Biso   1.000  H
  H46      1.0000 0.52800  0.93800  0.41400  Biso   1.000  H
  H47      1.0000 0.94200  0.85800  0.49000  Biso   1.000  H
  H48      1.0000 0.98000  0.95500  0.59700  Biso   1.000  H
  N13      1.0000 0.20370  0.36260  0.84670  Biso   1.000  N
  N14      1.0000 0.29510  0.16060  0.63330  Biso   1.000  N
  N15      1.0000 0.12620  0.56660  0.00940  Biso   1.000  N
  N16      1.0000 0.37320  0.56520  0.98550  Biso   1.000  N
  C13      1.0000 0.27220  0.30020  0.79150  Biso   1.000  C
  C14      1.0000 0.22750  0.23380  0.68480  Biso   1.000  C
  C15      1.0000 0.04240  0.46810  0.98310  Biso   1.000  C
  C16      1.0000 0.45580  0.46430  0.00980  Biso   1.000  C
  Li4      1.0000 0.24830  0.45990  0.99300  Biso   1.000  Li
  H49      1.0000 0.17500  0.45500  0.81200  Biso   1.000  H
  H50      1.0000 0.16100  0.28600  0.84300  Biso   1.000  H
  H51      1.0000 0.32400  0.07300  0.66800  Biso   1.000  H
  H52      1.0000 0.34000  0.23600  0.63400  Biso   1.000  H
  H53      1.0000 0.14000  0.60100  0.07300  Biso   1.000  H
  H54      1.0000 0.11200  0.66500  0.97700  Biso   1.000  H
  H55      1.0000 0.38800  0.65500  0.02200  Biso   1.000  H
  H56      1.0000 0.36100  0.60500  0.92100  Biso   1.000  H
  H57      1.0000 0.31500  0.20900  0.83900  Biso   1.000  H
  H58      1.0000 0.31400  0.39500  0.78700  Biso   1.000  H
  H59      1.0000 0.19100  0.32300  0.64000  Biso   1.000  H
  H60      1.0000 0.18500  0.14500  0.69000  Biso   1.000  H
  H61      1.0000 0.44000  0.35400  0.97400  Biso   1.000  H
  H62      1.0000 0.47200  0.43800  0.08600  Biso   1.000  H
  H63      1.0000 0.05800  0.35800  0.01000  Biso   1.000  H
  H64      1.0000 0.02000  0.45500  0.90300  Biso   1.000  H
