data_image0
_cell_length_a       7.753
_cell_length_b       10.458
_cell_length_c       11.2386
_cell_angle_alpha    62.2721
_cell_angle_beta     85.3336
_cell_angle_gamma    79.9299

_symmetry_space_group_name_H-M    P 1
_symmetry_int_tables_number       1

loop_
  _symmetry_equiv_pos_as_xyz
  'x, y, z'

loop_
  _atom_site_label
  _atom_site_occupancy
  _atom_site_fract_x
  _atom_site_fract_y
  _atom_site_fract_z
  _atom_site_thermal_displace_type
  _atom_site_B_iso_or_equiv
  _atom_site_type_symbol
  Zn1      1.0000 0.11240  0.60011  0.00000  Biso   1.000  Zn
  Zn2      1.0000 0.88760  0.39989  0.00000  Biso   1.000  Zn
  H1       1.0000 0.77160  0.14590  0.42680  Biso   1.000  H
  H2       1.0000 0.89970  0.97180  0.62040  Biso   1.000  H
  H3       1.0000 0.49340  0.74710  0.72220  Biso   1.000  H
  H4       1.0000 0.22840  0.42730  0.42680  Biso   1.000  H
  H5       1.0000 0.10030  0.40780  0.62040  Biso   1.000  H
  H6       1.0000 0.50660  0.53070  0.72220  Biso   1.000  H
  H7       1.0000 0.22840  0.85410  0.57320  Biso   1.000  H
  H8       1.0000 0.10030  0.02820  0.37960  Biso   1.000  H
  H9       1.0000 0.50660  0.25290  0.27780  Biso   1.000  H
  H10      1.0000 0.77160  0.57270  0.57320  Biso   1.000  H
  H11      1.0000 0.89970  0.59220  0.37960  Biso   1.000  H
  H12      1.0000 0.49340  0.46930  0.27780  Biso   1.000  H
  H13      1.0000 0.03610  0.90320  0.00000  Biso   1.000  H
  H14      1.0000 0.19730  0.07150  0.00000  Biso   1.000  H
  H15      1.0000 0.64620  0.80960  1.00000  Biso   1.000  H
  H16      1.0000 0.48510  0.64130  0.00000  Biso   1.000  H
  H17      1.0000 0.96390  0.09680  0.00000  Biso   1.000  H
  H18      1.0000 0.80270  0.92850  1.00000  Biso   1.000  H
  H19      1.0000 0.35380  0.19040  0.00000  Biso   1.000  H
  H20      1.0000 0.51490  0.35870  0.00000  Biso   1.000  H
  C1       1.0000 0.53930  0.06300  0.45300  Biso   1.000  C
  C2       1.0000 0.71240  0.06850  0.48520  Biso   1.000  C
  C3       1.0000 0.78920  0.96260  0.59900  Biso   1.000  C
  C4       1.0000 0.54760  0.82730  0.66280  Biso   1.000  C
  C5       1.0000 0.71500  0.83760  0.68940  Biso   1.000  C
  C6       1.0000 0.80700  0.71540  0.80920  Biso   1.000  C
  C7       1.0000 0.46070  0.48400  0.45300  Biso   1.000  C
  C8       1.0000 0.28760  0.44630  0.48520  Biso   1.000  C
  C9       1.0000 0.21080  0.43840  0.59900  Biso   1.000  C
  C10      1.0000 0.45240  0.50990  0.66280  Biso   1.000  C
  C11      1.0000 0.28500  0.47300  0.68940  Biso   1.000  C
  C12      1.0000 0.19300  0.47540  0.80920  Biso   1.000  C
  C13      1.0000 0.46070  0.93700  0.54700  Biso   1.000  C
  C14      1.0000 0.28760  0.93150  0.51480  Biso   1.000  C
  C15      1.0000 0.21080  0.03740  0.40100  Biso   1.000  C
  C16      1.0000 0.45240  0.17270  0.33720  Biso   1.000  C
  C17      1.0000 0.28500  0.16240  0.31060  Biso   1.000  C
  C18      1.0000 0.19300  0.28460  0.19080  Biso   1.000  C
  C19      1.0000 0.53930  0.51600  0.54700  Biso   1.000  C
  C20      1.0000 0.71240  0.55370  0.51480  Biso   1.000  C
  C21      1.0000 0.78920  0.56160  0.40100  Biso   1.000  C
  C22      1.0000 0.54760  0.49010  0.33720  Biso   1.000  C
  C23      1.0000 0.71500  0.52700  0.31060  Biso   1.000  C
  C24      1.0000 0.80700  0.52460  0.19080  Biso   1.000  C
  C25      1.0000 0.15920  0.88430  0.00000  Biso   1.000  C
  C26      1.0000 0.25530  0.98480  0.00000  Biso   1.000  C
  C27      1.0000 0.43730  0.95680  1.00000  Biso   1.000  C
  C28      1.0000 0.52310  0.82850  0.00000  Biso   1.000  C
  C29      1.0000 0.42700  0.72810  0.00000  Biso   1.000  C
  C30      1.0000 0.84080  0.11570  0.00000  Biso   1.000  C
  C31      1.0000 0.74470  0.01520  0.00000  Biso   1.000  C
  C32      1.0000 0.56270  0.04320  0.00000  Biso   1.000  C
  C33      1.0000 0.47690  0.17150  0.00000  Biso   1.000  C
  C34      1.0000 0.57300  0.27190  0.00000  Biso   1.000  C
  N1       1.0000 0.24500  0.75600  0.00000  Biso   1.000  N
  N2       1.0000 0.75500  0.24400  0.00000  Biso   1.000  N
  O1       1.0000 0.93290  0.74140  0.85380  Biso   1.000  O
  O2       1.0000 0.76080  0.59160  0.85940  Biso   1.000  O
  O3       1.0000 0.06710  0.40480  0.85380  Biso   1.000  O
  O4       1.0000 0.23920  0.54900  0.85940  Biso   1.000  O
  O5       1.0000 0.06710  0.25860  0.14620  Biso   1.000  O
  O6       1.0000 0.23920  0.40840  0.14060  Biso   1.000  O
  O7       1.0000 0.93290  0.59520  0.14620  Biso   1.000  O
  O8       1.0000 0.76080  0.45100  0.14060  Biso   1.000  O
