data_image0
_cell_length_a       12.3305
_cell_length_b       15.5069
_cell_length_c       15.6412
_cell_angle_alpha    90
_cell_angle_beta     90
_cell_angle_gamma    90

_symmetry_space_group_name_H-M    P 1
_symmetry_int_tables_number       1

loop_
  _symmetry_equiv_pos_as_xyz
  'x, y, z'

loop_
  _atom_site_label
  _atom_site_occupancy
  _atom_site_fract_x
  _atom_site_fract_y
  _atom_site_fract_z
  _atom_site_thermal_displace_type
  _atom_site_B_iso_or_equiv
  _atom_site_type_symbol
  Cu1      1.0000 0.00000  0.00000  0.00000  Biso   1.000  Cu
  Cu2      1.0000 0.50000  0.50000  0.50000  Biso   1.000  Cu
  Cu3      1.0000 0.15251  0.00000  0.19216  Biso   1.000  Cu
  Cu4      1.0000 0.84749  0.00000  0.80784  Biso   1.000  Cu
  Cu5      1.0000 0.34749  0.50000  0.69216  Biso   1.000  Cu
  Cu6      1.0000 0.65251  0.50000  0.30784  Biso   1.000  Cu
  H1       1.0000 0.77370  0.71620  0.09730  Biso   1.000  H
  H2       1.0000 0.67860  0.60050  0.15010  Biso   1.000  H
  H3       1.0000 0.84240  0.60390  0.35850  Biso   1.000  H
  H4       1.0000 0.94330  0.71880  0.31120  Biso   1.000  H
  H5       1.0000 0.22630  0.71620  0.90270  Biso   1.000  H
  H6       1.0000 0.32140  0.60050  0.84990  Biso   1.000  H
  H7       1.0000 0.15760  0.60390  0.64150  Biso   1.000  H
  H8       1.0000 0.05670  0.71880  0.68880  Biso   1.000  H
  H9       1.0000 0.72630  0.78380  0.59730  Biso   1.000  H
  H10      1.0000 0.82140  0.89950  0.65010  Biso   1.000  H
  H11      1.0000 0.65760  0.89610  0.85850  Biso   1.000  H
  H12      1.0000 0.55670  0.78120  0.81120  Biso   1.000  H
  H13      1.0000 0.27370  0.78380  0.40270  Biso   1.000  H
  H14      1.0000 0.17860  0.89950  0.34990  Biso   1.000  H
  H15      1.0000 0.34240  0.89610  0.14150  Biso   1.000  H
  H16      1.0000 0.44330  0.78120  0.18880  Biso   1.000  H
  H17      1.0000 0.22630  0.28380  0.90270  Biso   1.000  H
  H18      1.0000 0.32140  0.39950  0.84990  Biso   1.000  H
  H19      1.0000 0.15760  0.39610  0.64150  Biso   1.000  H
  H20      1.0000 0.05670  0.28120  0.68880  Biso   1.000  H
  H21      1.0000 0.77370  0.28380  0.09730  Biso   1.000  H
  H22      1.0000 0.67860  0.39950  0.15010  Biso   1.000  H
  H23      1.0000 0.84240  0.39610  0.35850  Biso   1.000  H
  H24      1.0000 0.94330  0.28120  0.31120  Biso   1.000  H
  H25      1.0000 0.27370  0.21620  0.40270  Biso   1.000  H
  H26      1.0000 0.17860  0.10050  0.34990  Biso   1.000  H
  H27      1.0000 0.34240  0.10390  0.14150  Biso   1.000  H
  H28      1.0000 0.44330  0.21880  0.18880  Biso   1.000  H
  H29      1.0000 0.72630  0.21620  0.59730  Biso   1.000  H
  H30      1.0000 0.82140  0.10050  0.65010  Biso   1.000  H
  H31      1.0000 0.65760  0.10390  0.85850  Biso   1.000  H
  H32      1.0000 0.55670  0.21880  0.81120  Biso   1.000  H
  C1       1.0000 0.93350  0.80540  0.16690  Biso   1.000  C
  C2       1.0000 0.87160  0.72990  0.19860  Biso   1.000  C
  C3       1.0000 0.79020  0.69430  0.15110  Biso   1.000  C
  C4       1.0000 0.73240  0.62500  0.18390  Biso   1.000  C
  C5       1.0000 0.82770  0.62680  0.30480  Biso   1.000  C
  C6       1.0000 0.88940  0.69590  0.27640  Biso   1.000  C
  C7       1.0000 0.06650  0.80540  0.83310  Biso   1.000  C
  C8       1.0000 0.12840  0.72990  0.80140  Biso   1.000  C
  C9       1.0000 0.20980  0.69430  0.84890  Biso   1.000  C
  C10      1.0000 0.26760  0.62500  0.81610  Biso   1.000  C
  C11      1.0000 0.17230  0.62680  0.69520  Biso   1.000  C
  C12      1.0000 0.11060  0.69590  0.72360  Biso   1.000  C
  C13      1.0000 0.56650  0.69460  0.66690  Biso   1.000  C
  C14      1.0000 0.62840  0.77010  0.69860  Biso   1.000  C
  C15      1.0000 0.70980  0.80570  0.65110  Biso   1.000  C
  C16      1.0000 0.76760  0.87500  0.68390  Biso   1.000  C
  C17      1.0000 0.67230  0.87320  0.80480  Biso   1.000  C
  C18      1.0000 0.61060  0.80410  0.77640  Biso   1.000  C
  C19      1.0000 0.43350  0.69460  0.33310  Biso   1.000  C
  C20      1.0000 0.37160  0.77010  0.30140  Biso   1.000  C
  C21      1.0000 0.29020  0.80570  0.34890  Biso   1.000  C
  C22      1.0000 0.23240  0.87500  0.31610  Biso   1.000  C
  C23      1.0000 0.32770  0.87320  0.19520  Biso   1.000  C
  C24      1.0000 0.38940  0.80410  0.22360  Biso   1.000  C
  C25      1.0000 0.06650  0.19460  0.83310  Biso   1.000  C
  C26      1.0000 0.12840  0.27010  0.80140  Biso   1.000  C
  C27      1.0000 0.20980  0.30570  0.84890  Biso   1.000  C
  C28      1.0000 0.26760  0.37500  0.81610  Biso   1.000  C
  C29      1.0000 0.17230  0.37320  0.69520  Biso   1.000  C
  C30      1.0000 0.11060  0.30410  0.72360  Biso   1.000  C
  C31      1.0000 0.93350  0.19460  0.16690  Biso   1.000  C
  C32      1.0000 0.87160  0.27010  0.19860  Biso   1.000  C
  C33      1.0000 0.79020  0.30570  0.15110  Biso   1.000  C
  C34      1.0000 0.73240  0.37500  0.18390  Biso   1.000  C
  C35      1.0000 0.82770  0.37320  0.30480  Biso   1.000  C
  C36      1.0000 0.88940  0.30410  0.27640  Biso   1.000  C
  C37      1.0000 0.43350  0.30540  0.33310  Biso   1.000  C
  C38      1.0000 0.37160  0.22990  0.30140  Biso   1.000  C
  C39      1.0000 0.29020  0.19430  0.34890  Biso   1.000  C
  C40      1.0000 0.23240  0.12500  0.31610  Biso   1.000  C
  C41      1.0000 0.32770  0.12680  0.19520  Biso   1.000  C
  C42      1.0000 0.38940  0.19590  0.22360  Biso   1.000  C
  C43      1.0000 0.56650  0.30540  0.66690  Biso   1.000  C
  C44      1.0000 0.62840  0.22990  0.69860  Biso   1.000  C
  C45      1.0000 0.70980  0.19430  0.65110  Biso   1.000  C
  C46      1.0000 0.76760  0.12500  0.68390  Biso   1.000  C
  C47      1.0000 0.67230  0.12680  0.80480  Biso   1.000  C
  C48      1.0000 0.61060  0.19590  0.77640  Biso   1.000  C
  N1       1.0000 0.98520  0.90816  0.09105  Biso   1.000  N
  N2       1.0000 0.04000  0.90936  0.16389  Biso   1.000  N
  N3       1.0000 0.00870  0.84487  0.21320  Biso   1.000  N
  N4       1.0000 0.91640  0.84209  0.09141  Biso   1.000  N
  N5       1.0000 0.74970  0.59244  0.25951  Biso   1.000  N
  N6       1.0000 0.01480  0.90816  0.90895  Biso   1.000  N
  N7       1.0000 0.96000  0.90936  0.83611  Biso   1.000  N
  N8       1.0000 0.99130  0.84487  0.78680  Biso   1.000  N
  N9       1.0000 0.08360  0.84209  0.90859  Biso   1.000  N
  N10      1.0000 0.25030  0.59244  0.74049  Biso   1.000  N
  N11      1.0000 0.51480  0.59184  0.59105  Biso   1.000  N
  N12      1.0000 0.46000  0.59064  0.66389  Biso   1.000  N
  N13      1.0000 0.49130  0.65513  0.71320  Biso   1.000  N
  N14      1.0000 0.58360  0.65791  0.59141  Biso   1.000  N
  N15      1.0000 0.75030  0.90756  0.75951  Biso   1.000  N
  N16      1.0000 0.48520  0.59184  0.40895  Biso   1.000  N
  N17      1.0000 0.54000  0.59064  0.33611  Biso   1.000  N
  N18      1.0000 0.50870  0.65513  0.28680  Biso   1.000  N
  N19      1.0000 0.41640  0.65791  0.40859  Biso   1.000  N
  N20      1.0000 0.24970  0.90756  0.24049  Biso   1.000  N
  N21      1.0000 0.01480  0.09184  0.90895  Biso   1.000  N
  N22      1.0000 0.96000  0.09064  0.83611  Biso   1.000  N
  N23      1.0000 0.99130  0.15513  0.78680  Biso   1.000  N
  N24      1.0000 0.08360  0.15791  0.90859  Biso   1.000  N
  N25      1.0000 0.25030  0.40756  0.74049  Biso   1.000  N
  N26      1.0000 0.98520  0.09184  0.09105  Biso   1.000  N
  N27      1.0000 0.04000  0.09064  0.16389  Biso   1.000  N
  N28      1.0000 0.00870  0.15513  0.21320  Biso   1.000  N
  N29      1.0000 0.91640  0.15791  0.09141  Biso   1.000  N
  N30      1.0000 0.74970  0.40756  0.25951  Biso   1.000  N
  N31      1.0000 0.48520  0.40816  0.40895  Biso   1.000  N
  N32      1.0000 0.54000  0.40936  0.33611  Biso   1.000  N
  N33      1.0000 0.50870  0.34487  0.28680  Biso   1.000  N
  N34      1.0000 0.41640  0.34209  0.40859  Biso   1.000  N
  N35      1.0000 0.24970  0.09244  0.24049  Biso   1.000  N
  N36      1.0000 0.51480  0.40816  0.59105  Biso   1.000  N
  N37      1.0000 0.46000  0.40936  0.66389  Biso   1.000  N
  N38      1.0000 0.49130  0.34487  0.71320  Biso   1.000  N
  N39      1.0000 0.58360  0.34209  0.59141  Biso   1.000  N
  N40      1.0000 0.75030  0.09244  0.75951  Biso   1.000  N
  Cl1      1.0000 0.21617  0.00000  0.03771  Biso   1.000  Cl
  Cl2      1.0000 0.78383  0.00000  0.96229  Biso   1.000  Cl
  Cl3      1.0000 0.28383  0.50000  0.53771  Biso   1.000  Cl
  Cl4      1.0000 0.71617  0.50000  0.46229  Biso   1.000  Cl
