data_image0
_cell_length_a       9.0897
_cell_length_b       9.2075
_cell_length_c       9.2914
_cell_angle_alpha    76.546
_cell_angle_beta     87.299
_cell_angle_gamma    89.411

_symmetry_space_group_name_H-M    "P 1"
_symmetry_int_tables_number       1

loop_
  _symmetry_equiv_pos_as_xyz
  'x, y, z'

loop_
  _atom_site_label
  _atom_site_occupancy
  _atom_site_fract_x
  _atom_site_fract_y
  _atom_site_fract_z
  _atom_site_thermal_displace_type
  _atom_site_B_iso_or_equiv
  _atom_site_type_symbol
  P1       1.0000 0.31307  0.61869  0.59715  Biso   1.000  P
  P2       1.0000 0.88274  0.62792  0.82308  Biso   1.000  P
  P3       1.0000 0.14609  0.16829  0.64572  Biso   1.000  P
  Al1      1.0000 0.06552  0.86764  0.58746  Biso   1.000  Al
  Al2      1.0000 0.66035  0.62558  0.57431  Biso   1.000  Al
  Al3      1.0000 0.11894  0.39120  0.84198  Biso   1.000  Al
  F1       1.0000 0.10575  0.01415  0.41624  Biso   1.000  F
  O1       1.0000 0.23836  0.76795  0.57013  Biso   1.000  O
  O2       1.0000 0.99848  0.74450  0.76241  Biso   1.000  O
  O3       1.0000 0.15159  0.99888  0.68785  Biso   1.000  O
  O4       1.0000 0.74714  0.64290  0.73030  Biso   1.000  O
  O5       1.0000 0.03237  0.23351  0.53359  Biso   1.000  O
  O6       1.0000 0.94541  0.47048  0.83720  Biso   1.000  O
  O7       1.0000 0.11800  0.22281  0.78965  Biso   1.000  O
  O8       1.0000 0.24970  0.51027  0.73636  Biso   1.000  O
  O9       1.0000 0.47539  0.63910  0.62300  Biso   1.000  O
  O10      1.0000 0.30310  0.54790  0.46377  Biso   1.000  O
  O11      1.0000 0.29997  0.23046  0.58094  Biso   1.000  O
  O12      1.0000 0.82543  0.64430  0.97658  Biso   1.000  O
  P4       1.0000 0.68693  0.38131  0.40285  Biso   1.000  P
  P5       1.0000 0.11726  0.37208  0.17692  Biso   1.000  P
  P6       1.0000 0.85391  0.83171  0.35428  Biso   1.000  P
  Al4      1.0000 0.93448  0.13236  0.41254  Biso   1.000  Al
  Al5      1.0000 0.33965  0.37442  0.42569  Biso   1.000  Al
  Al6      1.0000 0.88106  0.60880  0.15802  Biso   1.000  Al
  F2       1.0000 0.89425  0.98585  0.58376  Biso   1.000  F
  O13      1.0000 0.76164  0.23205  0.42987  Biso   1.000  O
  O14      1.0000 0.00152  0.25550  0.23759  Biso   1.000  O
  O15      1.0000 0.84841  0.00112  0.31215  Biso   1.000  O
  O16      1.0000 0.25286  0.35710  0.26970  Biso   1.000  O
  O17      1.0000 0.96763  0.76649  0.46641  Biso   1.000  O
  O18      1.0000 0.05459  0.52952  0.16280  Biso   1.000  O
  O19      1.0000 0.88200  0.77719  0.21035  Biso   1.000  O
  O20      1.0000 0.75030  0.48973  0.26364  Biso   1.000  O
  O21      1.0000 0.52461  0.36090  0.37700  Biso   1.000  O
  O22      1.0000 0.69690  0.45210  0.53623  Biso   1.000  O
  O23      1.0000 0.70003  0.76954  0.41906  Biso   1.000  O
  O24      1.0000 0.17457  0.35570  0.02342  Biso   1.000  O
