data_image0
_cell_length_a       9.162
_cell_length_b       9.291
_cell_length_c       16.504
_cell_angle_alpha    75.038
_cell_angle_beta     75.244
_cell_angle_gamma    83.867

_symmetry_space_group_name_H-M    "P 1"
_symmetry_int_tables_number       1

loop_
  _symmetry_equiv_pos_as_xyz
  'x, y, z'

loop_
  _atom_site_label
  _atom_site_occupancy
  _atom_site_fract_x
  _atom_site_fract_y
  _atom_site_fract_z
  _atom_site_thermal_displace_type
  _atom_site_B_iso_or_equiv
  _atom_site_type_symbol
  P1       1.0000 0.66579  0.81787  0.47416  Biso   1.000  P
  P2       1.0000 0.31216  0.58007  0.69359  Biso   1.000  P
  P3       1.0000 0.13504  0.66364  0.46786  Biso   1.000  P
  P4       1.0000 0.02170  0.73660  0.99889  Biso   1.000  P
  P5       1.0000 0.14661  0.54750  0.22546  Biso   1.000  P
  Al1      1.0000 0.31406  0.84940  0.53419  Biso   1.000  Al
  Al2      1.0000 0.89516  0.61120  0.37486  Biso   1.000  Al
  Al3      1.0000 0.66642  0.55460  0.63477  Biso   1.000  Al
  Al4      1.0000 0.07020  0.54860  0.85970  Biso   1.000  Al
  O1       1.0000 0.49880  0.83990  0.47490  Biso   1.000  O
  O2       1.0000 0.01830  0.71120  0.41660  Biso   1.000  O
  O3       1.0000 0.07130  0.56340  0.55490  Biso   1.000  O
  O4       1.0000 0.19220  0.80350  0.48040  Biso   1.000  O
  O5       1.0000 0.73210  0.97040  0.45510  Biso   1.000  O
  O6       1.0000 0.47840  0.53330  0.68760  Biso   1.000  O
  O7       1.0000 0.07400  0.43840  0.19340  Biso   1.000  O
  O8       1.0000 0.74230  0.73830  0.40410  Biso   1.000  O
  O9       1.0000 0.68430  0.72790  0.56400  Biso   1.000  O
  O10      1.0000 0.23690  0.46920  0.66870  Biso   1.000  O
  O11      1.0000 0.24340  0.58780  0.78760  Biso   1.000  O
  O12      1.0000 0.27330  0.58480  0.41910  Biso   1.000  O
  O13      1.0000 0.02610  0.64440  0.27150  Biso   1.000  O
  O14      1.0000 0.30090  0.73770  0.63740  Biso   1.000  O
  O15      1.0000 0.25160  0.64720  0.14900  Biso   1.000  O
  O16      1.0000 0.02890  0.68610  0.91700  Biso   1.000  O
  O17      1.0000 0.92130  0.62940  0.07500  Biso   1.000  O
  O18      1.0000 0.23700  0.45240  0.28700  Biso   1.000  O
  O19      1.0000 0.18090  0.73270  0.01100  Biso   1.000  O
  O20      1.0000 0.94790  0.89030  0.98780  Biso   1.000  O
  P6       1.0000 0.33421  0.18213  0.52584  Biso   1.000  P
  P7       1.0000 0.68784  0.41993  0.30641  Biso   1.000  P
  P8       1.0000 0.86496  0.33636  0.53214  Biso   1.000  P
  P9       1.0000 0.97830  0.26340  0.00111  Biso   1.000  P
  P10      1.0000 0.85339  0.45250  0.77454  Biso   1.000  P
  Al5      1.0000 0.68594  0.15060  0.46581  Biso   1.000  Al
  Al6      1.0000 0.10484  0.38880  0.62514  Biso   1.000  Al
  Al7      1.0000 0.33358  0.44540  0.36523  Biso   1.000  Al
  Al8      1.0000 0.92980  0.45140  0.14030  Biso   1.000  Al
  O21      1.0000 0.50120  0.16010  0.52510  Biso   1.000  O
  O22      1.0000 0.98170  0.28880  0.58340  Biso   1.000  O
  O23      1.0000 0.92870  0.43660  0.44510  Biso   1.000  O
  O24      1.0000 0.80780  0.19650  0.51960  Biso   1.000  O
  O25      1.0000 0.26790  0.02960  0.54490  Biso   1.000  O
  O26      1.0000 0.52160  0.46670  0.31240  Biso   1.000  O
  O27      1.0000 0.92600  0.56160  0.80660  Biso   1.000  O
  O28      1.0000 0.25770  0.26170  0.59590  Biso   1.000  O
  O29      1.0000 0.31570  0.27210  0.43600  Biso   1.000  O
  O30      1.0000 0.76310  0.53080  0.33130  Biso   1.000  O
  O31      1.0000 0.75660  0.41220  0.21240  Biso   1.000  O
  O32      1.0000 0.72670  0.41520  0.58090  Biso   1.000  O
  O33      1.0000 0.97390  0.35560  0.72850  Biso   1.000  O
  O34      1.0000 0.69910  0.26230  0.36260  Biso   1.000  O
  O35      1.0000 0.74840  0.35280  0.85100  Biso   1.000  O
  O36      1.0000 0.97110  0.31390  0.08300  Biso   1.000  O
  O37      1.0000 0.07870  0.37060  0.92500  Biso   1.000  O
  O38      1.0000 0.76300  0.54760  0.71300  Biso   1.000  O
  O39      1.0000 0.81910  0.26730  0.98900  Biso   1.000  O
  O40      1.0000 0.05210  0.10970  0.01220  Biso   1.000  O
