data_image0
_cell_length_a       8.601
_cell_length_b       14.224
_cell_length_c       16.098
_cell_angle_alpha    90
_cell_angle_beta     90
_cell_angle_gamma    90

_symmetry_space_group_name_H-M    P 1
_symmetry_int_tables_number       1

loop_
  _symmetry_equiv_pos_as_xyz
  'x, y, z'

loop_
  _atom_site_label
  _atom_site_occupancy
  _atom_site_fract_x
  _atom_site_fract_y
  _atom_site_fract_z
  _atom_site_thermal_displace_type
  _atom_site_B_iso_or_equiv
  _atom_site_type_symbol
  Ag1      1.0000 0.94145  0.43042  0.37450  Biso   1.000  Ag
  Ag2      1.0000 0.55855  0.56958  0.87450  Biso   1.000  Ag
  Ag3      1.0000 0.05855  0.93042  0.12550  Biso   1.000  Ag
  Ag4      1.0000 0.44145  0.06958  0.62550  Biso   1.000  Ag
  H1       1.0000 0.28070  0.36700  0.25710  Biso   1.000  H
  H2       1.0000 0.14250  0.33200  0.18940  Biso   1.000  H
  H3       1.0000 0.36070  0.20640  0.26460  Biso   1.000  H
  H4       1.0000 0.38660  0.22540  0.17610  Biso   1.000  H
  H5       1.0000 0.84500  0.65800  0.37380  Biso   1.000  H
  H6       1.0000 0.91710  0.64250  0.26460  Biso   1.000  H
  H7       1.0000 0.63540  0.43390  0.21750  Biso   1.000  H
  H8       1.0000 0.61640  0.55000  0.19190  Biso   1.000  H
  H9       1.0000 0.89000  0.55160  0.15670  Biso   1.000  H
  H10      1.0000 0.86820  0.42300  0.14870  Biso   1.000  H
  H11      1.0000 0.82820  0.56800  0.56580  Biso   1.000  H
  H12      1.0000 0.66070  0.52590  0.53080  Biso   1.000  H
  H13      1.0000 0.58290  0.35950  0.44710  Biso   1.000  H
  H14      1.0000 0.57610  0.34640  0.54730  Biso   1.000  H
  H15      1.0000 0.79390  0.20930  0.46810  Biso   1.000  H
  H16      1.0000 0.61250  0.20050  0.49710  Biso   1.000  H
  H17      1.0000 0.29930  0.37020  0.42420  Biso   1.000  H
  H18      1.0000 0.35890  0.26840  0.39460  Biso   1.000  H
  H19      1.0000 0.21930  0.63300  0.75710  Biso   1.000  H
  H20      1.0000 0.35750  0.66800  0.68940  Biso   1.000  H
  H21      1.0000 0.13930  0.79360  0.76460  Biso   1.000  H
  H22      1.0000 0.11340  0.77460  0.67610  Biso   1.000  H
  H23      1.0000 0.65500  0.34200  0.87380  Biso   1.000  H
  H24      1.0000 0.58290  0.35750  0.76460  Biso   1.000  H
  H25      1.0000 0.86460  0.56610  0.71750  Biso   1.000  H
  H26      1.0000 0.88360  0.45000  0.69190  Biso   1.000  H
  H27      1.0000 0.61000  0.44840  0.65670  Biso   1.000  H
  H28      1.0000 0.63180  0.57700  0.64870  Biso   1.000  H
  H29      1.0000 0.67180  0.43200  0.06580  Biso   1.000  H
  H30      1.0000 0.83930  0.47410  0.03080  Biso   1.000  H
  H31      1.0000 0.91710  0.64050  0.94710  Biso   1.000  H
  H32      1.0000 0.92390  0.65360  0.04730  Biso   1.000  H
  H33      1.0000 0.70610  0.79070  0.96810  Biso   1.000  H
  H34      1.0000 0.88750  0.79950  0.99710  Biso   1.000  H
  H35      1.0000 0.20070  0.62980  0.92420  Biso   1.000  H
  H36      1.0000 0.14110  0.73160  0.89460  Biso   1.000  H
  H37      1.0000 0.71930  0.86700  0.24290  Biso   1.000  H
  H38      1.0000 0.85750  0.83200  0.31060  Biso   1.000  H
  H39      1.0000 0.63930  0.70640  0.23540  Biso   1.000  H
  H40      1.0000 0.61340  0.72540  0.32390  Biso   1.000  H
  H41      1.0000 0.15500  0.15800  0.12620  Biso   1.000  H
  H42      1.0000 0.08290  0.14250  0.23540  Biso   1.000  H
  H43      1.0000 0.36460  0.93390  0.28250  Biso   1.000  H
  H44      1.0000 0.38360  0.05000  0.30810  Biso   1.000  H
  H45      1.0000 0.11000  0.05160  0.34330  Biso   1.000  H
  H46      1.0000 0.13180  0.92300  0.35130  Biso   1.000  H
  H47      1.0000 0.17180  0.06800  0.93420  Biso   1.000  H
  H48      1.0000 0.33930  0.02590  0.96920  Biso   1.000  H
  H49      1.0000 0.41710  0.85950  0.05290  Biso   1.000  H
  H50      1.0000 0.42390  0.84640  0.95270  Biso   1.000  H
  H51      1.0000 0.20610  0.70930  0.03190  Biso   1.000  H
  H52      1.0000 0.38750  0.70050  0.00290  Biso   1.000  H
  H53      1.0000 0.70070  0.87020  0.07580  Biso   1.000  H
  H54      1.0000 0.64110  0.76840  0.10540  Biso   1.000  H
  H55      1.0000 0.78070  0.13300  0.74290  Biso   1.000  H
  H56      1.0000 0.64250  0.16800  0.81060  Biso   1.000  H
  H57      1.0000 0.86070  0.29360  0.73540  Biso   1.000  H
  H58      1.0000 0.88660  0.27460  0.82390  Biso   1.000  H
  H59      1.0000 0.34500  0.84200  0.62620  Biso   1.000  H
  H60      1.0000 0.41710  0.85750  0.73540  Biso   1.000  H
  H61      1.0000 0.13540  0.06610  0.78250  Biso   1.000  H
  H62      1.0000 0.11640  0.95000  0.80810  Biso   1.000  H
  H63      1.0000 0.39000  0.94840  0.84330  Biso   1.000  H
  H64      1.0000 0.36820  0.07700  0.85130  Biso   1.000  H
  H65      1.0000 0.32820  0.93200  0.43420  Biso   1.000  H
  H66      1.0000 0.16070  0.97410  0.46920  Biso   1.000  H
  H67      1.0000 0.08290  0.14050  0.55290  Biso   1.000  H
  H68      1.0000 0.07610  0.15360  0.45270  Biso   1.000  H
  H69      1.0000 0.29390  0.29070  0.53190  Biso   1.000  H
  H70      1.0000 0.11250  0.29950  0.50290  Biso   1.000  H
  H71      1.0000 0.79930  0.12980  0.57580  Biso   1.000  H
  H72      1.0000 0.85890  0.23160  0.60540  Biso   1.000  H
  C1       1.0000 0.21170  0.31090  0.24040  Biso   1.000  C
  C2       1.0000 0.29470  0.22220  0.21410  Biso   1.000  C
  C3       1.0000 0.82000  0.64450  0.30600  Biso   1.000  C
  C4       1.0000 0.68400  0.49900  0.20770  Biso   1.000  C
  C5       1.0000 0.81980  0.48640  0.14930  Biso   1.000  C
  C6       1.0000 0.73650  0.51940  0.55990  Biso   1.000  C
  C7       1.0000 0.66490  0.33710  0.50260  Biso   1.000  C
  C8       1.0000 0.71370  0.23500  0.50280  Biso   1.000  C
  C9       1.0000 0.26940  0.30160  0.41340  Biso   1.000  C
  C10      1.0000 0.28830  0.68910  0.74040  Biso   1.000  C
  C11      1.0000 0.20530  0.77780  0.71410  Biso   1.000  C
  C12      1.0000 0.68000  0.35550  0.80600  Biso   1.000  C
  C13      1.0000 0.81600  0.50100  0.70770  Biso   1.000  C
  C14      1.0000 0.68020  0.51360  0.64930  Biso   1.000  C
  C15      1.0000 0.76350  0.48060  0.05990  Biso   1.000  C
  C16      1.0000 0.83510  0.66290  0.00260  Biso   1.000  C
  C17      1.0000 0.78630  0.76500  0.00280  Biso   1.000  C
  C18      1.0000 0.23060  0.69840  0.91340  Biso   1.000  C
  C19      1.0000 0.78830  0.81090  0.25960  Biso   1.000  C
  C20      1.0000 0.70530  0.72220  0.28590  Biso   1.000  C
  C21      1.0000 0.18000  0.14450  0.19400  Biso   1.000  C
  C22      1.0000 0.31600  0.99900  0.29230  Biso   1.000  C
  C23      1.0000 0.18020  0.98640  0.35070  Biso   1.000  C
  C24      1.0000 0.26350  0.01940  0.94010  Biso   1.000  C
  C25      1.0000 0.33510  0.83710  0.99740  Biso   1.000  C
  C26      1.0000 0.28630  0.73500  0.99720  Biso   1.000  C
  C27      1.0000 0.73060  0.80160  0.08660  Biso   1.000  C
  C28      1.0000 0.71170  0.18910  0.75960  Biso   1.000  C
  C29      1.0000 0.79470  0.27780  0.78590  Biso   1.000  C
  C30      1.0000 0.32000  0.85550  0.69400  Biso   1.000  C
  C31      1.0000 0.18400  0.00100  0.79230  Biso   1.000  C
  C32      1.0000 0.31980  0.01360  0.85070  Biso   1.000  C
  C33      1.0000 0.23650  0.98060  0.44010  Biso   1.000  C
  C34      1.0000 0.16490  0.16290  0.49740  Biso   1.000  C
  C35      1.0000 0.21370  0.26500  0.49720  Biso   1.000  C
  C36      1.0000 0.76940  0.19840  0.58660  Biso   1.000  C
  S1       1.0000 0.11010  0.29620  0.33940  Biso   1.000  S
  S2       1.0000 0.73110  0.52820  0.31470  Biso   1.000  S
  S3       1.0000 0.82980  0.41150  0.52509  Biso   1.000  S
  S4       1.0000 0.38990  0.70380  0.83940  Biso   1.000  S
  S5       1.0000 0.76890  0.47180  0.81470  Biso   1.000  S
  S6       1.0000 0.67020  0.58850  0.02509  Biso   1.000  S
  S7       1.0000 0.88990  0.79620  0.16060  Biso   1.000  S
  S8       1.0000 0.26890  0.02820  0.18530  Biso   1.000  S
  S9       1.0000 0.17020  0.91150  0.97491  Biso   1.000  S
  S10      1.0000 0.61010  0.20380  0.66060  Biso   1.000  S
  S11      1.0000 0.23110  0.97180  0.68530  Biso   1.000  S
  S12      1.0000 0.32980  0.08850  0.47491  Biso   1.000  S
