data_image0
_cell_length_a       13.377
_cell_length_b       13.377
_cell_length_c       14.462
_cell_angle_alpha    90
_cell_angle_beta     90
_cell_angle_gamma    120

_symmetry_space_group_name_H-M    P 1
_symmetry_int_tables_number       1

loop_
  _symmetry_equiv_pos_as_xyz
  'x, y, z'

loop_
  _atom_site_label
  _atom_site_occupancy
  _atom_site_fract_x
  _atom_site_fract_y
  _atom_site_fract_z
  _atom_site_thermal_displace_type
  _atom_site_B_iso_or_equiv
  _atom_site_type_symbol
  Sm1      1.0000 0.66667  0.33334  0.33243  Biso   1.000  Sm
  Sm2      1.0000 0.33333  0.66666  0.16757  Biso   1.000  Sm
  Sm3      1.0000 0.33333  0.66666  0.66757  Biso   1.000  Sm
  Sm4      1.0000 0.66667  0.33334  0.83243  Biso   1.000  Sm
  Cu1      1.0000 0.50000  0.00000  0.50000  Biso   1.000  Cu
  Cu2      1.0000 0.50000  0.50000  0.50000  Biso   1.000  Cu
  Cu3      1.0000 0.00000  0.50000  0.50000  Biso   1.000  Cu
  Cu4      1.0000 0.50000  0.00000  0.00000  Biso   1.000  Cu
  Cu5      1.0000 0.00000  0.50000  0.00000  Biso   1.000  Cu
  Cu6      1.0000 0.50000  0.50000  0.00000  Biso   1.000  Cu
  H1       1.0000 0.96080  0.25450  0.95000  Biso   1.000  H
  H2       1.0000 0.86240  0.18090  0.02110  Biso   1.000  H
  H3       1.0000 0.80650  0.26720  0.12830  Biso   1.000  H
  H4       1.0000 0.91430  0.31360  0.19350  Biso   1.000  H
  H5       1.0000 0.02380  0.34980  0.07870  Biso   1.000  H
  H6       1.0000 0.29370  0.03920  0.95000  Biso   1.000  H
  H7       1.0000 0.31850  0.13760  0.02110  Biso   1.000  H
  H8       1.0000 0.46070  0.19350  0.12830  Biso   1.000  H
  H9       1.0000 0.39930  0.08570  0.19350  Biso   1.000  H
  H10      1.0000 0.32600  0.97620  0.07870  Biso   1.000  H
  H11      1.0000 0.74550  0.70630  0.95000  Biso   1.000  H
  H12      1.0000 0.81910  0.68150  0.02110  Biso   1.000  H
  H13      1.0000 0.73280  0.53930  0.12830  Biso   1.000  H
  H14      1.0000 0.68640  0.60070  0.19350  Biso   1.000  H
  H15      1.0000 0.65020  0.67400  0.07870  Biso   1.000  H
  H16      1.0000 0.70630  0.74550  0.55000  Biso   1.000  H
  H17      1.0000 0.68150  0.81910  0.47890  Biso   1.000  H
  H18      1.0000 0.53930  0.73280  0.37170  Biso   1.000  H
  H19      1.0000 0.60070  0.68640  0.30650  Biso   1.000  H
  H20      1.0000 0.67400  0.65020  0.42130  Biso   1.000  H
  H21      1.0000 0.25450  0.96080  0.55000  Biso   1.000  H
  H22      1.0000 0.18090  0.86240  0.47890  Biso   1.000  H
  H23      1.0000 0.26720  0.80650  0.37170  Biso   1.000  H
  H24      1.0000 0.31360  0.91430  0.30650  Biso   1.000  H
  H25      1.0000 0.34980  0.02380  0.42130  Biso   1.000  H
  H26      1.0000 0.03920  0.29370  0.55000  Biso   1.000  H
  H27      1.0000 0.13760  0.31850  0.47890  Biso   1.000  H
  H28      1.0000 0.19350  0.46070  0.37170  Biso   1.000  H
  H29      1.0000 0.08570  0.39930  0.30650  Biso   1.000  H
  H30      1.0000 0.97620  0.32600  0.42130  Biso   1.000  H
  H31      1.0000 0.03920  0.74550  0.05000  Biso   1.000  H
  H32      1.0000 0.13760  0.81910  0.97890  Biso   1.000  H
  H33      1.0000 0.19350  0.73280  0.87170  Biso   1.000  H
  H34      1.0000 0.08570  0.68640  0.80650  Biso   1.000  H
  H35      1.0000 0.97620  0.65020  0.92130  Biso   1.000  H
  H36      1.0000 0.70630  0.96080  0.05000  Biso   1.000  H
  H37      1.0000 0.68150  0.86240  0.97890  Biso   1.000  H
  H38      1.0000 0.53930  0.80650  0.87170  Biso   1.000  H
  H39      1.0000 0.60070  0.91430  0.80650  Biso   1.000  H
  H40      1.0000 0.67400  0.02380  0.92130  Biso   1.000  H
  H41      1.0000 0.25450  0.29370  0.05000  Biso   1.000  H
  H42      1.0000 0.18090  0.31850  0.97890  Biso   1.000  H
  H43      1.0000 0.26720  0.46070  0.87170  Biso   1.000  H
  H44      1.0000 0.31360  0.39930  0.80650  Biso   1.000  H
  H45      1.0000 0.34980  0.32600  0.92130  Biso   1.000  H
  H46      1.0000 0.29370  0.25450  0.45000  Biso   1.000  H
  H47      1.0000 0.31850  0.18090  0.52110  Biso   1.000  H
  H48      1.0000 0.46070  0.26720  0.62830  Biso   1.000  H
  H49      1.0000 0.39930  0.31360  0.69350  Biso   1.000  H
  H50      1.0000 0.32600  0.34980  0.57870  Biso   1.000  H
  H51      1.0000 0.74550  0.03920  0.45000  Biso   1.000  H
  H52      1.0000 0.81910  0.13760  0.52110  Biso   1.000  H
  H53      1.0000 0.73280  0.19350  0.62830  Biso   1.000  H
  H54      1.0000 0.68640  0.08570  0.69350  Biso   1.000  H
  H55      1.0000 0.65020  0.97620  0.57870  Biso   1.000  H
  H56      1.0000 0.96080  0.70630  0.45000  Biso   1.000  H
  H57      1.0000 0.86240  0.68150  0.52110  Biso   1.000  H
  H58      1.0000 0.80650  0.53930  0.62830  Biso   1.000  H
  H59      1.0000 0.91430  0.60070  0.69350  Biso   1.000  H
  H60      1.0000 0.02380  0.67400  0.57870  Biso   1.000  H
  C1       1.0000 0.73010  0.18380  0.43140  Biso   1.000  C
  C2       1.0000 0.74560  0.09790  0.48990  Biso   1.000  C
  C3       1.0000 0.87570  0.43780  0.15990  Biso   1.000  C
  C4       1.0000 0.88320  0.33200  0.13980  Biso   1.000  C
  C5       1.0000 0.45370  0.26990  0.43140  Biso   1.000  C
  C6       1.0000 0.35230  0.25440  0.48990  Biso   1.000  C
  C7       1.0000 0.56210  0.12430  0.15990  Biso   1.000  C
  C8       1.0000 0.44880  0.11680  0.13980  Biso   1.000  C
  C9       1.0000 0.81620  0.54630  0.43140  Biso   1.000  C
  C10      1.0000 0.90210  0.64770  0.48990  Biso   1.000  C
  C11      1.0000 0.56220  0.43790  0.15990  Biso   1.000  C
  C12      1.0000 0.66800  0.55120  0.13980  Biso   1.000  C
  C13      1.0000 0.54630  0.81620  0.06860  Biso   1.000  C
  C14      1.0000 0.64770  0.90210  0.01010  Biso   1.000  C
  C15      1.0000 0.43790  0.56220  0.34010  Biso   1.000  C
  C16      1.0000 0.55120  0.66800  0.36020  Biso   1.000  C
  C17      1.0000 0.18380  0.73010  0.06860  Biso   1.000  C
  C18      1.0000 0.09790  0.74560  0.01010  Biso   1.000  C
  C19      1.0000 0.43780  0.87570  0.34010  Biso   1.000  C
  C20      1.0000 0.33200  0.88320  0.36020  Biso   1.000  C
  C21      1.0000 0.26990  0.45370  0.06860  Biso   1.000  C
  C22      1.0000 0.25440  0.35230  0.01010  Biso   1.000  C
  C23      1.0000 0.12430  0.56210  0.34010  Biso   1.000  C
  C24      1.0000 0.11680  0.44880  0.36020  Biso   1.000  C
  C25      1.0000 0.26990  0.81620  0.56860  Biso   1.000  C
  C26      1.0000 0.25440  0.90210  0.51010  Biso   1.000  C
  C27      1.0000 0.12430  0.56220  0.84010  Biso   1.000  C
  C28      1.0000 0.11680  0.66800  0.86020  Biso   1.000  C
  C29      1.0000 0.54630  0.73010  0.56860  Biso   1.000  C
  C30      1.0000 0.64770  0.74560  0.51010  Biso   1.000  C
  C31      1.0000 0.43790  0.87570  0.84010  Biso   1.000  C
  C32      1.0000 0.55120  0.88320  0.86020  Biso   1.000  C
  C33      1.0000 0.18380  0.45370  0.56860  Biso   1.000  C
  C34      1.0000 0.09790  0.35230  0.51010  Biso   1.000  C
  C35      1.0000 0.43780  0.56210  0.84010  Biso   1.000  C
  C36      1.0000 0.33200  0.44880  0.86020  Biso   1.000  C
  C37      1.0000 0.45370  0.18380  0.93140  Biso   1.000  C
  C38      1.0000 0.35230  0.09790  0.98990  Biso   1.000  C
  C39      1.0000 0.56210  0.43780  0.65990  Biso   1.000  C
  C40      1.0000 0.44880  0.33200  0.63980  Biso   1.000  C
  C41      1.0000 0.81620  0.26990  0.93140  Biso   1.000  C
  C42      1.0000 0.90210  0.25440  0.98990  Biso   1.000  C
  C43      1.0000 0.56220  0.12430  0.65990  Biso   1.000  C
  C44      1.0000 0.66800  0.11680  0.63980  Biso   1.000  C
  C45      1.0000 0.73010  0.54630  0.93140  Biso   1.000  C
  C46      1.0000 0.74560  0.64770  0.98990  Biso   1.000  C
  C47      1.0000 0.87570  0.43790  0.65990  Biso   1.000  C
  C48      1.0000 0.88320  0.55120  0.63980  Biso   1.000  C
  N1       1.0000 0.65260  0.04190  0.55870  Biso   1.000  N
  N2       1.0000 0.38930  0.34740  0.55870  Biso   1.000  N
  N3       1.0000 0.95810  0.61070  0.55870  Biso   1.000  N
  N4       1.0000 0.61070  0.95810  0.94130  Biso   1.000  N
  N5       1.0000 0.04190  0.65260  0.94130  Biso   1.000  N
  N6       1.0000 0.34740  0.38930  0.94130  Biso   1.000  N
  N7       1.0000 0.34740  0.95810  0.44130  Biso   1.000  N
  N8       1.0000 0.61070  0.65260  0.44130  Biso   1.000  N
  N9       1.0000 0.04190  0.38930  0.44130  Biso   1.000  N
  N10      1.0000 0.38930  0.04190  0.05870  Biso   1.000  N
  N11      1.0000 0.95810  0.34740  0.05870  Biso   1.000  N
  N12      1.0000 0.65260  0.61070  0.05870  Biso   1.000  N
  O1       1.0000 0.63910  0.18790  0.44170  Biso   1.000  O
  O2       1.0000 0.75450  0.55950  0.37300  Biso   1.000  O
  O3       1.0000 0.59770  0.07370  0.10770  Biso   1.000  O
  O4       1.0000 0.81710  0.43580  0.22840  Biso   1.000  O
  O5       1.0000 0.54880  0.36090  0.44170  Biso   1.000  O
  O6       1.0000 0.80500  0.24550  0.37300  Biso   1.000  O
  O7       1.0000 0.47600  0.40230  0.10770  Biso   1.000  O
  O8       1.0000 0.61870  0.18290  0.22840  Biso   1.000  O
  O9       1.0000 0.81210  0.45120  0.44170  Biso   1.000  O
  O10      1.0000 0.44050  0.19500  0.37300  Biso   1.000  O
  O11      1.0000 0.92630  0.52400  0.10770  Biso   1.000  O
  O12      1.0000 0.56420  0.38130  0.22840  Biso   1.000  O
  O13      1.0000 0.45120  0.81210  0.05830  Biso   1.000  O
  O14      1.0000 0.19500  0.44050  0.12700  Biso   1.000  O
  O15      1.0000 0.52400  0.92630  0.39230  Biso   1.000  O
  O16      1.0000 0.38130  0.56420  0.27160  Biso   1.000  O
  O17      1.0000 0.18790  0.63910  0.05830  Biso   1.000  O
  O18      1.0000 0.55950  0.75450  0.12700  Biso   1.000  O
  O19      1.0000 0.07370  0.59770  0.39230  Biso   1.000  O
  O20      1.0000 0.43580  0.81710  0.27160  Biso   1.000  O
  O21      1.0000 0.36090  0.54880  0.05830  Biso   1.000  O
  O22      1.0000 0.24550  0.80500  0.12700  Biso   1.000  O
  O23      1.0000 0.40230  0.47600  0.39230  Biso   1.000  O
  O24      1.0000 0.18290  0.61870  0.27160  Biso   1.000  O
  O25      1.0000 0.36090  0.81210  0.55830  Biso   1.000  O
  O26      1.0000 0.24550  0.44050  0.62700  Biso   1.000  O
  O27      1.0000 0.40230  0.92630  0.89230  Biso   1.000  O
  O28      1.0000 0.18290  0.56420  0.77160  Biso   1.000  O
  O29      1.0000 0.45120  0.63910  0.55830  Biso   1.000  O
  O30      1.0000 0.19500  0.75450  0.62700  Biso   1.000  O
  O31      1.0000 0.52400  0.59770  0.89230  Biso   1.000  O
  O32      1.0000 0.38130  0.81710  0.77160  Biso   1.000  O
  O33      1.0000 0.18790  0.54880  0.55830  Biso   1.000  O
  O34      1.0000 0.55950  0.80500  0.62700  Biso   1.000  O
  O35      1.0000 0.07370  0.47600  0.89230  Biso   1.000  O
  O36      1.0000 0.43580  0.61870  0.77160  Biso   1.000  O
  O37      1.0000 0.54880  0.18790  0.94170  Biso   1.000  O
  O38      1.0000 0.80500  0.55950  0.87300  Biso   1.000  O
  O39      1.0000 0.47600  0.07370  0.60770  Biso   1.000  O
  O40      1.0000 0.61870  0.43580  0.72840  Biso   1.000  O
  O41      1.0000 0.81210  0.36090  0.94170  Biso   1.000  O
  O42      1.0000 0.44050  0.24550  0.87300  Biso   1.000  O
  O43      1.0000 0.92630  0.40230  0.60770  Biso   1.000  O
  O44      1.0000 0.56420  0.18290  0.72840  Biso   1.000  O
  O45      1.0000 0.63910  0.45120  0.94170  Biso   1.000  O
  O46      1.0000 0.75450  0.19500  0.87300  Biso   1.000  O
  O47      1.0000 0.59770  0.52400  0.60770  Biso   1.000  O
  O48      1.0000 0.81710  0.38130  0.72840  Biso   1.000  O
