data_image0
_cell_length_a       7.119
_cell_length_b       8.783
_cell_length_c       15.067
_cell_angle_alpha    79.61
_cell_angle_beta     87.52
_cell_angle_gamma    83.21

_symmetry_space_group_name_H-M    P 1
_symmetry_int_tables_number       1

loop_
  _symmetry_equiv_pos_as_xyz
  'x, y, z'

loop_
  _atom_site_label
  _atom_site_occupancy
  _atom_site_fract_x
  _atom_site_fract_y
  _atom_site_fract_z
  _atom_site_thermal_displace_type
  _atom_site_B_iso_or_equiv
  _atom_site_type_symbol
  K1       1.0000 0.01373  0.55182  0.12751  Biso   1.000  K
  K2       1.0000 0.98627  0.44818  0.87249  Biso   1.000  K
  Gd1      1.0000 0.52396  0.39018  0.22509  Biso   1.000  Gd
  Gd2      1.0000 0.47604  0.60982  0.77491  Biso   1.000  Gd
  H1       1.0000 0.32460  0.49120  0.48610  Biso   1.000  H
  H2       1.0000 0.62660  0.03460  0.85420  Biso   1.000  H
  H3       1.0000 0.67540  0.50880  0.51390  Biso   1.000  H
  H4       1.0000 0.37340  0.96540  0.14580  Biso   1.000  H
  C1       1.0000 0.19360  0.49450  0.49190  Biso   1.000  C
  C2       1.0000 0.09210  0.46630  0.42150  Biso   1.000  C
  C3       1.0000 0.10440  0.52760  0.57090  Biso   1.000  C
  C4       1.0000 0.20780  0.42920  0.34000  Biso   1.000  C
  C5       1.0000 0.22200  0.55860  0.64460  Biso   1.000  C
  C6       1.0000 0.48800  0.14930  0.94680  Biso   1.000  C
  C7       1.0000 0.29860  0.26210  0.07030  Biso   1.000  C
  C8       1.0000 0.41030  0.12730  0.03510  Biso   1.000  C
  C9       1.0000 0.57620  0.02090  0.91270  Biso   1.000  C
  C10      1.0000 0.48770  0.30800  0.89100  Biso   1.000  C
  C11      1.0000 0.80640  0.50550  0.50810  Biso   1.000  C
  C12      1.0000 0.90790  0.53370  0.57850  Biso   1.000  C
  C13      1.0000 0.89560  0.47240  0.42910  Biso   1.000  C
  C14      1.0000 0.79220  0.57080  0.66000  Biso   1.000  C
  C15      1.0000 0.77800  0.44140  0.35540  Biso   1.000  C
  C16      1.0000 0.51200  0.85070  0.05320  Biso   1.000  C
  C17      1.0000 0.70140  0.73790  0.92970  Biso   1.000  C
  C18      1.0000 0.58970  0.87270  0.96490  Biso   1.000  C
  C19      1.0000 0.42380  0.97910  0.08730  Biso   1.000  C
  C20      1.0000 0.51230  0.69200  0.10900  Biso   1.000  C
  O1       1.0000 0.28770  0.29360  0.34228  Biso   1.000  O
  O2       1.0000 0.23910  0.53780  0.27620  Biso   1.000  O
  O3       1.0000 0.14590  0.59180  0.71631  Biso   1.000  O
  O4       1.0000 0.39800  0.55280  0.63079  Biso   1.000  O
  O5       1.0000 0.32000  0.27010  0.15227  Biso   1.000  O
  O6       1.0000 0.19320  0.35440  0.01776  Biso   1.000  O
  O7       1.0000 0.58440  0.40440  0.91417  Biso   1.000  O
  O8       1.0000 0.39380  0.34260  0.81896  Biso   1.000  O
  O9       1.0000 0.67040  0.13500  0.27750  Biso   1.000  O
  O10      1.0000 0.73080  0.34380  0.09740  Biso   1.000  O
  O11      1.0000 0.71230  0.70640  0.65772  Biso   1.000  O
  O12      1.0000 0.76090  0.46220  0.72380  Biso   1.000  O
  O13      1.0000 0.85410  0.40820  0.28369  Biso   1.000  O
  O14      1.0000 0.60200  0.44720  0.36921  Biso   1.000  O
  O15      1.0000 0.68000  0.72990  0.84773  Biso   1.000  O
  O16      1.0000 0.80680  0.64560  0.98224  Biso   1.000  O
  O17      1.0000 0.41560  0.59560  0.08583  Biso   1.000  O
  O18      1.0000 0.60620  0.65740  0.18104  Biso   1.000  O
  O19      1.0000 0.32960  0.86500  0.72250  Biso   1.000  O
  O20      1.0000 0.26920  0.65620  0.90260  Biso   1.000  O
