data_image0
_cell_length_a       18.005
_cell_length_b       23.235
_cell_length_c       23.732
_cell_angle_alpha    90
_cell_angle_beta     90
_cell_angle_gamma    90.46

_symmetry_space_group_name_H-M    P 1
_symmetry_int_tables_number       1

loop_
  _symmetry_equiv_pos_as_xyz
  'x, y, z'

loop_
  _atom_site_label
  _atom_site_occupancy
  _atom_site_fract_x
  _atom_site_fract_y
  _atom_site_fract_z
  _atom_site_thermal_displace_type
  _atom_site_B_iso_or_equiv
  _atom_site_type_symbol
  Cr1      1.0000 0.99259  0.14725  0.34799  Biso   1.000  Cr
  Cr2      1.0000 0.00741  0.35275  0.84799  Biso   1.000  Cr
  Cr3      1.0000 0.00741  0.85275  0.65201  Biso   1.000  Cr
  Cr4      1.0000 0.99259  0.64725  0.15201  Biso   1.000  Cr
  Cr5      1.0000 0.50000  0.50000  0.50000  Biso   1.000  Cr
  Cr6      1.0000 0.50000  0.00000  0.00000  Biso   1.000  Cr
  Cr7      1.0000 0.00000  0.50000  0.50000  Biso   1.000  Cr
  Cr8      1.0000 0.00000  0.00000  0.00000  Biso   1.000  Cr
  Cu1      1.0000 0.74313  0.59892  0.44359  Biso   1.000  Cu
  Cu2      1.0000 0.87734  0.29351  0.48569  Biso   1.000  Cu
  Cu3      1.0000 0.91219  0.50928  0.71269  Biso   1.000  Cu
  Cu4      1.0000 0.25687  0.90108  0.94359  Biso   1.000  Cu
  Cu5      1.0000 0.12266  0.20649  0.98569  Biso   1.000  Cu
  Cu6      1.0000 0.08781  0.99072  0.21269  Biso   1.000  Cu
  Cu7      1.0000 0.25687  0.40108  0.55641  Biso   1.000  Cu
  Cu8      1.0000 0.12266  0.70649  0.51431  Biso   1.000  Cu
  Cu9      1.0000 0.08781  0.49072  0.28731  Biso   1.000  Cu
  Cu10     1.0000 0.74313  0.09892  0.05641  Biso   1.000  Cu
  Cu11     1.0000 0.87734  0.79351  0.01431  Biso   1.000  Cu
  Cu12     1.0000 0.91219  0.00928  0.78731  Biso   1.000  Cu
  H1       1.0000 0.65990  0.64270  0.54750  Biso   1.000  H
  H2       1.0000 0.67130  0.71380  0.61620  Biso   1.000  H
  H3       1.0000 0.77430  0.75110  0.62210  Biso   1.000  H
  H4       1.0000 0.86010  0.75760  0.55430  Biso   1.000  H
  H5       1.0000 0.88900  0.70760  0.43430  Biso   1.000  H
  H6       1.0000 0.90340  0.64590  0.45900  Biso   1.000  H
  H7       1.0000 0.89940  0.59570  0.38900  Biso   1.000  H
  H8       1.0000 0.88770  0.64420  0.34350  Biso   1.000  H
  H9       1.0000 0.86560  0.57440  0.26430  Biso   1.000  H
  H10      1.0000 0.78790  0.51570  0.22590  Biso   1.000  H
  H11      1.0000 0.68240  0.48050  0.27000  Biso   1.000  H
  H12      1.0000 0.65910  0.52200  0.36330  Biso   1.000  H
  H13      1.0000 0.81360  0.27360  0.36540  Biso   1.000  H
  H14      1.0000 0.72740  0.31250  0.30700  Biso   1.000  H
  H15      1.0000 0.65130  0.38340  0.34290  Biso   1.000  H
  H16      1.0000 0.66950  0.41870  0.43290  Biso   1.000  H
  H17      1.0000 0.81050  0.41660  0.50960  Biso   1.000  H
  H18      1.0000 0.73180  0.39610  0.53070  Biso   1.000  H
  H19      1.0000 0.82230  0.35710  0.62040  Biso   1.000  H
  H20      1.0000 0.88210  0.38560  0.58070  Biso   1.000  H
  H21      1.0000 0.92120  0.32170  0.68350  Biso   1.000  H
  H22      1.0000 0.00620  0.25050  0.69520  Biso   1.000  H
  H23      1.0000 0.04120  0.18310  0.62390  Biso   1.000  H
  H24      1.0000 0.98880  0.20430  0.53330  Biso   1.000  H
  H25      1.0000 0.81030  0.41140  0.74120  Biso   1.000  H
  H26      1.0000 0.69340  0.37530  0.72160  Biso   1.000  H
  H27      1.0000 0.63760  0.42130  0.65470  Biso   1.000  H
  H28      1.0000 0.67030  0.50800  0.61360  Biso   1.000  H
  H29      1.0000 0.84150  0.55620  0.60140  Biso   1.000  H
  H30      1.0000 0.78140  0.59550  0.62960  Biso   1.000  H
  H31      1.0000 0.91280  0.65640  0.65410  Biso   1.000  H
  H32      1.0000 0.94510  0.60360  0.62100  Biso   1.000  H
  H33      1.0000 0.04230  0.69060  0.68620  Biso   1.000  H
  H34      1.0000 0.14240  0.67240  0.74720  Biso   1.000  H
  H35      1.0000 0.14060  0.59160  0.80410  Biso   1.000  H
  H36      1.0000 0.04970  0.52350  0.78870  Biso   1.000  H
  H37      1.0000 0.77240  0.65300  0.40580  Biso   1.000  H
  H38      1.0000 0.80430  0.30090  0.52930  Biso   1.000  H
  H39      1.0000 0.86310  0.57050  0.71260  Biso   1.000  H
  H40      1.0000 0.34010  0.85730  0.04750  Biso   1.000  H
  H41      1.0000 0.32870  0.78620  0.11620  Biso   1.000  H
  H42      1.0000 0.22570  0.74890  0.12210  Biso   1.000  H
  H43      1.0000 0.13990  0.74240  0.05430  Biso   1.000  H
  H44      1.0000 0.11100  0.79240  0.93430  Biso   1.000  H
  H45      1.0000 0.09660  0.85410  0.95900  Biso   1.000  H
  H46      1.0000 0.10060  0.90430  0.88900  Biso   1.000  H
  H47      1.0000 0.11230  0.85580  0.84350  Biso   1.000  H
  H48      1.0000 0.13440  0.92560  0.76430  Biso   1.000  H
  H49      1.0000 0.21210  0.98430  0.72590  Biso   1.000  H
  H50      1.0000 0.31760  0.01950  0.77000  Biso   1.000  H
  H51      1.0000 0.34090  0.97800  0.86330  Biso   1.000  H
  H52      1.0000 0.18640  0.22640  0.86540  Biso   1.000  H
  H53      1.0000 0.27260  0.18750  0.80700  Biso   1.000  H
  H54      1.0000 0.34870  0.11660  0.84290  Biso   1.000  H
  H55      1.0000 0.33050  0.08130  0.93290  Biso   1.000  H
  H56      1.0000 0.18950  0.08340  0.00960  Biso   1.000  H
  H57      1.0000 0.26820  0.10390  0.03070  Biso   1.000  H
  H58      1.0000 0.17770  0.14290  0.12040  Biso   1.000  H
  H59      1.0000 0.11790  0.11440  0.08070  Biso   1.000  H
  H60      1.0000 0.07880  0.17830  0.18350  Biso   1.000  H
  H61      1.0000 0.99380  0.24950  0.19520  Biso   1.000  H
  H62      1.0000 0.95880  0.31690  0.12390  Biso   1.000  H
  H63      1.0000 0.01120  0.29570  0.03330  Biso   1.000  H
  H64      1.0000 0.18970  0.08860  0.24120  Biso   1.000  H
  H65      1.0000 0.30660  0.12470  0.22160  Biso   1.000  H
  H66      1.0000 0.36240  0.07870  0.15470  Biso   1.000  H
  H67      1.0000 0.32970  0.99200  0.11360  Biso   1.000  H
  H68      1.0000 0.15850  0.94380  0.10140  Biso   1.000  H
  H69      1.0000 0.21860  0.90450  0.12960  Biso   1.000  H
  H70      1.0000 0.08720  0.84360  0.15410  Biso   1.000  H
  H71      1.0000 0.05490  0.89640  0.12100  Biso   1.000  H
  H72      1.0000 0.95770  0.80940  0.18620  Biso   1.000  H
  H73      1.0000 0.85760  0.82760  0.24720  Biso   1.000  H
  H74      1.0000 0.85940  0.90840  0.30410  Biso   1.000  H
  H75      1.0000 0.95030  0.97650  0.28870  Biso   1.000  H
  H76      1.0000 0.22760  0.84700  0.90580  Biso   1.000  H
  H77      1.0000 0.19570  0.19910  0.02930  Biso   1.000  H
  H78      1.0000 0.13690  0.92950  0.21260  Biso   1.000  H
  H79      1.0000 0.34010  0.35730  0.45250  Biso   1.000  H
  H80      1.0000 0.32870  0.28620  0.38380  Biso   1.000  H
  H81      1.0000 0.22570  0.24890  0.37790  Biso   1.000  H
  H82      1.0000 0.13990  0.24240  0.44570  Biso   1.000  H
  H83      1.0000 0.11100  0.29240  0.56570  Biso   1.000  H
  H84      1.0000 0.09660  0.35410  0.54100  Biso   1.000  H
  H85      1.0000 0.10060  0.40430  0.61100  Biso   1.000  H
  H86      1.0000 0.11230  0.35580  0.65650  Biso   1.000  H
  H87      1.0000 0.13440  0.42560  0.73570  Biso   1.000  H
  H88      1.0000 0.21210  0.48430  0.77410  Biso   1.000  H
  H89      1.0000 0.31760  0.51950  0.73000  Biso   1.000  H
  H90      1.0000 0.34090  0.47800  0.63670  Biso   1.000  H
  H91      1.0000 0.18640  0.72640  0.63460  Biso   1.000  H
  H92      1.0000 0.27260  0.68750  0.69300  Biso   1.000  H
  H93      1.0000 0.34870  0.61660  0.65710  Biso   1.000  H
  H94      1.0000 0.33050  0.58130  0.56710  Biso   1.000  H
  H95      1.0000 0.18950  0.58340  0.49040  Biso   1.000  H
  H96      1.0000 0.26820  0.60390  0.46930  Biso   1.000  H
  H97      1.0000 0.17770  0.64290  0.37960  Biso   1.000  H
  H98      1.0000 0.11790  0.61440  0.41930  Biso   1.000  H
  H99      1.0000 0.07880  0.67830  0.31650  Biso   1.000  H
  H100     1.0000 0.99380  0.74950  0.30480  Biso   1.000  H
  H101     1.0000 0.95880  0.81690  0.37610  Biso   1.000  H
  H102     1.0000 0.01120  0.79570  0.46670  Biso   1.000  H
  H103     1.0000 0.18970  0.58860  0.25880  Biso   1.000  H
  H104     1.0000 0.30660  0.62470  0.27840  Biso   1.000  H
  H105     1.0000 0.36240  0.57870  0.34530  Biso   1.000  H
  H106     1.0000 0.32970  0.49200  0.38640  Biso   1.000  H
  H107     1.0000 0.15850  0.44380  0.39860  Biso   1.000  H
  H108     1.0000 0.21860  0.40450  0.37040  Biso   1.000  H
  H109     1.0000 0.08720  0.34360  0.34590  Biso   1.000  H
  H110     1.0000 0.05490  0.39640  0.37900  Biso   1.000  H
  H111     1.0000 0.95770  0.30940  0.31380  Biso   1.000  H
  H112     1.0000 0.85760  0.32760  0.25280  Biso   1.000  H
  H113     1.0000 0.85940  0.40840  0.19590  Biso   1.000  H
  H114     1.0000 0.95030  0.47650  0.21130  Biso   1.000  H
  H115     1.0000 0.22760  0.34700  0.59420  Biso   1.000  H
  H116     1.0000 0.19570  0.69910  0.47070  Biso   1.000  H
  H117     1.0000 0.13690  0.42950  0.28740  Biso   1.000  H
  H118     1.0000 0.65990  0.14270  0.95250  Biso   1.000  H
  H119     1.0000 0.67130  0.21380  0.88380  Biso   1.000  H
  H120     1.0000 0.77430  0.25110  0.87790  Biso   1.000  H
  H121     1.0000 0.86010  0.25760  0.94570  Biso   1.000  H
  H122     1.0000 0.88900  0.20760  0.06570  Biso   1.000  H
  H123     1.0000 0.90340  0.14590  0.04100  Biso   1.000  H
  H124     1.0000 0.89940  0.09570  0.11100  Biso   1.000  H
  H125     1.0000 0.88770  0.14420  0.15650  Biso   1.000  H
  H126     1.0000 0.86560  0.07440  0.23570  Biso   1.000  H
  H127     1.0000 0.78790  0.01570  0.27410  Biso   1.000  H
  H128     1.0000 0.68240  0.98050  0.23000  Biso   1.000  H
  H129     1.0000 0.65910  0.02200  0.13670  Biso   1.000  H
  H130     1.0000 0.81360  0.77360  0.13460  Biso   1.000  H
  H131     1.0000 0.72740  0.81250  0.19300  Biso   1.000  H
  H132     1.0000 0.65130  0.88340  0.15710  Biso   1.000  H
  H133     1.0000 0.66950  0.91870  0.06710  Biso   1.000  H
  H134     1.0000 0.81050  0.91660  0.99040  Biso   1.000  H
  H135     1.0000 0.73180  0.89610  0.96930  Biso   1.000  H
  H136     1.0000 0.82230  0.85710  0.87960  Biso   1.000  H
  H137     1.0000 0.88210  0.88560  0.91930  Biso   1.000  H
  H138     1.0000 0.92120  0.82170  0.81650  Biso   1.000  H
  H139     1.0000 0.00620  0.75050  0.80480  Biso   1.000  H
  H140     1.0000 0.04120  0.68310  0.87610  Biso   1.000  H
  H141     1.0000 0.98880  0.70430  0.96670  Biso   1.000  H
  H142     1.0000 0.81030  0.91140  0.75880  Biso   1.000  H
  H143     1.0000 0.69340  0.87530  0.77840  Biso   1.000  H
  H144     1.0000 0.63760  0.92130  0.84530  Biso   1.000  H
  H145     1.0000 0.67030  0.00800  0.88640  Biso   1.000  H
  H146     1.0000 0.84150  0.05620  0.89860  Biso   1.000  H
  H147     1.0000 0.78140  0.09550  0.87040  Biso   1.000  H
  H148     1.0000 0.91280  0.15640  0.84590  Biso   1.000  H
  H149     1.0000 0.94510  0.10360  0.87900  Biso   1.000  H
  H150     1.0000 0.04230  0.19060  0.81380  Biso   1.000  H
  H151     1.0000 0.14240  0.17240  0.75280  Biso   1.000  H
  H152     1.0000 0.14060  0.09160  0.69590  Biso   1.000  H
  H153     1.0000 0.04970  0.02350  0.71130  Biso   1.000  H
  H154     1.0000 0.77240  0.15300  0.09420  Biso   1.000  H
  H155     1.0000 0.80430  0.80090  0.97070  Biso   1.000  H
  H156     1.0000 0.86310  0.07050  0.78740  Biso   1.000  H
  C1       1.0000 0.70230  0.66590  0.54750  Biso   1.000  C
  C2       1.0000 0.70870  0.70630  0.59020  Biso   1.000  C
  C3       1.0000 0.76490  0.72950  0.58990  Biso   1.000  C
  C4       1.0000 0.82090  0.73140  0.55120  Biso   1.000  C
  C5       1.0000 0.81610  0.68830  0.50280  Biso   1.000  C
  C6       1.0000 0.86500  0.67300  0.44870  Biso   1.000  C
  C7       1.0000 0.86250  0.61840  0.36940  Biso   1.000  C
  C8       1.0000 0.81140  0.58190  0.34000  Biso   1.000  C
  C9       1.0000 0.82400  0.56220  0.28430  Biso   1.000  C
  C10      1.0000 0.77790  0.52800  0.26240  Biso   1.000  C
  C11      1.0000 0.71420  0.50690  0.28700  Biso   1.000  C
  C12      1.0000 0.70250  0.53140  0.34400  Biso   1.000  C
  C13      1.0000 0.78570  0.30420  0.37880  Biso   1.000  C
  C14      1.0000 0.73310  0.32590  0.34370  Biso   1.000  C
  C15      1.0000 0.68900  0.36840  0.36510  Biso   1.000  C
  C16      1.0000 0.69950  0.38940  0.41910  Biso   1.000  C
  C17      1.0000 0.75740  0.36550  0.45370  Biso   1.000  C
  C18      1.0000 0.77620  0.38420  0.51100  Biso   1.000  C
  C19      1.0000 0.85440  0.35050  0.58820  Biso   1.000  C
  C20      1.0000 0.90770  0.30220  0.60140  Biso   1.000  C
  C21      1.0000 0.93500  0.29770  0.65410  Biso   1.000  C
  C22      1.0000 0.98480  0.25440  0.65980  Biso   1.000  C
  C23      1.0000 0.00890  0.21340  0.61730  Biso   1.000  C
  C24      1.0000 0.97580  0.22640  0.56440  Biso   1.000  C
  C25      1.0000 0.78100  0.43090  0.71530  Biso   1.000  C
  C26      1.0000 0.71350  0.40780  0.70430  Biso   1.000  C
  C27      1.0000 0.68240  0.43710  0.66690  Biso   1.000  C
  C28      1.0000 0.70130  0.48970  0.63930  Biso   1.000  C
  C29      1.0000 0.77370  0.51170  0.65530  Biso   1.000  C
  C30      1.0000 0.81580  0.56430  0.63640  Biso   1.000  C
  C31      1.0000 0.92890  0.61690  0.65780  Biso   1.000  C
  C32      1.0000 0.99260  0.61340  0.69950  Biso   1.000  C
  C33      1.0000 0.04520  0.65620  0.70610  Biso   1.000  C
  C34      1.0000 0.10370  0.64590  0.74420  Biso   1.000  C
  C35      1.0000 0.10430  0.59730  0.77680  Biso   1.000  C
  C36      1.0000 0.04920  0.55730  0.76770  Biso   1.000  C
  C37      1.0000 0.60040  0.53760  0.48280  Biso   1.000  C
  C38      1.0000 0.55290  0.42550  0.52910  Biso   1.000  C
  C39      1.0000 0.49940  0.46590  0.41790  Biso   1.000  C
  C40      1.0000 0.88960  0.52410  0.48850  Biso   1.000  C
  C41      1.0000 0.97290  0.41540  0.48250  Biso   1.000  C
  C42      1.0000 0.97840  0.48640  0.58390  Biso   1.000  C
  C43      1.0000 0.95130  0.20530  0.40500  Biso   1.000  C
  C44      1.0000 0.06460  0.12260  0.40770  Biso   1.000  C
  C45      1.0000 0.06850  0.20550  0.31690  Biso   1.000  C
  C46      1.0000 0.91720  0.18030  0.29070  Biso   1.000  C
  C47      1.0000 0.91810  0.08500  0.37150  Biso   1.000  C
  C48      1.0000 0.96690  0.41030  0.79250  Biso   1.000  C
  C49      1.0000 0.29770  0.83410  0.04750  Biso   1.000  C
  C50      1.0000 0.29130  0.79370  0.09020  Biso   1.000  C
  C51      1.0000 0.23510  0.77050  0.08990  Biso   1.000  C
  C52      1.0000 0.17910  0.76860  0.05120  Biso   1.000  C
  C53      1.0000 0.18390  0.81170  0.00280  Biso   1.000  C
  C54      1.0000 0.13500  0.82700  0.94870  Biso   1.000  C
  C55      1.0000 0.13750  0.88160  0.86940  Biso   1.000  C
  C56      1.0000 0.18860  0.91810  0.84000  Biso   1.000  C
  C57      1.0000 0.17600  0.93780  0.78430  Biso   1.000  C
  C58      1.0000 0.22210  0.97200  0.76240  Biso   1.000  C
  C59      1.0000 0.28580  0.99310  0.78700  Biso   1.000  C
  C60      1.0000 0.29750  0.96860  0.84400  Biso   1.000  C
  C61      1.0000 0.21430  0.19580  0.87880  Biso   1.000  C
  C62      1.0000 0.26690  0.17410  0.84370  Biso   1.000  C
  C63      1.0000 0.31100  0.13160  0.86510  Biso   1.000  C
  C64      1.0000 0.30050  0.11060  0.91910  Biso   1.000  C
  C65      1.0000 0.24260  0.13450  0.95370  Biso   1.000  C
  C66      1.0000 0.22380  0.11580  0.01100  Biso   1.000  C
  C67      1.0000 0.14560  0.14950  0.08820  Biso   1.000  C
  C68      1.0000 0.09230  0.19780  0.10140  Biso   1.000  C
  C69      1.0000 0.06500  0.20230  0.15410  Biso   1.000  C
  C70      1.0000 0.01520  0.24560  0.15980  Biso   1.000  C
  C71      1.0000 0.99110  0.28660  0.11730  Biso   1.000  C
  C72      1.0000 0.02420  0.27360  0.06440  Biso   1.000  C
  C73      1.0000 0.21900  0.06910  0.21530  Biso   1.000  C
  C74      1.0000 0.28650  0.09220  0.20430  Biso   1.000  C
  C75      1.0000 0.31760  0.06290  0.16690  Biso   1.000  C
  C76      1.0000 0.29870  0.01030  0.13930  Biso   1.000  C
  C77      1.0000 0.22630  0.98830  0.15530  Biso   1.000  C
  C78      1.0000 0.18420  0.93570  0.13640  Biso   1.000  C
  C79      1.0000 0.07110  0.88310  0.15780  Biso   1.000  C
  C80      1.0000 0.00740  0.88660  0.19950  Biso   1.000  C
  C81      1.0000 0.95480  0.84380  0.20610  Biso   1.000  C
  C82      1.0000 0.89630  0.85410  0.24420  Biso   1.000  C
  C83      1.0000 0.89570  0.90270  0.27680  Biso   1.000  C
  C84      1.0000 0.95080  0.94270  0.26770  Biso   1.000  C
  C85      1.0000 0.39960  0.96240  0.98280  Biso   1.000  C
  C86      1.0000 0.44710  0.07450  0.02910  Biso   1.000  C
  C87      1.0000 0.50060  0.03410  0.91790  Biso   1.000  C
  C88      1.0000 0.11040  0.97590  0.98850  Biso   1.000  C
  C89      1.0000 0.02710  0.08460  0.98250  Biso   1.000  C
  C90      1.0000 0.02160  0.01360  0.08390  Biso   1.000  C
  C91      1.0000 0.04870  0.29470  0.90500  Biso   1.000  C
  C92      1.0000 0.93540  0.37740  0.90770  Biso   1.000  C
  C93      1.0000 0.93150  0.29450  0.81690  Biso   1.000  C
  C94      1.0000 0.08280  0.31970  0.79070  Biso   1.000  C
  C95      1.0000 0.08190  0.41500  0.87150  Biso   1.000  C
  C96      1.0000 0.03310  0.08970  0.29250  Biso   1.000  C
  C97      1.0000 0.29770  0.33410  0.45250  Biso   1.000  C
  C98      1.0000 0.29130  0.29370  0.40980  Biso   1.000  C
  C99      1.0000 0.23510  0.27050  0.41010  Biso   1.000  C
  C100     1.0000 0.17910  0.26860  0.44880  Biso   1.000  C
  C101     1.0000 0.18390  0.31170  0.49720  Biso   1.000  C
  C102     1.0000 0.13500  0.32700  0.55130  Biso   1.000  C
  C103     1.0000 0.13750  0.38160  0.63060  Biso   1.000  C
  C104     1.0000 0.18860  0.41810  0.66000  Biso   1.000  C
  C105     1.0000 0.17600  0.43780  0.71570  Biso   1.000  C
  C106     1.0000 0.22210  0.47200  0.73760  Biso   1.000  C
  C107     1.0000 0.28580  0.49310  0.71300  Biso   1.000  C
  C108     1.0000 0.29750  0.46860  0.65600  Biso   1.000  C
  C109     1.0000 0.21430  0.69580  0.62120  Biso   1.000  C
  C110     1.0000 0.26690  0.67410  0.65630  Biso   1.000  C
  C111     1.0000 0.31100  0.63160  0.63490  Biso   1.000  C
  C112     1.0000 0.30050  0.61060  0.58090  Biso   1.000  C
  C113     1.0000 0.24260  0.63450  0.54630  Biso   1.000  C
  C114     1.0000 0.22380  0.61580  0.48900  Biso   1.000  C
  C115     1.0000 0.14560  0.64950  0.41180  Biso   1.000  C
  C116     1.0000 0.09230  0.69780  0.39860  Biso   1.000  C
  C117     1.0000 0.06500  0.70230  0.34590  Biso   1.000  C
  C118     1.0000 0.01520  0.74560  0.34020  Biso   1.000  C
  C119     1.0000 0.99110  0.78660  0.38270  Biso   1.000  C
  C120     1.0000 0.02420  0.77360  0.43560  Biso   1.000  C
  C121     1.0000 0.21900  0.56910  0.28470  Biso   1.000  C
  C122     1.0000 0.28650  0.59220  0.29570  Biso   1.000  C
  C123     1.0000 0.31760  0.56290  0.33310  Biso   1.000  C
  C124     1.0000 0.29870  0.51030  0.36070  Biso   1.000  C
  C125     1.0000 0.22630  0.48830  0.34470  Biso   1.000  C
  C126     1.0000 0.18420  0.43570  0.36360  Biso   1.000  C
  C127     1.0000 0.07110  0.38310  0.34220  Biso   1.000  C
  C128     1.0000 0.00740  0.38660  0.30050  Biso   1.000  C
  C129     1.0000 0.95480  0.34380  0.29390  Biso   1.000  C
  C130     1.0000 0.89630  0.35410  0.25580  Biso   1.000  C
  C131     1.0000 0.89570  0.40270  0.22320  Biso   1.000  C
  C132     1.0000 0.95080  0.44270  0.23230  Biso   1.000  C
  C133     1.0000 0.39960  0.46240  0.51720  Biso   1.000  C
  C134     1.0000 0.44710  0.57450  0.47090  Biso   1.000  C
  C135     1.0000 0.50060  0.53410  0.58210  Biso   1.000  C
  C136     1.0000 0.11040  0.47590  0.51150  Biso   1.000  C
  C137     1.0000 0.02710  0.58460  0.51750  Biso   1.000  C
  C138     1.0000 0.02160  0.51360  0.41610  Biso   1.000  C
  C139     1.0000 0.04870  0.79470  0.59500  Biso   1.000  C
  C140     1.0000 0.93540  0.87740  0.59230  Biso   1.000  C
  C141     1.0000 0.93150  0.79450  0.68310  Biso   1.000  C
  C142     1.0000 0.08280  0.81970  0.70930  Biso   1.000  C
  C143     1.0000 0.08190  0.91500  0.62850  Biso   1.000  C
  C144     1.0000 0.03310  0.58970  0.20750  Biso   1.000  C
  C145     1.0000 0.70230  0.16590  0.95250  Biso   1.000  C
  C146     1.0000 0.70870  0.20630  0.90980  Biso   1.000  C
  C147     1.0000 0.76490  0.22950  0.91010  Biso   1.000  C
  C148     1.0000 0.82090  0.23140  0.94880  Biso   1.000  C
  C149     1.0000 0.81610  0.18830  0.99720  Biso   1.000  C
  C150     1.0000 0.86500  0.17300  0.05130  Biso   1.000  C
  C151     1.0000 0.86250  0.11840  0.13060  Biso   1.000  C
  C152     1.0000 0.81140  0.08190  0.16000  Biso   1.000  C
  C153     1.0000 0.82400  0.06220  0.21570  Biso   1.000  C
  C154     1.0000 0.77790  0.02800  0.23760  Biso   1.000  C
  C155     1.0000 0.71420  0.00690  0.21300  Biso   1.000  C
  C156     1.0000 0.70250  0.03140  0.15600  Biso   1.000  C
  C157     1.0000 0.78570  0.80420  0.12120  Biso   1.000  C
  C158     1.0000 0.73310  0.82590  0.15630  Biso   1.000  C
  C159     1.0000 0.68900  0.86840  0.13490  Biso   1.000  C
  C160     1.0000 0.69950  0.88940  0.08090  Biso   1.000  C
  C161     1.0000 0.75740  0.86550  0.04630  Biso   1.000  C
  C162     1.0000 0.77620  0.88420  0.98900  Biso   1.000  C
  C163     1.0000 0.85440  0.85050  0.91180  Biso   1.000  C
  C164     1.0000 0.90770  0.80220  0.89860  Biso   1.000  C
  C165     1.0000 0.93500  0.79770  0.84590  Biso   1.000  C
  C166     1.0000 0.98480  0.75440  0.84020  Biso   1.000  C
  C167     1.0000 0.00890  0.71340  0.88270  Biso   1.000  C
  C168     1.0000 0.97580  0.72640  0.93560  Biso   1.000  C
  C169     1.0000 0.78100  0.93090  0.78470  Biso   1.000  C
  C170     1.0000 0.71350  0.90780  0.79570  Biso   1.000  C
  C171     1.0000 0.68240  0.93710  0.83310  Biso   1.000  C
  C172     1.0000 0.70130  0.98970  0.86070  Biso   1.000  C
  C173     1.0000 0.77370  0.01170  0.84470  Biso   1.000  C
  C174     1.0000 0.81580  0.06430  0.86360  Biso   1.000  C
  C175     1.0000 0.92890  0.11690  0.84220  Biso   1.000  C
  C176     1.0000 0.99260  0.11340  0.80050  Biso   1.000  C
  C177     1.0000 0.04520  0.15620  0.79390  Biso   1.000  C
  C178     1.0000 0.10370  0.14590  0.75580  Biso   1.000  C
  C179     1.0000 0.10430  0.09730  0.72320  Biso   1.000  C
  C180     1.0000 0.04920  0.05730  0.73230  Biso   1.000  C
  C181     1.0000 0.60040  0.03760  0.01720  Biso   1.000  C
  C182     1.0000 0.55290  0.92550  0.97090  Biso   1.000  C
  C183     1.0000 0.49940  0.96590  0.08210  Biso   1.000  C
  C184     1.0000 0.88960  0.02410  0.01150  Biso   1.000  C
  C185     1.0000 0.97290  0.91540  0.01750  Biso   1.000  C
  C186     1.0000 0.97840  0.98640  0.91610  Biso   1.000  C
  C187     1.0000 0.95130  0.70530  0.09500  Biso   1.000  C
  C188     1.0000 0.06460  0.62260  0.09230  Biso   1.000  C
  C189     1.0000 0.06850  0.70550  0.18310  Biso   1.000  C
  C190     1.0000 0.91720  0.68030  0.20930  Biso   1.000  C
  C191     1.0000 0.91810  0.58500  0.12850  Biso   1.000  C
  C192     1.0000 0.96690  0.91030  0.70750  Biso   1.000  C
  N1       1.0000 0.75030  0.65740  0.50760  Biso   1.000  N
  N2       1.0000 0.81980  0.64920  0.40750  Biso   1.000  N
  N3       1.0000 0.74850  0.56420  0.36710  Biso   1.000  N
  N4       1.0000 0.80120  0.32310  0.43150  Biso   1.000  N
  N5       1.0000 0.81030  0.33590  0.54020  Biso   1.000  N
  N6       1.0000 0.92600  0.26960  0.55710  Biso   1.000  N
  N7       1.0000 0.81000  0.47860  0.69310  Biso   1.000  N
  N8       1.0000 0.86740  0.58080  0.67790  Biso   1.000  N
  N9       1.0000 0.99610  0.56450  0.73090  Biso   1.000  N
  N10      1.0000 0.65390  0.55850  0.47030  Biso   1.000  N
  N11      1.0000 0.58150  0.38540  0.54620  Biso   1.000  N
  N12      1.0000 0.50080  0.44870  0.37480  Biso   1.000  N
  N13      1.0000 0.83070  0.53910  0.48070  Biso   1.000  N
  N14      1.0000 0.95470  0.36850  0.47450  Biso   1.000  N
  N15      1.0000 0.96450  0.47950  0.63000  Biso   1.000  N
  N16      1.0000 0.92470  0.23860  0.43620  Biso   1.000  N
  N17      1.0000 0.10230  0.11190  0.44470  Biso   1.000  N
  N18      1.0000 0.10920  0.23530  0.29790  Biso   1.000  N
  N19      1.0000 0.87490  0.20050  0.26140  Biso   1.000  N
  N20      1.0000 0.87670  0.04890  0.38230  Biso   1.000  N
  N21      1.0000 0.94570  0.44650  0.76260  Biso   1.000  N
  N22      1.0000 0.24970  0.84260  0.00760  Biso   1.000  N
  N23      1.0000 0.18020  0.85080  0.90750  Biso   1.000  N
  N24      1.0000 0.25150  0.93580  0.86710  Biso   1.000  N
  N25      1.0000 0.19880  0.17690  0.93150  Biso   1.000  N
  N26      1.0000 0.18970  0.16410  0.04020  Biso   1.000  N
  N27      1.0000 0.07400  0.23040  0.05710  Biso   1.000  N
  N28      1.0000 0.19000  0.02140  0.19310  Biso   1.000  N
  N29      1.0000 0.13260  0.91920  0.17790  Biso   1.000  N
  N30      1.0000 0.00390  0.93550  0.23090  Biso   1.000  N
  N31      1.0000 0.34610  0.94150  0.97030  Biso   1.000  N
  N32      1.0000 0.41850  0.11460  0.04620  Biso   1.000  N
  N33      1.0000 0.49920  0.05130  0.87480  Biso   1.000  N
  N34      1.0000 0.16930  0.96090  0.98070  Biso   1.000  N
  N35      1.0000 0.04530  0.13150  0.97450  Biso   1.000  N
  N36      1.0000 0.03550  0.02050  0.13000  Biso   1.000  N
  N37      1.0000 0.07530  0.26140  0.93620  Biso   1.000  N
  N38      1.0000 0.89770  0.38810  0.94470  Biso   1.000  N
  N39      1.0000 0.89080  0.26470  0.79790  Biso   1.000  N
  N40      1.0000 0.12510  0.29950  0.76140  Biso   1.000  N
  N41      1.0000 0.12330  0.45110  0.88230  Biso   1.000  N
  N42      1.0000 0.05430  0.05350  0.26260  Biso   1.000  N
  N43      1.0000 0.24970  0.34260  0.49240  Biso   1.000  N
  N44      1.0000 0.18020  0.35080  0.59250  Biso   1.000  N
  N45      1.0000 0.25150  0.43580  0.63290  Biso   1.000  N
  N46      1.0000 0.19880  0.67690  0.56850  Biso   1.000  N
  N47      1.0000 0.18970  0.66410  0.45980  Biso   1.000  N
  N48      1.0000 0.07400  0.73040  0.44290  Biso   1.000  N
  N49      1.0000 0.19000  0.52140  0.30690  Biso   1.000  N
  N50      1.0000 0.13260  0.41920  0.32210  Biso   1.000  N
  N51      1.0000 0.00390  0.43550  0.26910  Biso   1.000  N
  N52      1.0000 0.34610  0.44150  0.52970  Biso   1.000  N
  N53      1.0000 0.41850  0.61460  0.45380  Biso   1.000  N
  N54      1.0000 0.49920  0.55130  0.62520  Biso   1.000  N
  N55      1.0000 0.16930  0.46090  0.51930  Biso   1.000  N
  N56      1.0000 0.04530  0.63150  0.52550  Biso   1.000  N
  N57      1.0000 0.03550  0.52050  0.37000  Biso   1.000  N
  N58      1.0000 0.07530  0.76140  0.56380  Biso   1.000  N
  N59      1.0000 0.89770  0.88810  0.55530  Biso   1.000  N
  N60      1.0000 0.89080  0.76470  0.70210  Biso   1.000  N
  N61      1.0000 0.12510  0.79950  0.73860  Biso   1.000  N
  N62      1.0000 0.12330  0.95110  0.61770  Biso   1.000  N
  N63      1.0000 0.05430  0.55350  0.23740  Biso   1.000  N
  N64      1.0000 0.75030  0.15740  0.99240  Biso   1.000  N
  N65      1.0000 0.81980  0.14920  0.09250  Biso   1.000  N
  N66      1.0000 0.74850  0.06420  0.13290  Biso   1.000  N
  N67      1.0000 0.80120  0.82310  0.06850  Biso   1.000  N
  N68      1.0000 0.81030  0.83590  0.95980  Biso   1.000  N
  N69      1.0000 0.92600  0.76960  0.94290  Biso   1.000  N
  N70      1.0000 0.81000  0.97860  0.80690  Biso   1.000  N
  N71      1.0000 0.86740  0.08080  0.82210  Biso   1.000  N
  N72      1.0000 0.99610  0.06450  0.76910  Biso   1.000  N
  N73      1.0000 0.65390  0.05850  0.02970  Biso   1.000  N
  N74      1.0000 0.58150  0.88540  0.95380  Biso   1.000  N
  N75      1.0000 0.50080  0.94870  0.12520  Biso   1.000  N
  N76      1.0000 0.83070  0.03910  0.01930  Biso   1.000  N
  N77      1.0000 0.95470  0.86850  0.02550  Biso   1.000  N
  N78      1.0000 0.96450  0.97950  0.87000  Biso   1.000  N
  N79      1.0000 0.92470  0.73860  0.06380  Biso   1.000  N
  N80      1.0000 0.10230  0.61190  0.05530  Biso   1.000  N
  N81      1.0000 0.10920  0.73530  0.20210  Biso   1.000  N
  N82      1.0000 0.87490  0.70050  0.23860  Biso   1.000  N
  N83      1.0000 0.87670  0.54890  0.11770  Biso   1.000  N
  N84      1.0000 0.94570  0.94650  0.73740  Biso   1.000  N
