data_image0
_cell_length_a       9.3582
_cell_length_b       10.953
_cell_length_c       24.37
_cell_angle_alpha    90
_cell_angle_beta     90
_cell_angle_gamma    90

_symmetry_space_group_name_H-M    P 1
_symmetry_int_tables_number       1

loop_
  _symmetry_equiv_pos_as_xyz
  'x, y, z'

loop_
  _atom_site_label
  _atom_site_occupancy
  _atom_site_fract_x
  _atom_site_fract_y
  _atom_site_fract_z
  _atom_site_thermal_displace_type
  _atom_site_B_iso_or_equiv
  _atom_site_type_symbol
  Co1      1.0000 0.75735  0.27013  0.96162  Biso   1.000  Co
  Co2      1.0000 0.74265  0.22987  0.46162  Biso   1.000  Co
  Co3      1.0000 0.24265  0.27013  0.53838  Biso   1.000  Co
  Co4      1.0000 0.25735  0.22987  0.03838  Biso   1.000  Co
  Co5      1.0000 0.24265  0.72987  0.03838  Biso   1.000  Co
  Co6      1.0000 0.25735  0.77013  0.53838  Biso   1.000  Co
  Co7      1.0000 0.75735  0.72987  0.46162  Biso   1.000  Co
  Co8      1.0000 0.74265  0.77013  0.96162  Biso   1.000  Co
  H1       1.0000 0.61550  0.06540  0.07150  Biso   1.000  H
  H2       1.0000 0.84980  0.98000  0.06730  Biso   1.000  H
  H3       1.0000 0.83810  0.09210  0.10680  Biso   1.000  H
  H4       1.0000 0.90050  0.09830  0.88220  Biso   1.000  H
  H5       1.0000 0.00300  0.09040  0.79730  Biso   1.000  H
  H6       1.0000 0.91270  0.44680  0.78060  Biso   1.000  H
  H7       1.0000 0.81640  0.44290  0.86650  Biso   1.000  H
  H8       1.0000 0.88450  0.43460  0.57150  Biso   1.000  H
  H9       1.0000 0.65020  0.52000  0.56730  Biso   1.000  H
  H10      1.0000 0.66190  0.40790  0.60680  Biso   1.000  H
  H11      1.0000 0.59950  0.40170  0.38220  Biso   1.000  H
  H12      1.0000 0.49700  0.40960  0.29730  Biso   1.000  H
  H13      1.0000 0.58730  0.05320  0.28060  Biso   1.000  H
  H14      1.0000 0.68360  0.05710  0.36650  Biso   1.000  H
  H15      1.0000 0.38450  0.06540  0.42850  Biso   1.000  H
  H16      1.0000 0.15020  0.98000  0.43270  Biso   1.000  H
  H17      1.0000 0.16190  0.09210  0.39320  Biso   1.000  H
  H18      1.0000 0.09950  0.09830  0.61780  Biso   1.000  H
  H19      1.0000 0.99700  0.09040  0.70270  Biso   1.000  H
  H20      1.0000 0.08730  0.44680  0.71940  Biso   1.000  H
  H21      1.0000 0.18360  0.44290  0.63350  Biso   1.000  H
  H22      1.0000 0.11550  0.43460  0.92850  Biso   1.000  H
  H23      1.0000 0.34980  0.52000  0.93270  Biso   1.000  H
  H24      1.0000 0.33810  0.40790  0.89320  Biso   1.000  H
  H25      1.0000 0.40050  0.40170  0.11780  Biso   1.000  H
  H26      1.0000 0.50300  0.40960  0.20270  Biso   1.000  H
  H27      1.0000 0.41270  0.05320  0.21940  Biso   1.000  H
  H28      1.0000 0.31640  0.05710  0.13350  Biso   1.000  H
  H29      1.0000 0.38450  0.93460  0.92850  Biso   1.000  H
  H30      1.0000 0.15020  0.02000  0.93270  Biso   1.000  H
  H31      1.0000 0.16190  0.90790  0.89320  Biso   1.000  H
  H32      1.0000 0.09950  0.90170  0.11780  Biso   1.000  H
  H33      1.0000 0.99700  0.90960  0.20270  Biso   1.000  H
  H34      1.0000 0.08730  0.55320  0.21940  Biso   1.000  H
  H35      1.0000 0.18360  0.55710  0.13350  Biso   1.000  H
  H36      1.0000 0.11550  0.56540  0.42850  Biso   1.000  H
  H37      1.0000 0.34980  0.48000  0.43270  Biso   1.000  H
  H38      1.0000 0.33810  0.59210  0.39320  Biso   1.000  H
  H39      1.0000 0.40050  0.59830  0.61780  Biso   1.000  H
  H40      1.0000 0.50300  0.59040  0.70270  Biso   1.000  H
  H41      1.0000 0.41270  0.94680  0.71940  Biso   1.000  H
  H42      1.0000 0.31640  0.94290  0.63350  Biso   1.000  H
  H43      1.0000 0.61550  0.93460  0.57150  Biso   1.000  H
  H44      1.0000 0.84980  0.02000  0.56730  Biso   1.000  H
  H45      1.0000 0.83810  0.90790  0.60680  Biso   1.000  H
  H46      1.0000 0.90050  0.90170  0.38220  Biso   1.000  H
  H47      1.0000 0.00300  0.90960  0.29730  Biso   1.000  H
  H48      1.0000 0.91270  0.55320  0.28060  Biso   1.000  H
  H49      1.0000 0.81640  0.55710  0.36650  Biso   1.000  H
  H50      1.0000 0.88450  0.56540  0.07150  Biso   1.000  H
  H51      1.0000 0.65020  0.48000  0.06730  Biso   1.000  H
  H52      1.0000 0.66190  0.59210  0.10680  Biso   1.000  H
  H53      1.0000 0.59950  0.59830  0.88220  Biso   1.000  H
  H54      1.0000 0.49700  0.59040  0.79730  Biso   1.000  H
  H55      1.0000 0.58730  0.94680  0.78060  Biso   1.000  H
  H56      1.0000 0.68360  0.94290  0.86650  Biso   1.000  H
  C1       1.0000 0.66450  0.03590  0.98961  Biso   1.000  C
  C2       1.0000 0.68770  0.09610  0.04584  Biso   1.000  C
  C3       1.0000 0.83570  0.06770  0.06857  Biso   1.000  C
  C4       1.0000 0.95860  0.12770  0.03953  Biso   1.000  C
  C5       1.0000 0.90350  0.16930  0.86129  Biso   1.000  C
  C6       1.0000 0.96450  0.16320  0.81018  Biso   1.000  C
  C7       1.0000 0.96770  0.26870  0.77787  Biso   1.000  C
  C8       1.0000 0.91150  0.37420  0.80035  Biso   1.000  C
  C9       1.0000 0.85370  0.37100  0.85213  Biso   1.000  C
  C10      1.0000 0.83550  0.46410  0.48961  Biso   1.000  C
  C11      1.0000 0.81230  0.40390  0.54584  Biso   1.000  C
  C12      1.0000 0.66430  0.43230  0.56857  Biso   1.000  C
  C13      1.0000 0.54140  0.37230  0.53953  Biso   1.000  C
  C14      1.0000 0.59650  0.33070  0.36129  Biso   1.000  C
  C15      1.0000 0.53550  0.33680  0.31018  Biso   1.000  C
  C16      1.0000 0.53230  0.23130  0.27787  Biso   1.000  C
  C17      1.0000 0.58850  0.12580  0.30035  Biso   1.000  C
  C18      1.0000 0.64630  0.12900  0.35213  Biso   1.000  C
  C19      1.0000 0.33550  0.03590  0.51039  Biso   1.000  C
  C20      1.0000 0.31230  0.09610  0.45416  Biso   1.000  C
  C21      1.0000 0.16430  0.06770  0.43143  Biso   1.000  C
  C22      1.0000 0.04140  0.12770  0.46047  Biso   1.000  C
  C23      1.0000 0.09650  0.16930  0.63871  Biso   1.000  C
  C24      1.0000 0.03550  0.16320  0.68982  Biso   1.000  C
  C25      1.0000 0.03230  0.26870  0.72213  Biso   1.000  C
  C26      1.0000 0.08850  0.37420  0.69965  Biso   1.000  C
  C27      1.0000 0.14630  0.37100  0.64787  Biso   1.000  C
  C28      1.0000 0.16450  0.46410  0.01039  Biso   1.000  C
  C29      1.0000 0.18770  0.40390  0.95416  Biso   1.000  C
  C30      1.0000 0.33570  0.43230  0.93143  Biso   1.000  C
  C31      1.0000 0.45860  0.37230  0.96047  Biso   1.000  C
  C32      1.0000 0.40350  0.33070  0.13871  Biso   1.000  C
  C33      1.0000 0.46450  0.33680  0.18982  Biso   1.000  C
  C34      1.0000 0.46770  0.23130  0.22213  Biso   1.000  C
  C35      1.0000 0.41150  0.12580  0.19965  Biso   1.000  C
  C36      1.0000 0.35370  0.12900  0.14787  Biso   1.000  C
  C37      1.0000 0.33550  0.96410  0.01039  Biso   1.000  C
  C38      1.0000 0.31230  0.90390  0.95416  Biso   1.000  C
  C39      1.0000 0.16430  0.93230  0.93143  Biso   1.000  C
  C40      1.0000 0.04140  0.87230  0.96047  Biso   1.000  C
  C41      1.0000 0.09650  0.83070  0.13871  Biso   1.000  C
  C42      1.0000 0.03550  0.83680  0.18982  Biso   1.000  C
  C43      1.0000 0.03230  0.73130  0.22213  Biso   1.000  C
  C44      1.0000 0.08850  0.62580  0.19965  Biso   1.000  C
  C45      1.0000 0.14630  0.62900  0.14787  Biso   1.000  C
  C46      1.0000 0.16450  0.53590  0.51039  Biso   1.000  C
  C47      1.0000 0.18770  0.59610  0.45416  Biso   1.000  C
  C48      1.0000 0.33570  0.56770  0.43143  Biso   1.000  C
  C49      1.0000 0.45860  0.62770  0.46047  Biso   1.000  C
  C50      1.0000 0.40350  0.66930  0.63871  Biso   1.000  C
  C51      1.0000 0.46450  0.66320  0.68982  Biso   1.000  C
  C52      1.0000 0.46770  0.76870  0.72213  Biso   1.000  C
  C53      1.0000 0.41150  0.87420  0.69965  Biso   1.000  C
  C54      1.0000 0.35370  0.87100  0.64787  Biso   1.000  C
  C55      1.0000 0.66450  0.96410  0.48961  Biso   1.000  C
  C56      1.0000 0.68770  0.90390  0.54584  Biso   1.000  C
  C57      1.0000 0.83570  0.93230  0.56857  Biso   1.000  C
  C58      1.0000 0.95860  0.87230  0.53953  Biso   1.000  C
  C59      1.0000 0.90350  0.83070  0.36129  Biso   1.000  C
  C60      1.0000 0.96450  0.83680  0.31018  Biso   1.000  C
  C61      1.0000 0.96770  0.73130  0.27787  Biso   1.000  C
  C62      1.0000 0.91150  0.62580  0.30035  Biso   1.000  C
  C63      1.0000 0.85370  0.62900  0.35213  Biso   1.000  C
  C64      1.0000 0.83550  0.53590  0.98961  Biso   1.000  C
  C65      1.0000 0.81230  0.59610  0.04584  Biso   1.000  C
  C66      1.0000 0.66430  0.56770  0.06857  Biso   1.000  C
  C67      1.0000 0.54140  0.62770  0.03953  Biso   1.000  C
  C68      1.0000 0.59650  0.66930  0.86129  Biso   1.000  C
  C69      1.0000 0.53550  0.66320  0.81018  Biso   1.000  C
  C70      1.0000 0.53230  0.76870  0.77787  Biso   1.000  C
  C71      1.0000 0.58850  0.87420  0.80035  Biso   1.000  C
  C72      1.0000 0.64630  0.87100  0.85213  Biso   1.000  C
  N1       1.0000 0.84810  0.27090  0.88286  Biso   1.000  N
  N2       1.0000 0.65190  0.22910  0.38286  Biso   1.000  N
  N3       1.0000 0.15190  0.27090  0.61714  Biso   1.000  N
  N4       1.0000 0.34810  0.22910  0.11714  Biso   1.000  N
  N5       1.0000 0.15190  0.72910  0.11714  Biso   1.000  N
  N6       1.0000 0.34810  0.77090  0.61714  Biso   1.000  N
  N7       1.0000 0.84810  0.72910  0.38286  Biso   1.000  N
  N8       1.0000 0.65190  0.77090  0.88286  Biso   1.000  N
  O1       1.0000 0.66500  0.10160  0.94748  Biso   1.000  O
  O2       1.0000 0.64610  0.92306  0.99076  Biso   1.000  O
  O3       1.0000 0.67500  0.22612  0.04214  Biso   1.000  O
  O4       1.0000 0.93840  0.17235  0.99163  Biso   1.000  O
  O5       1.0000 0.07690  0.12920  0.06333  Biso   1.000  O
  O6       1.0000 0.83500  0.39840  0.44748  Biso   1.000  O
  O7       1.0000 0.85390  0.57694  0.49076  Biso   1.000  O
  O8       1.0000 0.82500  0.27388  0.54214  Biso   1.000  O
  O9       1.0000 0.56160  0.32765  0.49163  Biso   1.000  O
  O10      1.0000 0.42310  0.37080  0.56333  Biso   1.000  O
  O11      1.0000 0.33500  0.10160  0.55252  Biso   1.000  O
  O12      1.0000 0.35390  0.92306  0.50924  Biso   1.000  O
  O13      1.0000 0.32500  0.22612  0.45786  Biso   1.000  O
  O14      1.0000 0.06160  0.17235  0.50837  Biso   1.000  O
  O15      1.0000 0.92310  0.12920  0.43667  Biso   1.000  O
  O16      1.0000 0.16500  0.39840  0.05252  Biso   1.000  O
  O17      1.0000 0.14610  0.57694  0.00924  Biso   1.000  O
  O18      1.0000 0.17500  0.27388  0.95786  Biso   1.000  O
  O19      1.0000 0.43840  0.32765  0.00837  Biso   1.000  O
  O20      1.0000 0.57690  0.37080  0.93667  Biso   1.000  O
  O21      1.0000 0.33500  0.89840  0.05252  Biso   1.000  O
  O22      1.0000 0.35390  0.07694  0.00924  Biso   1.000  O
  O23      1.0000 0.32500  0.77388  0.95786  Biso   1.000  O
  O24      1.0000 0.06160  0.82765  0.00837  Biso   1.000  O
  O25      1.0000 0.92310  0.87080  0.93667  Biso   1.000  O
  O26      1.0000 0.16500  0.60160  0.55252  Biso   1.000  O
  O27      1.0000 0.14610  0.42306  0.50924  Biso   1.000  O
  O28      1.0000 0.17500  0.72612  0.45786  Biso   1.000  O
  O29      1.0000 0.43840  0.67235  0.50837  Biso   1.000  O
  O30      1.0000 0.57690  0.62920  0.43667  Biso   1.000  O
  O31      1.0000 0.66500  0.89840  0.44748  Biso   1.000  O
  O32      1.0000 0.64610  0.07694  0.49076  Biso   1.000  O
  O33      1.0000 0.67500  0.77388  0.54214  Biso   1.000  O
  O34      1.0000 0.93840  0.82765  0.49163  Biso   1.000  O
  O35      1.0000 0.07690  0.87080  0.56333  Biso   1.000  O
  O36      1.0000 0.83500  0.60160  0.94748  Biso   1.000  O
  O37      1.0000 0.85390  0.42306  0.99076  Biso   1.000  O
  O38      1.0000 0.82500  0.72612  0.04214  Biso   1.000  O
  O39      1.0000 0.56160  0.67235  0.99163  Biso   1.000  O
  O40      1.0000 0.42310  0.62920  0.06333  Biso   1.000  O
