data_image0
_cell_length_a       9.3549
_cell_length_b       13.104
_cell_length_c       10.883
_cell_angle_alpha    113.08
_cell_angle_beta     90
_cell_angle_gamma    90

_symmetry_space_group_name_H-M    P 1
_symmetry_int_tables_number       1

loop_
  _symmetry_equiv_pos_as_xyz
  'x, y, z'

loop_
  _atom_site_label
  _atom_site_occupancy
  _atom_site_fract_x
  _atom_site_fract_y
  _atom_site_fract_z
  _atom_site_thermal_displace_type
  _atom_site_B_iso_or_equiv
  _atom_site_type_symbol
  Ni1      1.0000 0.76161  0.57437  0.80666  Biso   1.000  Ni
  Ni2      1.0000 0.26161  0.42563  0.69334  Biso   1.000  Ni
  Ni3      1.0000 0.23839  0.42563  0.19334  Biso   1.000  Ni
  Ni4      1.0000 0.73839  0.57437  0.30666  Biso   1.000  Ni
  H1       1.0000 0.62030  0.35300  0.50300  Biso   1.000  H
  H2       1.0000 0.84410  0.28270  0.49500  Biso   1.000  H
  H3       1.0000 0.85380  0.36170  0.41860  Biso   1.000  H
  H4       1.0000 0.89370  0.73110  0.70690  Biso   1.000  H
  H5       1.0000 0.99180  0.90400  0.77660  Biso   1.000  H
  H6       1.0000 0.92650  0.93640  0.15200  Biso   1.000  H
  H7       1.0000 0.83570  0.75980  0.07180  Biso   1.000  H
  H8       1.0000 0.12030  0.64700  0.99700  Biso   1.000  H
  H9       1.0000 0.34410  0.71730  0.00500  Biso   1.000  H
  H10      1.0000 0.35380  0.63830  0.08140  Biso   1.000  H
  H11      1.0000 0.39370  0.26890  0.79310  Biso   1.000  H
  H12      1.0000 0.49180  0.09600  0.72340  Biso   1.000  H
  H13      1.0000 0.42650  0.06360  0.34800  Biso   1.000  H
  H14      1.0000 0.33570  0.24020  0.42820  Biso   1.000  H
  H15      1.0000 0.37970  0.64700  0.49700  Biso   1.000  H
  H16      1.0000 0.15590  0.71730  0.50500  Biso   1.000  H
  H17      1.0000 0.14620  0.63830  0.58140  Biso   1.000  H
  H18      1.0000 0.10630  0.26890  0.29310  Biso   1.000  H
  H19      1.0000 0.00820  0.09600  0.22340  Biso   1.000  H
  H20      1.0000 0.07350  0.06360  0.84800  Biso   1.000  H
  H21      1.0000 0.16430  0.24020  0.92820  Biso   1.000  H
  H22      1.0000 0.87970  0.35300  0.00300  Biso   1.000  H
  H23      1.0000 0.65590  0.28270  0.99500  Biso   1.000  H
  H24      1.0000 0.64620  0.36170  0.91860  Biso   1.000  H
  H25      1.0000 0.60630  0.73110  0.20690  Biso   1.000  H
  H26      1.0000 0.50820  0.90400  0.27660  Biso   1.000  H
  H27      1.0000 0.57350  0.93640  0.65200  Biso   1.000  H
  H28      1.0000 0.66430  0.75980  0.57180  Biso   1.000  H
  C1       1.0000 0.66800  0.51800  0.54780  Biso   1.000  C
  C2       1.0000 0.69250  0.40560  0.55730  Biso   1.000  C
  C3       1.0000 0.84060  0.35980  0.50600  Biso   1.000  C
  C4       1.0000 0.96360  0.42070  0.59450  Biso   1.000  C
  C5       1.0000 0.89960  0.77330  0.79820  Biso   1.000  C
  C6       1.0000 0.95870  0.87740  0.83910  Biso   1.000  C
  C7       1.0000 0.96840  0.94270  0.97530  Biso   1.000  C
  C8       1.0000 0.92100  0.89620  0.06030  Biso   1.000  C
  C9       1.0000 0.86470  0.79000  0.01140  Biso   1.000  C
  C10      1.0000 0.16800  0.48200  0.95220  Biso   1.000  C
  C11      1.0000 0.19250  0.59440  0.94270  Biso   1.000  C
  C12      1.0000 0.34060  0.64020  0.99400  Biso   1.000  C
  C13      1.0000 0.46360  0.57930  0.90550  Biso   1.000  C
  C14      1.0000 0.39960  0.22670  0.70180  Biso   1.000  C
  C15      1.0000 0.45870  0.12260  0.66090  Biso   1.000  C
  C16      1.0000 0.46840  0.05730  0.52470  Biso   1.000  C
  C17      1.0000 0.42100  0.10380  0.43970  Biso   1.000  C
  C18      1.0000 0.36470  0.21000  0.48860  Biso   1.000  C
  C19      1.0000 0.33200  0.48200  0.45220  Biso   1.000  C
  C20      1.0000 0.30750  0.59440  0.44270  Biso   1.000  C
  C21      1.0000 0.15940  0.64020  0.49400  Biso   1.000  C
  C22      1.0000 0.03640  0.57930  0.40550  Biso   1.000  C
  C23      1.0000 0.10040  0.22670  0.20180  Biso   1.000  C
  C24      1.0000 0.04130  0.12260  0.16090  Biso   1.000  C
  C25      1.0000 0.03160  0.05730  0.02470  Biso   1.000  C
  C26      1.0000 0.07900  0.10380  0.93970  Biso   1.000  C
  C27      1.0000 0.13530  0.21000  0.98860  Biso   1.000  C
  C28      1.0000 0.83200  0.51800  0.04780  Biso   1.000  C
  C29      1.0000 0.80750  0.40560  0.05730  Biso   1.000  C
  C30      1.0000 0.65940  0.35980  0.00600  Biso   1.000  C
  C31      1.0000 0.53640  0.42070  0.09450  Biso   1.000  C
  C32      1.0000 0.60040  0.77330  0.29820  Biso   1.000  C
  C33      1.0000 0.54130  0.87740  0.33910  Biso   1.000  C
  C34      1.0000 0.53160  0.94270  0.47530  Biso   1.000  C
  C35      1.0000 0.57900  0.89620  0.56030  Biso   1.000  C
  C36      1.0000 0.63530  0.79000  0.51140  Biso   1.000  C
  N1       1.0000 0.85060  0.72910  0.88060  Biso   1.000  N
  N2       1.0000 0.35060  0.27090  0.61940  Biso   1.000  N
  N3       1.0000 0.14940  0.27090  0.11940  Biso   1.000  N
  N4       1.0000 0.64940  0.72910  0.38060  Biso   1.000  N
  O1       1.0000 0.66900  0.60380  0.65380  Biso   1.000  O
  O2       1.0000 0.64550  0.51380  0.43260  Biso   1.000  O
  O3       1.0000 0.68090  0.41460  0.69330  Biso   1.000  O
  O4       1.0000 0.94240  0.51590  0.68560  Biso   1.000  O
  O5       1.0000 0.08440  0.37450  0.57120  Biso   1.000  O
  O6       1.0000 0.16900  0.39620  0.84620  Biso   1.000  O
  O7       1.0000 0.14550  0.48620  0.06740  Biso   1.000  O
  O8       1.0000 0.18090  0.58540  0.80670  Biso   1.000  O
  O9       1.0000 0.44240  0.48410  0.81440  Biso   1.000  O
  O10      1.0000 0.58440  0.62550  0.92880  Biso   1.000  O
  O11      1.0000 0.33100  0.39620  0.34620  Biso   1.000  O
  O12      1.0000 0.35450  0.48620  0.56740  Biso   1.000  O
  O13      1.0000 0.31910  0.58540  0.30670  Biso   1.000  O
  O14      1.0000 0.05760  0.48410  0.31440  Biso   1.000  O
  O15      1.0000 0.91560  0.62550  0.42880  Biso   1.000  O
  O16      1.0000 0.83100  0.60380  0.15380  Biso   1.000  O
  O17      1.0000 0.85450  0.51380  0.93260  Biso   1.000  O
  O18      1.0000 0.81910  0.41460  0.19330  Biso   1.000  O
  O19      1.0000 0.55760  0.51590  0.18560  Biso   1.000  O
  O20      1.0000 0.41560  0.37450  0.07120  Biso   1.000  O
