data_image0
_cell_length_a       7.1072
_cell_length_b       9.4094
_cell_length_c       11.7847
_cell_angle_alpha    71.602
_cell_angle_beta     78.165
_cell_angle_gamma    70.296

_symmetry_space_group_name_H-M    "P 1"
_symmetry_int_tables_number       1

loop_
  _symmetry_equiv_pos_as_xyz
  'x, y, z'

loop_
  _atom_site_label
  _atom_site_occupancy
  _atom_site_fract_x
  _atom_site_fract_y
  _atom_site_fract_z
  _atom_site_thermal_displace_type
  _atom_site_B_iso_or_equiv
  _atom_site_type_symbol
  Ga1      1.0000 0.46521  0.37565  0.83957  Biso   1.000  Ga
  P1       1.0000 0.64571  0.09833  0.69775  Biso   1.000  P
  P2       1.0000 0.30990  0.73427  0.67125  Biso   1.000  P
  P3       1.0000 0.71292  0.54714  0.90563  Biso   1.000  P
  F1       1.0000 0.20580  0.08870  0.50998  Biso   1.000  F
  F2       1.0000 0.52540  0.18820  0.96434  Biso   1.000  F
  F3       1.0000 0.22080  0.33810  0.83680  Biso   1.000  F
  O1       1.0000 0.70920  0.42100  0.85150  Biso   1.000  O
  O2       1.0000 0.40090  0.55730  0.70070  Biso   1.000  O
  O3       1.0000 0.68250  0.50240  0.04160  Biso   1.000  O
  O4       1.0000 0.61080  0.25610  0.72200  Biso   1.000  O
  O5       1.0000 0.86660  0.03430  0.65400  Biso   1.000  O
  O6       1.0000 0.46940  0.81990  0.63100  Biso   1.000  O
  O7       1.0000 0.49990  0.10700  0.61640  Biso   1.000  O
  O8       1.0000 0.15730  0.78880  0.58030  Biso   1.000  O
  O9       1.0000 0.91430  0.59010  0.85710  Biso   1.000  O
  H1       1.0000 0.58600  0.68900  0.86100  Biso   1.000  H
  H2       1.0000 0.21900  0.77300  0.76800  Biso   1.000  H
  H3       1.0000 0.60900  0.99400  0.80700  Biso   1.000  H
  H4       1.0000 0.02800  0.52200  0.85600  Biso   1.000  H
  Ga2      1.0000 0.53479  0.62435  0.16043  Biso   1.000  Ga
  P4       1.0000 0.35429  0.90167  0.30225  Biso   1.000  P
  P5       1.0000 0.69010  0.26573  0.32875  Biso   1.000  P
  P6       1.0000 0.28708  0.45286  0.09437  Biso   1.000  P
  F4       1.0000 0.79420  0.91130  0.49002  Biso   1.000  F
  F5       1.0000 0.47460  0.81180  0.03566  Biso   1.000  F
  F6       1.0000 0.77920  0.66190  0.16320  Biso   1.000  F
  O10      1.0000 0.29080  0.57900  0.14850  Biso   1.000  O
  O11      1.0000 0.59910  0.44270  0.29930  Biso   1.000  O
  O12      1.0000 0.31750  0.49760  0.95840  Biso   1.000  O
  O13      1.0000 0.38920  0.74390  0.27800  Biso   1.000  O
  O14      1.0000 0.13340  0.96570  0.34600  Biso   1.000  O
  O15      1.0000 0.53060  0.18010  0.36900  Biso   1.000  O
  O16      1.0000 0.50010  0.89300  0.38360  Biso   1.000  O
  O17      1.0000 0.84270  0.21120  0.41970  Biso   1.000  O
  O18      1.0000 0.08570  0.40990  0.14290  Biso   1.000  O
  H5       1.0000 0.41400  0.31100  0.13900  Biso   1.000  H
  H6       1.0000 0.78100  0.22700  0.23200  Biso   1.000  H
  H7       1.0000 0.39100  0.00600  0.19300  Biso   1.000  H
  H8       1.0000 0.97200  0.47800  0.14400  Biso   1.000  H
  Ga3      1.0000 0.00000  0.00000  0.50000  Biso   1.000  Ga
  Ga4      1.0000 0.50000  0.00000  0.50000  Biso   1.000  Ga
