data_image0
_cell_length_a       11.3918
_cell_length_b       11.4299
_cell_length_c       26.998
_cell_angle_alpha    90
_cell_angle_beta     90
_cell_angle_gamma    94.283

_symmetry_space_group_name_H-M    P 1
_symmetry_int_tables_number       1

loop_
  _symmetry_equiv_pos_as_xyz
  'x, y, z'

loop_
  _atom_site_label
  _atom_site_occupancy
  _atom_site_fract_x
  _atom_site_fract_y
  _atom_site_fract_z
  _atom_site_thermal_displace_type
  _atom_site_B_iso_or_equiv
  _atom_site_type_symbol
  Mg1      1.0000 0.86026  0.24997  0.46172  Biso   1.000  Mg
  Mg2      1.0000 0.63974  0.75003  0.96172  Biso   1.000  Mg
  Mg3      1.0000 0.13974  0.75003  0.53828  Biso   1.000  Mg
  Mg4      1.0000 0.36026  0.24997  0.03828  Biso   1.000  Mg
  Mg5      1.0000 0.00000  0.00000  0.50000  Biso   1.000  Mg
  Mg6      1.0000 0.50000  0.00000  0.00000  Biso   1.000  Mg
  H1       1.0000 0.17690  0.47200  0.46050  Biso   1.000  H
  H2       1.0000 0.35210  0.58830  0.47330  Biso   1.000  H
  H3       1.0000 0.49530  0.31380  0.53910  Biso   1.000  H
  H4       1.0000 0.32000  0.19750  0.52630  Biso   1.000  H
  H5       1.0000 0.76150  0.30810  0.62200  Biso   1.000  H
  H6       1.0000 0.71210  0.25770  0.70330  Biso   1.000  H
  H7       1.0000 0.77660  0.92230  0.67460  Biso   1.000  H
  H8       1.0000 0.82630  0.97240  0.59320  Biso   1.000  H
  H9       1.0000 0.79480  0.19210  0.78790  Biso   1.000  H
  H10      1.0000 0.70890  0.14440  0.86510  Biso   1.000  H
  H11      1.0000 0.54100  0.85250  0.80780  Biso   1.000  H
  H12      1.0000 0.61730  0.90140  0.72920  Biso   1.000  H
  H13      1.0000 0.73130  0.62960  0.36080  Biso   1.000  H
  H14      1.0000 0.81340  0.57730  0.31940  Biso   1.000  H
  H15      1.0000 0.73640  0.49060  0.35530  Biso   1.000  H
  H16      1.0000 0.01960  0.66170  0.40630  Biso   1.000  H
  H17      1.0000 0.95920  0.70810  0.35720  Biso   1.000  H
  H18      1.0000 0.90310  0.73120  0.41040  Biso   1.000  H
  H19      1.0000 0.61780  0.32450  0.42140  Biso   1.000  H
  H20      1.0000 0.43200  0.22370  0.35060  Biso   1.000  H
  H21      1.0000 0.33900  0.22280  0.39510  Biso   1.000  H
  H22      1.0000 0.43700  0.32980  0.38940  Biso   1.000  H
  H23      1.0000 0.42690  0.06950  0.46280  Biso   1.000  H
  H24      1.0000 0.46990  0.01360  0.41220  Biso   1.000  H
  H25      1.0000 0.56420  0.05730  0.45340  Biso   1.000  H
  H26      1.0000 0.32310  0.52800  0.96050  Biso   1.000  H
  H27      1.0000 0.14790  0.41170  0.97330  Biso   1.000  H
  H28      1.0000 0.00470  0.68620  0.03910  Biso   1.000  H
  H29      1.0000 0.18000  0.80250  0.02630  Biso   1.000  H
  H30      1.0000 0.73850  0.69190  0.12200  Biso   1.000  H
  H31      1.0000 0.78790  0.74230  0.20330  Biso   1.000  H
  H32      1.0000 0.72340  0.07770  0.17460  Biso   1.000  H
  H33      1.0000 0.67370  0.02760  0.09320  Biso   1.000  H
  H34      1.0000 0.70520  0.80790  0.28790  Biso   1.000  H
  H35      1.0000 0.79110  0.85560  0.36510  Biso   1.000  H
  H36      1.0000 0.95900  0.14750  0.30780  Biso   1.000  H
  H37      1.0000 0.88270  0.09860  0.22920  Biso   1.000  H
  H38      1.0000 0.76870  0.37040  0.86080  Biso   1.000  H
  H39      1.0000 0.68660  0.42270  0.81940  Biso   1.000  H
  H40      1.0000 0.76360  0.50940  0.85530  Biso   1.000  H
  H41      1.0000 0.48040  0.33830  0.90630  Biso   1.000  H
  H42      1.0000 0.54080  0.29190  0.85720  Biso   1.000  H
  H43      1.0000 0.59690  0.26880  0.91040  Biso   1.000  H
  H44      1.0000 0.88220  0.67550  0.92140  Biso   1.000  H
  H45      1.0000 0.06800  0.77630  0.85060  Biso   1.000  H
  H46      1.0000 0.16100  0.77720  0.89510  Biso   1.000  H
  H47      1.0000 0.06300  0.67020  0.88940  Biso   1.000  H
  H48      1.0000 0.07310  0.93050  0.96280  Biso   1.000  H
  H49      1.0000 0.03010  0.98640  0.91220  Biso   1.000  H
  H50      1.0000 0.93580  0.94270  0.95340  Biso   1.000  H
  H51      1.0000 0.82310  0.52800  0.53950  Biso   1.000  H
  H52      1.0000 0.64790  0.41170  0.52670  Biso   1.000  H
  H53      1.0000 0.50470  0.68620  0.46090  Biso   1.000  H
  H54      1.0000 0.68000  0.80250  0.47370  Biso   1.000  H
  H55      1.0000 0.23850  0.69190  0.37800  Biso   1.000  H
  H56      1.0000 0.28790  0.74230  0.29670  Biso   1.000  H
  H57      1.0000 0.22340  0.07770  0.32540  Biso   1.000  H
  H58      1.0000 0.17370  0.02760  0.40680  Biso   1.000  H
  H59      1.0000 0.20520  0.80790  0.21210  Biso   1.000  H
  H60      1.0000 0.29110  0.85560  0.13490  Biso   1.000  H
  H61      1.0000 0.45900  0.14750  0.19220  Biso   1.000  H
  H62      1.0000 0.38270  0.09860  0.27080  Biso   1.000  H
  H63      1.0000 0.26870  0.37040  0.63920  Biso   1.000  H
  H64      1.0000 0.18660  0.42270  0.68060  Biso   1.000  H
  H65      1.0000 0.26360  0.50940  0.64470  Biso   1.000  H
  H66      1.0000 0.98040  0.33830  0.59370  Biso   1.000  H
  H67      1.0000 0.04080  0.29190  0.64280  Biso   1.000  H
  H68      1.0000 0.09690  0.26880  0.58960  Biso   1.000  H
  H69      1.0000 0.38220  0.67550  0.57860  Biso   1.000  H
  H70      1.0000 0.56800  0.77630  0.64940  Biso   1.000  H
  H71      1.0000 0.66100  0.77720  0.60490  Biso   1.000  H
  H72      1.0000 0.56300  0.67020  0.61060  Biso   1.000  H
  H73      1.0000 0.57310  0.93050  0.53720  Biso   1.000  H
  H74      1.0000 0.53010  0.98640  0.58780  Biso   1.000  H
  H75      1.0000 0.43580  0.94270  0.54660  Biso   1.000  H
  H76      1.0000 0.67690  0.47200  0.03950  Biso   1.000  H
  H77      1.0000 0.85210  0.58830  0.02670  Biso   1.000  H
  H78      1.0000 0.99530  0.31380  0.96090  Biso   1.000  H
  H79      1.0000 0.82000  0.19750  0.97370  Biso   1.000  H
  H80      1.0000 0.26150  0.30810  0.87800  Biso   1.000  H
  H81      1.0000 0.21210  0.25770  0.79670  Biso   1.000  H
  H82      1.0000 0.27660  0.92230  0.82540  Biso   1.000  H
  H83      1.0000 0.32630  0.97240  0.90680  Biso   1.000  H
  H84      1.0000 0.29480  0.19210  0.71210  Biso   1.000  H
  H85      1.0000 0.20890  0.14440  0.63490  Biso   1.000  H
  H86      1.0000 0.04100  0.85250  0.69220  Biso   1.000  H
  H87      1.0000 0.11730  0.90140  0.77080  Biso   1.000  H
  H88      1.0000 0.23130  0.62960  0.13920  Biso   1.000  H
  H89      1.0000 0.31340  0.57730  0.18060  Biso   1.000  H
  H90      1.0000 0.23640  0.49060  0.14470  Biso   1.000  H
  H91      1.0000 0.51960  0.66170  0.09370  Biso   1.000  H
  H92      1.0000 0.45920  0.70810  0.14280  Biso   1.000  H
  H93      1.0000 0.40310  0.73120  0.08960  Biso   1.000  H
  H94      1.0000 0.11780  0.32450  0.07860  Biso   1.000  H
  H95      1.0000 0.93200  0.22370  0.14940  Biso   1.000  H
  H96      1.0000 0.83900  0.22280  0.10490  Biso   1.000  H
  H97      1.0000 0.93700  0.32980  0.11060  Biso   1.000  H
  H98      1.0000 0.92690  0.06950  0.03720  Biso   1.000  H
  H99      1.0000 0.96990  0.01360  0.08780  Biso   1.000  H
  H100     1.0000 0.06420  0.05730  0.04660  Biso   1.000  H
  C1       1.0000 0.11580  0.25150  0.48098  Biso   1.000  C
  C2       1.0000 0.23200  0.32380  0.49220  Biso   1.000  C
  C3       1.0000 0.24150  0.43990  0.47650  Biso   1.000  C
  C4       1.0000 0.34560  0.50900  0.48400  Biso   1.000  C
  C5       1.0000 0.44020  0.46200  0.50740  Biso   1.000  C
  C6       1.0000 0.43060  0.34590  0.52310  Biso   1.000  C
  C7       1.0000 0.32650  0.27680  0.51560  Biso   1.000  C
  C8       1.0000 0.82850  0.18140  0.54776  Biso   1.000  C
  C9       1.0000 0.79940  0.14530  0.59969  Biso   1.000  C
  C10      1.0000 0.76480  0.22920  0.63265  Biso   1.000  C
  C11      1.0000 0.73500  0.19910  0.68110  Biso   1.000  C
  C12      1.0000 0.73820  0.08490  0.69732  Biso   1.000  C
  C13      1.0000 0.77320  0.00120  0.66394  Biso   1.000  C
  C14      1.0000 0.80320  0.03080  0.61548  Biso   1.000  C
  C15      1.0000 0.70310  0.05230  0.74870  Biso   1.000  C
  C16      1.0000 0.74100  0.12510  0.79160  Biso   1.000  C
  C17      1.0000 0.69500  0.09250  0.83790  Biso   1.000  C
  C18      1.0000 0.63200  0.99010  0.84525  Biso   1.000  C
  C19      1.0000 0.59410  0.91990  0.80360  Biso   1.000  C
  C20      1.0000 0.63630  0.95190  0.75650  Biso   1.000  C
  C21      1.0000 0.59390  0.94940  0.89630  Biso   1.000  C
  C22      1.0000 0.89140  0.48580  0.41981  Biso   1.000  C
  C23      1.0000 0.78210  0.56650  0.35310  Biso   1.000  C
  C24      1.0000 0.94450  0.67560  0.39040  Biso   1.000  C
  C25      1.0000 0.60310  0.24540  0.43190  Biso   1.000  C
  C26      1.0000 0.42060  0.24500  0.38530  Biso   1.000  C
  C27      1.0000 0.48930  0.07290  0.43780  Biso   1.000  C
  C28      1.0000 0.38420  0.74850  0.98098  Biso   1.000  C
  C29      1.0000 0.26800  0.67620  0.99220  Biso   1.000  C
  C30      1.0000 0.25850  0.56010  0.97650  Biso   1.000  C
  C31      1.0000 0.15440  0.49100  0.98400  Biso   1.000  C
  C32      1.0000 0.05980  0.53800  0.00740  Biso   1.000  C
  C33      1.0000 0.06940  0.65410  0.02310  Biso   1.000  C
  C34      1.0000 0.17350  0.72320  0.01560  Biso   1.000  C
  C35      1.0000 0.67150  0.81860  0.04776  Biso   1.000  C
  C36      1.0000 0.70060  0.85470  0.09969  Biso   1.000  C
  C37      1.0000 0.73520  0.77080  0.13265  Biso   1.000  C
  C38      1.0000 0.76500  0.80090  0.18110  Biso   1.000  C
  C39      1.0000 0.76180  0.91510  0.19732  Biso   1.000  C
  C40      1.0000 0.72680  0.99880  0.16394  Biso   1.000  C
  C41      1.0000 0.69680  0.96920  0.11548  Biso   1.000  C
  C42      1.0000 0.79690  0.94770  0.24870  Biso   1.000  C
  C43      1.0000 0.75900  0.87490  0.29160  Biso   1.000  C
  C44      1.0000 0.80500  0.90750  0.33790  Biso   1.000  C
  C45      1.0000 0.86800  0.00990  0.34525  Biso   1.000  C
  C46      1.0000 0.90590  0.08010  0.30360  Biso   1.000  C
  C47      1.0000 0.86370  0.04810  0.25650  Biso   1.000  C
  C48      1.0000 0.90610  0.05060  0.39630  Biso   1.000  C
  C49      1.0000 0.60860  0.51420  0.91981  Biso   1.000  C
  C50      1.0000 0.71790  0.43350  0.85310  Biso   1.000  C
  C51      1.0000 0.55550  0.32440  0.89040  Biso   1.000  C
  C52      1.0000 0.89690  0.75460  0.93190  Biso   1.000  C
  C53      1.0000 0.07940  0.75500  0.88530  Biso   1.000  C
  C54      1.0000 0.01070  0.92710  0.93780  Biso   1.000  C
  C55      1.0000 0.88420  0.74850  0.51902  Biso   1.000  C
  C56      1.0000 0.76800  0.67620  0.50780  Biso   1.000  C
  C57      1.0000 0.75850  0.56010  0.52350  Biso   1.000  C
  C58      1.0000 0.65440  0.49100  0.51600  Biso   1.000  C
  C59      1.0000 0.55980  0.53800  0.49260  Biso   1.000  C
  C60      1.0000 0.56940  0.65410  0.47690  Biso   1.000  C
  C61      1.0000 0.67350  0.72320  0.48440  Biso   1.000  C
  C62      1.0000 0.17150  0.81860  0.45224  Biso   1.000  C
  C63      1.0000 0.20060  0.85470  0.40031  Biso   1.000  C
  C64      1.0000 0.23520  0.77080  0.36735  Biso   1.000  C
  C65      1.0000 0.26500  0.80090  0.31890  Biso   1.000  C
  C66      1.0000 0.26180  0.91510  0.30268  Biso   1.000  C
  C67      1.0000 0.22680  0.99880  0.33606  Biso   1.000  C
  C68      1.0000 0.19680  0.96920  0.38452  Biso   1.000  C
  C69      1.0000 0.29690  0.94770  0.25130  Biso   1.000  C
  C70      1.0000 0.25900  0.87490  0.20840  Biso   1.000  C
  C71      1.0000 0.30500  0.90750  0.16210  Biso   1.000  C
  C72      1.0000 0.36800  0.00990  0.15475  Biso   1.000  C
  C73      1.0000 0.40590  0.08010  0.19640  Biso   1.000  C
  C74      1.0000 0.36370  0.04810  0.24350  Biso   1.000  C
  C75      1.0000 0.40610  0.05060  0.10370  Biso   1.000  C
  C76      1.0000 0.10860  0.51420  0.58019  Biso   1.000  C
  C77      1.0000 0.21790  0.43350  0.64690  Biso   1.000  C
  C78      1.0000 0.05550  0.32440  0.60960  Biso   1.000  C
  C79      1.0000 0.39690  0.75460  0.56810  Biso   1.000  C
  C80      1.0000 0.57940  0.75500  0.61470  Biso   1.000  C
  C81      1.0000 0.51070  0.92710  0.56220  Biso   1.000  C
  C82      1.0000 0.61580  0.25150  0.01902  Biso   1.000  C
  C83      1.0000 0.73200  0.32380  0.00780  Biso   1.000  C
  C84      1.0000 0.74150  0.43990  0.02350  Biso   1.000  C
  C85      1.0000 0.84560  0.50900  0.01600  Biso   1.000  C
  C86      1.0000 0.94020  0.46200  0.99260  Biso   1.000  C
  C87      1.0000 0.93060  0.34590  0.97690  Biso   1.000  C
  C88      1.0000 0.82650  0.27680  0.98440  Biso   1.000  C
  C89      1.0000 0.32850  0.18140  0.95224  Biso   1.000  C
  C90      1.0000 0.29940  0.14530  0.90031  Biso   1.000  C
  C91      1.0000 0.26480  0.22920  0.86735  Biso   1.000  C
  C92      1.0000 0.23500  0.19910  0.81890  Biso   1.000  C
  C93      1.0000 0.23820  0.08490  0.80268  Biso   1.000  C
  C94      1.0000 0.27320  0.00120  0.83606  Biso   1.000  C
  C95      1.0000 0.30320  0.03080  0.88452  Biso   1.000  C
  C96      1.0000 0.20310  0.05230  0.75130  Biso   1.000  C
  C97      1.0000 0.24100  0.12510  0.70840  Biso   1.000  C
  C98      1.0000 0.19500  0.09250  0.66210  Biso   1.000  C
  C99      1.0000 0.13200  0.99010  0.65475  Biso   1.000  C
  C100     1.0000 0.09410  0.91990  0.69640  Biso   1.000  C
  C101     1.0000 0.13630  0.95190  0.74350  Biso   1.000  C
  C102     1.0000 0.09390  0.94940  0.60370  Biso   1.000  C
  C103     1.0000 0.39140  0.48580  0.08019  Biso   1.000  C
  C104     1.0000 0.28210  0.56650  0.14690  Biso   1.000  C
  C105     1.0000 0.44450  0.67560  0.10960  Biso   1.000  C
  C106     1.0000 0.10310  0.24540  0.06810  Biso   1.000  C
  C107     1.0000 0.92060  0.24500  0.11470  Biso   1.000  C
  C108     1.0000 0.98930  0.07290  0.06220  Biso   1.000  C
  N1       1.0000 0.87510  0.56940  0.38678  Biso   1.000  N
  N2       1.0000 0.49920  0.18440  0.41610  Biso   1.000  N
  N3       1.0000 0.62490  0.43060  0.88678  Biso   1.000  N
  N4       1.0000 0.00080  0.81560  0.91610  Biso   1.000  N
  N5       1.0000 0.12490  0.43060  0.61322  Biso   1.000  N
  N6       1.0000 0.50080  0.81560  0.58390  Biso   1.000  N
  N7       1.0000 0.37510  0.56940  0.11322  Biso   1.000  N
  N8       1.0000 0.99920  0.18440  0.08390  Biso   1.000  N
  O1       1.0000 0.83146  0.39768  0.42420  Biso   1.000  O
  O2       1.0000 0.81170  0.28399  0.53453  Biso   1.000  O
  O3       1.0000 0.86686  0.10967  0.51705  Biso   1.000  O
  O4       1.0000 0.57700  0.84190  0.90260  Biso   1.000  O
  O5       1.0000 0.02665  0.30904  0.47587  Biso   1.000  O
  O6       1.0000 0.67660  0.20380  0.45840  Biso   1.000  O
  O7       1.0000 0.56312  0.02156  0.92694  Biso   1.000  O
  O8       1.0000 0.11752  0.14269  0.48313  Biso   1.000  O
  O9       1.0000 0.66854  0.60232  0.92420  Biso   1.000  O
  O10      1.0000 0.68830  0.71601  0.03453  Biso   1.000  O
  O11      1.0000 0.63314  0.89033  0.01705  Biso   1.000  O
  O12      1.0000 0.92300  0.15810  0.40260  Biso   1.000  O
  O13      1.0000 0.47335  0.69096  0.97587  Biso   1.000  O
  O14      1.0000 0.82340  0.79620  0.95840  Biso   1.000  O
  O15      1.0000 0.93688  0.97844  0.42694  Biso   1.000  O
  O16      1.0000 0.38248  0.85731  0.98313  Biso   1.000  O
  O17      1.0000 0.16854  0.60232  0.57580  Biso   1.000  O
  O18      1.0000 0.18830  0.71601  0.46547  Biso   1.000  O
  O19      1.0000 0.13314  0.89033  0.48295  Biso   1.000  O
  O20      1.0000 0.42300  0.15810  0.09740  Biso   1.000  O
  O21      1.0000 0.97335  0.69096  0.52413  Biso   1.000  O
  O22      1.0000 0.32340  0.79620  0.54160  Biso   1.000  O
  O23      1.0000 0.43688  0.97844  0.07306  Biso   1.000  O
  O24      1.0000 0.88248  0.85731  0.51687  Biso   1.000  O
  O25      1.0000 0.33146  0.39768  0.07580  Biso   1.000  O
  O26      1.0000 0.31170  0.28399  0.96547  Biso   1.000  O
  O27      1.0000 0.36686  0.10967  0.98295  Biso   1.000  O
  O28      1.0000 0.07700  0.84190  0.59740  Biso   1.000  O
  O29      1.0000 0.52665  0.30904  0.02413  Biso   1.000  O
  O30      1.0000 0.17660  0.20380  0.04160  Biso   1.000  O
  O31      1.0000 0.06312  0.02156  0.57306  Biso   1.000  O
  O32      1.0000 0.61752  0.14269  0.01687  Biso   1.000  O
