data_image0
_cell_length_a       6.2672
_cell_length_b       8.6204
_cell_length_c       12.936
_cell_angle_alpha    105.314
_cell_angle_beta     90.439
_cell_angle_gamma    105.081

_symmetry_space_group_name_H-M    P 1
_symmetry_int_tables_number       1

loop_
  _symmetry_equiv_pos_as_xyz
  'x, y, z'

loop_
  _atom_site_label
  _atom_site_occupancy
  _atom_site_fract_x
  _atom_site_fract_y
  _atom_site_fract_z
  _atom_site_thermal_displace_type
  _atom_site_B_iso_or_equiv
  _atom_site_type_symbol
  Nd1      1.0000 0.80913  0.66646  0.07490  Biso   1.000  Nd
  Nd2      1.0000 0.55756  0.02780  0.25762  Biso   1.000  Nd
  Nd3      1.0000 0.19087  0.33354  0.92510  Biso   1.000  Nd
  Nd4      1.0000 0.44244  0.97220  0.74238  Biso   1.000  Nd
  H1       1.0000 0.98030  0.96950  0.29530  Biso   1.000  H
  H2       1.0000 0.24360  0.18440  0.40310  Biso   1.000  H
  H3       1.0000 0.31410  0.25710  0.31580  Biso   1.000  H
  H4       1.0000 0.01970  0.03050  0.70470  Biso   1.000  H
  H5       1.0000 0.75640  0.81560  0.59690  Biso   1.000  H
  H6       1.0000 0.68590  0.74290  0.68420  Biso   1.000  H
  C1       1.0000 0.94470  0.05190  0.04560  Biso   1.000  C
  C2       1.0000 0.54260  0.30210  0.12840  Biso   1.000  C
  C3       1.0000 0.73120  0.39470  0.21830  Biso   1.000  C
  C4       1.0000 0.40540  0.91840  0.47870  Biso   1.000  C
  C5       1.0000 0.05530  0.94810  0.95440  Biso   1.000  C
  C6       1.0000 0.45740  0.69790  0.87160  Biso   1.000  C
  C7       1.0000 0.26880  0.60530  0.78170  Biso   1.000  C
  C8       1.0000 0.59460  0.08160  0.52130  Biso   1.000  C
  N1       1.0000 0.28430  0.70750  0.13140  Biso   1.000  N
  N2       1.0000 0.71570  0.29250  0.86860  Biso   1.000  N
  O1       1.0000 0.82740  0.97120  0.10350  Biso   1.000  O
  O2       1.0000 0.97910  0.20390  0.05540  Biso   1.000  O
  O3       1.0000 0.44170  0.15630  0.12550  Biso   1.000  O
  O4       1.0000 0.50460  0.38410  0.06580  Biso   1.000  O
  O5       1.0000 0.76530  0.31420  0.28210  Biso   1.000  O
  O6       1.0000 0.83590  0.54020  0.22210  Biso   1.000  O
  O7       1.0000 0.35840  0.86970  0.37950  Biso   1.000  O
  O8       1.0000 0.31630  0.84930  0.54780  Biso   1.000  O
  O9       1.0000 0.20060  0.83180  0.16230  Biso   1.000  O
  O10      1.0000 0.16040  0.56690  0.07530  Biso   1.000  O
  O11      1.0000 0.49000  0.73220  0.16050  Biso   1.000  O
  O12      1.0000 0.85870  0.89790  0.29480  Biso   1.000  O
  O13      1.0000 0.26970  0.16990  0.33740  Biso   1.000  O
  O14      1.0000 0.17260  0.02880  0.89650  Biso   1.000  O
  O15      1.0000 0.02090  0.79610  0.94460  Biso   1.000  O
  O16      1.0000 0.55830  0.84370  0.87450  Biso   1.000  O
  O17      1.0000 0.49540  0.61590  0.93420  Biso   1.000  O
  O18      1.0000 0.23470  0.68580  0.71790  Biso   1.000  O
  O19      1.0000 0.16410  0.45980  0.77790  Biso   1.000  O
  O20      1.0000 0.64160  0.13030  0.62050  Biso   1.000  O
  O21      1.0000 0.68370  0.15070  0.45220  Biso   1.000  O
  O22      1.0000 0.79940  0.16820  0.83770  Biso   1.000  O
  O23      1.0000 0.83960  0.43310  0.92470  Biso   1.000  O
  O24      1.0000 0.51000  0.26780  0.83950  Biso   1.000  O
  O25      1.0000 0.14130  0.10210  0.70520  Biso   1.000  O
  O26      1.0000 0.73030  0.83010  0.66260  Biso   1.000  O
