data_image0
_cell_length_a       7.2891
_cell_length_b       7.2891
_cell_length_c       8.047
_cell_angle_alpha    90
_cell_angle_beta     90
_cell_angle_gamma    120

_symmetry_space_group_name_H-M    "P 1"
_symmetry_int_tables_number       1

loop_
  _symmetry_equiv_pos_as_xyz
  'x, y, z'

loop_
  _atom_site_label
  _atom_site_occupancy
  _atom_site_fract_x
  _atom_site_fract_y
  _atom_site_fract_z
  _atom_site_thermal_displace_type
  _atom_site_B_iso_or_equiv
  _atom_site_type_symbol
  O1       1.0000 0.69030  0.11070  0.10610  Biso   1.000  O
  O2       1.0000 0.88930  0.57960  0.10610  Biso   1.000  O
  O3       1.0000 0.42040  0.30970  0.10610  Biso   1.000  O
  O4       1.0000 0.30970  0.88930  0.60610  Biso   1.000  O
  O5       1.0000 0.11070  0.42040  0.60610  Biso   1.000  O
  O6       1.0000 0.57960  0.69030  0.60610  Biso   1.000  O
  O7       1.0000 0.11070  0.69030  0.89390  Biso   1.000  O
  O8       1.0000 0.57960  0.88930  0.89390  Biso   1.000  O
  O9       1.0000 0.30970  0.42040  0.89390  Biso   1.000  O
  O10      1.0000 0.88930  0.30970  0.39390  Biso   1.000  O
  O11      1.0000 0.42040  0.11070  0.39390  Biso   1.000  O
  O12      1.0000 0.69030  0.57960  0.39390  Biso   1.000  O
  Ni1      1.0000 0.66667  0.33333  0.25000  Biso   1.000  Ni
  Ni2      1.0000 0.33333  0.66667  0.75000  Biso   1.000  Ni
  C1       1.0000 0.55860  0.00000  0.00000  Biso   1.000  C
  H1       1.0000 0.43100  0.00000  0.00000  Biso   1.000  H
  C2       1.0000 0.00000  0.55860  0.00000  Biso   1.000  C
  H2       1.0000 0.00000  0.43100  0.00000  Biso   1.000  H
  C3       1.0000 0.44140  0.44140  0.00000  Biso   1.000  C
  H3       1.0000 0.56900  0.56900  0.00000  Biso   1.000  H
  C4       1.0000 0.44140  0.00000  0.50000  Biso   1.000  C
  H4       1.0000 0.56900  0.00000  0.50000  Biso   1.000  H
  C5       1.0000 0.00000  0.44140  0.50000  Biso   1.000  C
  H5       1.0000 0.00000  0.56900  0.50000  Biso   1.000  H
  C6       1.0000 0.55860  0.55860  0.50000  Biso   1.000  C
  H6       1.0000 0.43100  0.43100  0.50000  Biso   1.000  H
