data_image0
_cell_length_a       7.3578
_cell_length_b       21.9969
_cell_length_c       20.3447
_cell_angle_alpha    90
_cell_angle_beta     90
_cell_angle_gamma    90

_symmetry_space_group_name_H-M    P 1
_symmetry_int_tables_number       1

loop_
  _symmetry_equiv_pos_as_xyz
  'x, y, z'

loop_
  _atom_site_label
  _atom_site_occupancy
  _atom_site_fract_x
  _atom_site_fract_y
  _atom_site_fract_z
  _atom_site_thermal_displace_type
  _atom_site_B_iso_or_equiv
  _atom_site_type_symbol
  Cu1      1.0000 0.57112  0.58738  0.67419  Biso   1.000  Cu
  Cu2      1.0000 0.42888  0.91262  0.67419  Biso   1.000  Cu
  Cu3      1.0000 0.57112  0.41262  0.82581  Biso   1.000  Cu
  Cu4      1.0000 0.42888  0.08738  0.82581  Biso   1.000  Cu
  Cu5      1.0000 0.42888  0.41262  0.32581  Biso   1.000  Cu
  Cu6      1.0000 0.57112  0.08738  0.32581  Biso   1.000  Cu
  Cu7      1.0000 0.42888  0.58738  0.17419  Biso   1.000  Cu
  Cu8      1.0000 0.57112  0.91262  0.17419  Biso   1.000  Cu
  Cu9      1.0000 0.50000  0.50000  0.50000  Biso   1.000  Cu
  Cu10     1.0000 0.50000  0.00000  0.50000  Biso   1.000  Cu
  Cu11     1.0000 0.50000  0.50000  0.00000  Biso   1.000  Cu
  Cu12     1.0000 0.50000  0.00000  0.00000  Biso   1.000  Cu
  Cu13     1.0000 0.00000  0.75000  0.18000  Biso   1.000  Cu
  Cu14     1.0000 0.00000  0.25000  0.32000  Biso   1.000  Cu
  Cu15     1.0000 0.00000  0.25000  0.82000  Biso   1.000  Cu
  Cu16     1.0000 0.00000  0.75000  0.68000  Biso   1.000  Cu
  H1       1.0000 0.20490  0.53180  0.69910  Biso   1.000  H
  H2       1.0000 0.93180  0.51520  0.64810  Biso   1.000  H
  H3       1.0000 0.10820  0.61670  0.49830  Biso   1.000  H
  H4       1.0000 0.37290  0.63190  0.55440  Biso   1.000  H
  H5       1.0000 0.47090  0.56900  0.37600  Biso   1.000  H
  H6       1.0000 0.46530  0.65150  0.29810  Biso   1.000  H
  H7       1.0000 0.61360  0.71180  0.22560  Biso   1.000  H
  H8       1.0000 0.08060  0.66430  0.29480  Biso   1.000  H
  H9       1.0000 0.94650  0.60520  0.37500  Biso   1.000  H
  H10      1.0000 0.79510  0.96820  0.69910  Biso   1.000  H
  H11      1.0000 0.06820  0.98480  0.64810  Biso   1.000  H
  H12      1.0000 0.89180  0.88330  0.49830  Biso   1.000  H
  H13      1.0000 0.62710  0.86810  0.55440  Biso   1.000  H
  H14      1.0000 0.52910  0.93100  0.37600  Biso   1.000  H
  H15      1.0000 0.53470  0.84850  0.29810  Biso   1.000  H
  H16      1.0000 0.38640  0.78820  0.22560  Biso   1.000  H
  H17      1.0000 0.91940  0.83570  0.29480  Biso   1.000  H
  H18      1.0000 0.05350  0.89480  0.37500  Biso   1.000  H
  H19      1.0000 0.20490  0.46820  0.80090  Biso   1.000  H
  H20      1.0000 0.93180  0.48480  0.85190  Biso   1.000  H
  H21      1.0000 0.10820  0.38330  0.00170  Biso   1.000  H
  H22      1.0000 0.37290  0.36810  0.94560  Biso   1.000  H
  H23      1.0000 0.47090  0.43100  0.12400  Biso   1.000  H
  H24      1.0000 0.46530  0.34850  0.20190  Biso   1.000  H
  H25      1.0000 0.61360  0.28820  0.27440  Biso   1.000  H
  H26      1.0000 0.08060  0.33570  0.20520  Biso   1.000  H
  H27      1.0000 0.94650  0.39480  0.12500  Biso   1.000  H
  H28      1.0000 0.79510  0.03180  0.80090  Biso   1.000  H
  H29      1.0000 0.06820  0.01520  0.85190  Biso   1.000  H
  H30      1.0000 0.89180  0.11670  0.00170  Biso   1.000  H
  H31      1.0000 0.62710  0.13190  0.94560  Biso   1.000  H
  H32      1.0000 0.52910  0.06900  0.12400  Biso   1.000  H
  H33      1.0000 0.53470  0.15150  0.20190  Biso   1.000  H
  H34      1.0000 0.38640  0.21180  0.27440  Biso   1.000  H
  H35      1.0000 0.91940  0.16430  0.20520  Biso   1.000  H
  H36      1.0000 0.05350  0.10520  0.12500  Biso   1.000  H
  H37      1.0000 0.79510  0.46820  0.30090  Biso   1.000  H
  H38      1.0000 0.06820  0.48480  0.35190  Biso   1.000  H
  H39      1.0000 0.89180  0.38330  0.50170  Biso   1.000  H
  H40      1.0000 0.62710  0.36810  0.44560  Biso   1.000  H
  H41      1.0000 0.52910  0.43100  0.62400  Biso   1.000  H
  H42      1.0000 0.53470  0.34850  0.70190  Biso   1.000  H
  H43      1.0000 0.38640  0.28820  0.77440  Biso   1.000  H
  H44      1.0000 0.91940  0.33570  0.70520  Biso   1.000  H
  H45      1.0000 0.05350  0.39480  0.62500  Biso   1.000  H
  H46      1.0000 0.20490  0.03180  0.30090  Biso   1.000  H
  H47      1.0000 0.93180  0.01520  0.35190  Biso   1.000  H
  H48      1.0000 0.10820  0.11670  0.50170  Biso   1.000  H
  H49      1.0000 0.37290  0.13190  0.44560  Biso   1.000  H
  H50      1.0000 0.47090  0.06900  0.62400  Biso   1.000  H
  H51      1.0000 0.46530  0.15150  0.70190  Biso   1.000  H
  H52      1.0000 0.61360  0.21180  0.77440  Biso   1.000  H
  H53      1.0000 0.08060  0.16430  0.70520  Biso   1.000  H
  H54      1.0000 0.94650  0.10520  0.62500  Biso   1.000  H
  H55      1.0000 0.79510  0.53180  0.19910  Biso   1.000  H
  H56      1.0000 0.06820  0.51520  0.14810  Biso   1.000  H
  H57      1.0000 0.89180  0.61670  0.99830  Biso   1.000  H
  H58      1.0000 0.62710  0.63190  0.05440  Biso   1.000  H
  H59      1.0000 0.52910  0.56900  0.87600  Biso   1.000  H
  H60      1.0000 0.53470  0.65150  0.79810  Biso   1.000  H
  H61      1.0000 0.38640  0.71180  0.72560  Biso   1.000  H
  H62      1.0000 0.91940  0.66430  0.79480  Biso   1.000  H
  H63      1.0000 0.05350  0.60520  0.87500  Biso   1.000  H
  H64      1.0000 0.20490  0.96820  0.19910  Biso   1.000  H
  H65      1.0000 0.93180  0.98480  0.14810  Biso   1.000  H
  H66      1.0000 0.10820  0.88330  0.99830  Biso   1.000  H
  H67      1.0000 0.37290  0.86810  0.05440  Biso   1.000  H
  H68      1.0000 0.47090  0.93100  0.87600  Biso   1.000  H
  H69      1.0000 0.46530  0.84850  0.79810  Biso   1.000  H
  H70      1.0000 0.61360  0.78820  0.72560  Biso   1.000  H
  H71      1.0000 0.08060  0.83570  0.79480  Biso   1.000  H
  H72      1.0000 0.94650  0.89480  0.87500  Biso   1.000  H
  C1       1.0000 0.59610  0.52022  0.73185  Biso   1.000  C
  C2       1.0000 0.18490  0.54919  0.65806  Biso   1.000  C
  C3       1.0000 0.02050  0.53850  0.62755  Biso   1.000  C
  C4       1.0000 0.98950  0.56282  0.56633  Biso   1.000  C
  C5       1.0000 0.12490  0.59875  0.53920  Biso   1.000  C
  C6       1.0000 0.28360  0.60759  0.57320  Biso   1.000  C
  C7       1.0000 0.81550  0.55033  0.53092  Biso   1.000  C
  C8       1.0000 0.58460  0.58116  0.39107  Biso   1.000  C
  C9       1.0000 0.68710  0.62169  0.34608  Biso   1.000  C
  C10      1.0000 0.59140  0.65401  0.29954  Biso   1.000  C
  C11      1.0000 0.68160  0.68959  0.25566  Biso   1.000  C
  C12      1.0000 0.95440  0.66240  0.29660  Biso   1.000  C
  C13      1.0000 0.87540  0.62600  0.34470  Biso   1.000  C
  C14      1.0000 0.18710  0.69635  0.15290  Biso   1.000  C
  C15      1.0000 0.40390  0.97978  0.73185  Biso   1.000  C
  C16      1.0000 0.81510  0.95081  0.65806  Biso   1.000  C
  C17      1.0000 0.97950  0.96150  0.62755  Biso   1.000  C
  C18      1.0000 0.01050  0.93718  0.56633  Biso   1.000  C
  C19      1.0000 0.87510  0.90125  0.53920  Biso   1.000  C
  C20      1.0000 0.71640  0.89241  0.57320  Biso   1.000  C
  C21      1.0000 0.18450  0.94967  0.53092  Biso   1.000  C
  C22      1.0000 0.41540  0.91884  0.39107  Biso   1.000  C
  C23      1.0000 0.31290  0.87831  0.34608  Biso   1.000  C
  C24      1.0000 0.40860  0.84599  0.29954  Biso   1.000  C
  C25      1.0000 0.31840  0.81041  0.25566  Biso   1.000  C
  C26      1.0000 0.04560  0.83760  0.29660  Biso   1.000  C
  C27      1.0000 0.12460  0.87400  0.34470  Biso   1.000  C
  C28      1.0000 0.81290  0.80365  0.15290  Biso   1.000  C
  C29      1.0000 0.59610  0.47978  0.76815  Biso   1.000  C
  C30      1.0000 0.18490  0.45081  0.84194  Biso   1.000  C
  C31      1.0000 0.02050  0.46150  0.87245  Biso   1.000  C
  C32      1.0000 0.98950  0.43718  0.93367  Biso   1.000  C
  C33      1.0000 0.12490  0.40125  0.96080  Biso   1.000  C
  C34      1.0000 0.28360  0.39241  0.92680  Biso   1.000  C
  C35      1.0000 0.81550  0.44967  0.96908  Biso   1.000  C
  C36      1.0000 0.58460  0.41884  0.10893  Biso   1.000  C
  C37      1.0000 0.68710  0.37831  0.15392  Biso   1.000  C
  C38      1.0000 0.59140  0.34599  0.20046  Biso   1.000  C
  C39      1.0000 0.68160  0.31041  0.24434  Biso   1.000  C
  C40      1.0000 0.95440  0.33760  0.20340  Biso   1.000  C
  C41      1.0000 0.87540  0.37400  0.15530  Biso   1.000  C
  C42      1.0000 0.18710  0.30365  0.34710  Biso   1.000  C
  C43      1.0000 0.40390  0.02022  0.76815  Biso   1.000  C
  C44      1.0000 0.81510  0.04919  0.84194  Biso   1.000  C
  C45      1.0000 0.97950  0.03850  0.87245  Biso   1.000  C
  C46      1.0000 0.01050  0.06282  0.93367  Biso   1.000  C
  C47      1.0000 0.87510  0.09875  0.96080  Biso   1.000  C
  C48      1.0000 0.71640  0.10759  0.92680  Biso   1.000  C
  C49      1.0000 0.18450  0.05033  0.96908  Biso   1.000  C
  C50      1.0000 0.41540  0.08116  0.10893  Biso   1.000  C
  C51      1.0000 0.31290  0.12169  0.15392  Biso   1.000  C
  C52      1.0000 0.40860  0.15401  0.20046  Biso   1.000  C
  C53      1.0000 0.31840  0.18959  0.24434  Biso   1.000  C
  C54      1.0000 0.04560  0.16240  0.20340  Biso   1.000  C
  C55      1.0000 0.12460  0.12600  0.15530  Biso   1.000  C
  C56      1.0000 0.81290  0.19635  0.34710  Biso   1.000  C
  C57      1.0000 0.40390  0.47978  0.26815  Biso   1.000  C
  C58      1.0000 0.81510  0.45081  0.34194  Biso   1.000  C
  C59      1.0000 0.97950  0.46150  0.37245  Biso   1.000  C
  C60      1.0000 0.01050  0.43718  0.43367  Biso   1.000  C
  C61      1.0000 0.87510  0.40125  0.46080  Biso   1.000  C
  C62      1.0000 0.71640  0.39241  0.42680  Biso   1.000  C
  C63      1.0000 0.18450  0.44967  0.46908  Biso   1.000  C
  C64      1.0000 0.41540  0.41884  0.60893  Biso   1.000  C
  C65      1.0000 0.31290  0.37831  0.65392  Biso   1.000  C
  C66      1.0000 0.40860  0.34599  0.70046  Biso   1.000  C
  C67      1.0000 0.31840  0.31041  0.74434  Biso   1.000  C
  C68      1.0000 0.04560  0.33760  0.70340  Biso   1.000  C
  C69      1.0000 0.12460  0.37400  0.65530  Biso   1.000  C
  C70      1.0000 0.81290  0.30365  0.84710  Biso   1.000  C
  C71      1.0000 0.59610  0.02022  0.26815  Biso   1.000  C
  C72      1.0000 0.18490  0.04919  0.34194  Biso   1.000  C
  C73      1.0000 0.02050  0.03850  0.37245  Biso   1.000  C
  C74      1.0000 0.98950  0.06282  0.43367  Biso   1.000  C
  C75      1.0000 0.12490  0.09875  0.46080  Biso   1.000  C
  C76      1.0000 0.28360  0.10759  0.42680  Biso   1.000  C
  C77      1.0000 0.81550  0.05033  0.46908  Biso   1.000  C
  C78      1.0000 0.58460  0.08116  0.60893  Biso   1.000  C
  C79      1.0000 0.68710  0.12169  0.65392  Biso   1.000  C
  C80      1.0000 0.59140  0.15401  0.70046  Biso   1.000  C
  C81      1.0000 0.68160  0.18959  0.74434  Biso   1.000  C
  C82      1.0000 0.95440  0.16240  0.70340  Biso   1.000  C
  C83      1.0000 0.87540  0.12600  0.65530  Biso   1.000  C
  C84      1.0000 0.18710  0.19635  0.84710  Biso   1.000  C
  C85      1.0000 0.40390  0.52022  0.23185  Biso   1.000  C
  C86      1.0000 0.81510  0.54919  0.15806  Biso   1.000  C
  C87      1.0000 0.97950  0.53850  0.12755  Biso   1.000  C
  C88      1.0000 0.01050  0.56282  0.06633  Biso   1.000  C
  C89      1.0000 0.87510  0.59875  0.03920  Biso   1.000  C
  C90      1.0000 0.71640  0.60759  0.07320  Biso   1.000  C
  C91      1.0000 0.18450  0.55033  0.03092  Biso   1.000  C
  C92      1.0000 0.41540  0.58116  0.89107  Biso   1.000  C
  C93      1.0000 0.31290  0.62169  0.84608  Biso   1.000  C
  C94      1.0000 0.40860  0.65401  0.79954  Biso   1.000  C
  C95      1.0000 0.31840  0.68959  0.75566  Biso   1.000  C
  C96      1.0000 0.04560  0.66240  0.79660  Biso   1.000  C
  C97      1.0000 0.12460  0.62600  0.84470  Biso   1.000  C
  C98      1.0000 0.81290  0.69635  0.65290  Biso   1.000  C
  C99      1.0000 0.59610  0.97978  0.23185  Biso   1.000  C
  C100     1.0000 0.18490  0.95081  0.15806  Biso   1.000  C
  C101     1.0000 0.02050  0.96150  0.12755  Biso   1.000  C
  C102     1.0000 0.98950  0.93718  0.06633  Biso   1.000  C
  C103     1.0000 0.12490  0.90125  0.03920  Biso   1.000  C
  C104     1.0000 0.28360  0.89241  0.07320  Biso   1.000  C
  C105     1.0000 0.81550  0.94967  0.03092  Biso   1.000  C
  C106     1.0000 0.58460  0.91884  0.89107  Biso   1.000  C
  C107     1.0000 0.68710  0.87831  0.84608  Biso   1.000  C
  C108     1.0000 0.59140  0.84599  0.79954  Biso   1.000  C
  C109     1.0000 0.68160  0.81041  0.75566  Biso   1.000  C
  C110     1.0000 0.95440  0.83760  0.79660  Biso   1.000  C
  C111     1.0000 0.87540  0.87400  0.84470  Biso   1.000  C
  C112     1.0000 0.18710  0.80365  0.65290  Biso   1.000  C
  N1       1.0000 0.31630  0.58300  0.63211  Biso   1.000  N
  N2       1.0000 0.79440  0.57789  0.47465  Biso   1.000  N
  N3       1.0000 0.62950  0.56065  0.44704  Biso   1.000  N
  N4       1.0000 0.86130  0.69432  0.25340  Biso   1.000  N
  N5       1.0000 0.28850  0.65671  0.15319  Biso   1.000  N
  N6       1.0000 0.68370  0.91700  0.63211  Biso   1.000  N
  N7       1.0000 0.20560  0.92211  0.47465  Biso   1.000  N
  N8       1.0000 0.37050  0.93935  0.44704  Biso   1.000  N
  N9       1.0000 0.13870  0.80568  0.25340  Biso   1.000  N
  N10      1.0000 0.71150  0.84329  0.15319  Biso   1.000  N
  N11      1.0000 0.31630  0.41700  0.86789  Biso   1.000  N
  N12      1.0000 0.79440  0.42211  0.02535  Biso   1.000  N
  N13      1.0000 0.62950  0.43935  0.05296  Biso   1.000  N
  N14      1.0000 0.86130  0.30568  0.24660  Biso   1.000  N
  N15      1.0000 0.28850  0.34329  0.34681  Biso   1.000  N
  N16      1.0000 0.68370  0.08300  0.86789  Biso   1.000  N
  N17      1.0000 0.20560  0.07789  0.02535  Biso   1.000  N
  N18      1.0000 0.37050  0.06065  0.05296  Biso   1.000  N
  N19      1.0000 0.13870  0.19432  0.24660  Biso   1.000  N
  N20      1.0000 0.71150  0.15671  0.34681  Biso   1.000  N
  N21      1.0000 0.68370  0.41700  0.36789  Biso   1.000  N
  N22      1.0000 0.20560  0.42211  0.52535  Biso   1.000  N
  N23      1.0000 0.37050  0.43935  0.55296  Biso   1.000  N
  N24      1.0000 0.13870  0.30568  0.74660  Biso   1.000  N
  N25      1.0000 0.71150  0.34329  0.84681  Biso   1.000  N
  N26      1.0000 0.31630  0.08300  0.36789  Biso   1.000  N
  N27      1.0000 0.79440  0.07789  0.52535  Biso   1.000  N
  N28      1.0000 0.62950  0.06065  0.55296  Biso   1.000  N
  N29      1.0000 0.86130  0.19432  0.74660  Biso   1.000  N
  N30      1.0000 0.28850  0.15671  0.84681  Biso   1.000  N
  N31      1.0000 0.68370  0.58300  0.13211  Biso   1.000  N
  N32      1.0000 0.20560  0.57789  0.97465  Biso   1.000  N
  N33      1.0000 0.37050  0.56065  0.94704  Biso   1.000  N
  N34      1.0000 0.13870  0.69432  0.75340  Biso   1.000  N
  N35      1.0000 0.71150  0.65671  0.65319  Biso   1.000  N
  N36      1.0000 0.31630  0.91700  0.13211  Biso   1.000  N
  N37      1.0000 0.79440  0.92211  0.97465  Biso   1.000  N
  N38      1.0000 0.62950  0.93935  0.94704  Biso   1.000  N
  N39      1.0000 0.86130  0.80568  0.75340  Biso   1.000  N
  N40      1.0000 0.28850  0.84329  0.65319  Biso   1.000  N
  O1       1.0000 0.70420  0.51255  0.55688  Biso   1.000  O
  O2       1.0000 0.29580  0.98745  0.55688  Biso   1.000  O
  O3       1.0000 0.70420  0.48745  0.94312  Biso   1.000  O
  O4       1.0000 0.29580  0.01255  0.94312  Biso   1.000  O
  O5       1.0000 0.29580  0.48745  0.44312  Biso   1.000  O
  O6       1.0000 0.70420  0.01255  0.44312  Biso   1.000  O
  O7       1.0000 0.29580  0.51255  0.05688  Biso   1.000  O
  O8       1.0000 0.70420  0.98745  0.05688  Biso   1.000  O
