data_image0
_cell_length_a       8.68
_cell_length_b       11.0863
_cell_length_c       25.0903
_cell_angle_alpha    90
_cell_angle_beta     90
_cell_angle_gamma    101.55

_symmetry_space_group_name_H-M    P 1
_symmetry_int_tables_number       1

loop_
  _symmetry_equiv_pos_as_xyz
  'x, y, z'

loop_
  _atom_site_label
  _atom_site_occupancy
  _atom_site_fract_x
  _atom_site_fract_y
  _atom_site_fract_z
  _atom_site_thermal_displace_type
  _atom_site_B_iso_or_equiv
  _atom_site_type_symbol
  Yb1      1.0000 0.80809  0.85878  0.59485  Biso   1.000  Yb
  Yb2      1.0000 0.19191  0.14122  0.09485  Biso   1.000  Yb
  Yb3      1.0000 0.19191  0.14122  0.40515  Biso   1.000  Yb
  Yb4      1.0000 0.80809  0.85878  0.90515  Biso   1.000  Yb
  H1       1.0000 0.06920  0.51430  0.62390  Biso   1.000  H
  H2       1.0000 0.19420  0.38180  0.57800  Biso   1.000  H
  H3       1.0000 0.53810  0.01910  0.70420  Biso   1.000  H
  H4       1.0000 0.57740  0.64310  0.62190  Biso   1.000  H
  H5       1.0000 0.49380  0.73060  0.61620  Biso   1.000  H
  H6       1.0000 0.82510  0.03610  0.67480  Biso   1.000  H
  H7       1.0000 0.74740  0.93140  0.70140  Biso   1.000  H
  H8       1.0000 0.91800  0.68170  0.53740  Biso   1.000  H
  H9       1.0000 0.04570  0.74820  0.56310  Biso   1.000  H
  H10      1.0000 0.82780  0.07800  0.52620  Biso   1.000  H
  H11      1.0000 0.94780  0.01890  0.52030  Biso   1.000  H
  H12      1.0000 0.93080  0.48570  0.12390  Biso   1.000  H
  H13      1.0000 0.80580  0.61820  0.07800  Biso   1.000  H
  H14      1.0000 0.46190  0.98090  0.20420  Biso   1.000  H
  H15      1.0000 0.42260  0.35690  0.12190  Biso   1.000  H
  H16      1.0000 0.50620  0.26940  0.11620  Biso   1.000  H
  H17      1.0000 0.17490  0.96390  0.17480  Biso   1.000  H
  H18      1.0000 0.25260  0.06860  0.20140  Biso   1.000  H
  H19      1.0000 0.08200  0.31830  0.03740  Biso   1.000  H
  H20      1.0000 0.95430  0.25180  0.06310  Biso   1.000  H
  H21      1.0000 0.17220  0.92200  0.02620  Biso   1.000  H
  H22      1.0000 0.05220  0.98110  0.02030  Biso   1.000  H
  H23      1.0000 0.93080  0.48570  0.37610  Biso   1.000  H
  H24      1.0000 0.80580  0.61820  0.42200  Biso   1.000  H
  H25      1.0000 0.46190  0.98090  0.29580  Biso   1.000  H
  H26      1.0000 0.42260  0.35690  0.37810  Biso   1.000  H
  H27      1.0000 0.50620  0.26940  0.38380  Biso   1.000  H
  H28      1.0000 0.17490  0.96390  0.32520  Biso   1.000  H
  H29      1.0000 0.25260  0.06860  0.29860  Biso   1.000  H
  H30      1.0000 0.08200  0.31830  0.46260  Biso   1.000  H
  H31      1.0000 0.95430  0.25180  0.43690  Biso   1.000  H
  H32      1.0000 0.17220  0.92200  0.47380  Biso   1.000  H
  H33      1.0000 0.05220  0.98110  0.47970  Biso   1.000  H
  H34      1.0000 0.06920  0.51430  0.87610  Biso   1.000  H
  H35      1.0000 0.19420  0.38180  0.92200  Biso   1.000  H
  H36      1.0000 0.53810  0.01910  0.79580  Biso   1.000  H
  H37      1.0000 0.57740  0.64310  0.87810  Biso   1.000  H
  H38      1.0000 0.49380  0.73060  0.88380  Biso   1.000  H
  H39      1.0000 0.82510  0.03610  0.82520  Biso   1.000  H
  H40      1.0000 0.74740  0.93140  0.79860  Biso   1.000  H
  H41      1.0000 0.91800  0.68170  0.96260  Biso   1.000  H
  H42      1.0000 0.04570  0.74820  0.93690  Biso   1.000  H
  H43      1.0000 0.82780  0.07800  0.97380  Biso   1.000  H
  H44      1.0000 0.94780  0.01890  0.97970  Biso   1.000  H
  Ru1      1.0000 0.38786  0.16443  0.61099  Biso   1.000  Ru
  Ru2      1.0000 0.61214  0.83557  0.11099  Biso   1.000  Ru
  Ru3      1.0000 0.61214  0.83557  0.38901  Biso   1.000  Ru
  Ru4      1.0000 0.38786  0.16443  0.88901  Biso   1.000  Ru
  Ru5      1.0000 0.01155  0.57290  0.75000  Biso   1.000  Ru
  Ru6      1.0000 0.98845  0.42710  0.25000  Biso   1.000  Ru
  C1       1.0000 0.26390  0.30430  0.69390  Biso   1.000  C
  C2       1.0000 0.18950  0.38490  0.72160  Biso   1.000  C
  C3       1.0000 0.11890  0.46140  0.64320  Biso   1.000  C
  C4       1.0000 0.19420  0.37960  0.61500  Biso   1.000  C
  C5       1.0000 0.48630  0.07260  0.72210  Biso   1.000  C
  C6       1.0000 0.34320  0.22240  0.72230  Biso   1.000  C
  C7       1.0000 0.19230  0.03260  0.61320  Biso   1.000  C
  C8       1.0000 0.51330  0.03860  0.59640  Biso   1.000  C
  C9       1.0000 0.65780  0.81390  0.46580  Biso   1.000  C
  C10      1.0000 0.58950  0.29060  0.60020  Biso   1.000  C
  C11      1.0000 0.92620  0.66690  0.69330  Biso   1.000  C
  C12      1.0000 0.73610  0.69570  0.19390  Biso   1.000  C
  C13      1.0000 0.81050  0.61510  0.22160  Biso   1.000  C
  C14      1.0000 0.88110  0.53860  0.14320  Biso   1.000  C
  C15      1.0000 0.80580  0.62040  0.11500  Biso   1.000  C
  C16      1.0000 0.51370  0.92740  0.22210  Biso   1.000  C
  C17      1.0000 0.65680  0.77760  0.22230  Biso   1.000  C
  C18      1.0000 0.80770  0.96740  0.11320  Biso   1.000  C
  C19      1.0000 0.48670  0.96140  0.09640  Biso   1.000  C
  C20      1.0000 0.34220  0.18610  0.96580  Biso   1.000  C
  C21      1.0000 0.41050  0.70940  0.10020  Biso   1.000  C
  C22      1.0000 0.07380  0.33310  0.19330  Biso   1.000  C
  C23      1.0000 0.73610  0.69570  0.30610  Biso   1.000  C
  C24      1.0000 0.81050  0.61510  0.27840  Biso   1.000  C
  C25      1.0000 0.88110  0.53860  0.35680  Biso   1.000  C
  C26      1.0000 0.80580  0.62040  0.38500  Biso   1.000  C
  C27      1.0000 0.51370  0.92740  0.27790  Biso   1.000  C
  C28      1.0000 0.65680  0.77760  0.27770  Biso   1.000  C
  C29      1.0000 0.80770  0.96740  0.38680  Biso   1.000  C
  C30      1.0000 0.48670  0.96140  0.40360  Biso   1.000  C
  C31      1.0000 0.34220  0.18610  0.53420  Biso   1.000  C
  C32      1.0000 0.41050  0.70940  0.39980  Biso   1.000  C
  C33      1.0000 0.07380  0.33310  0.30670  Biso   1.000  C
  C34      1.0000 0.26390  0.30430  0.80610  Biso   1.000  C
  C35      1.0000 0.18950  0.38490  0.77840  Biso   1.000  C
  C36      1.0000 0.11890  0.46140  0.85680  Biso   1.000  C
  C37      1.0000 0.19420  0.37960  0.88500  Biso   1.000  C
  C38      1.0000 0.48630  0.07260  0.77790  Biso   1.000  C
  C39      1.0000 0.34320  0.22240  0.77770  Biso   1.000  C
  C40      1.0000 0.19230  0.03260  0.88680  Biso   1.000  C
  C41      1.0000 0.51330  0.03860  0.90360  Biso   1.000  C
  C42      1.0000 0.65780  0.81390  0.03420  Biso   1.000  C
  C43      1.0000 0.58950  0.29060  0.89980  Biso   1.000  C
  C44      1.0000 0.92620  0.66690  0.80670  Biso   1.000  C
  C45      1.0000 0.82010  0.43810  0.75000  Biso   1.000  C
  C46      1.0000 0.20160  0.70820  0.75000  Biso   1.000  C
  C47      1.0000 0.17990  0.56190  0.25000  Biso   1.000  C
  C48      1.0000 0.79840  0.29180  0.25000  Biso   1.000  C
  N1       1.0000 0.26540  0.29900  0.63960  Biso   1.000  N
  N2       1.0000 0.11580  0.46600  0.69550  Biso   1.000  N
  N3       1.0000 0.41420  0.14720  0.69390  Biso   1.000  N
  N4       1.0000 0.07950  0.95390  0.61200  Biso   1.000  N
  N5       1.0000 0.59240  0.96570  0.59130  Biso   1.000  N
  N6       1.0000 0.68640  0.80380  0.51000  Biso   1.000  N
  N7       1.0000 0.70570  0.35740  0.59010  Biso   1.000  N
  N8       1.0000 0.88180  0.71990  0.65920  Biso   1.000  N
  N9       1.0000 0.73460  0.70100  0.13960  Biso   1.000  N
  N10      1.0000 0.88420  0.53400  0.19550  Biso   1.000  N
  N11      1.0000 0.58580  0.85280  0.19390  Biso   1.000  N
  N12      1.0000 0.92050  0.04610  0.11200  Biso   1.000  N
  N13      1.0000 0.40760  0.03430  0.09130  Biso   1.000  N
  N14      1.0000 0.31360  0.19620  0.01000  Biso   1.000  N
  N15      1.0000 0.29430  0.64260  0.09010  Biso   1.000  N
  N16      1.0000 0.11820  0.28010  0.15920  Biso   1.000  N
  N17      1.0000 0.73460  0.70100  0.36040  Biso   1.000  N
  N18      1.0000 0.88420  0.53400  0.30450  Biso   1.000  N
  N19      1.0000 0.58580  0.85280  0.30610  Biso   1.000  N
  N20      1.0000 0.92050  0.04610  0.38800  Biso   1.000  N
  N21      1.0000 0.40760  0.03430  0.40870  Biso   1.000  N
  N22      1.0000 0.31360  0.19620  0.49000  Biso   1.000  N
  N23      1.0000 0.29430  0.64260  0.40990  Biso   1.000  N
  N24      1.0000 0.11820  0.28010  0.34080  Biso   1.000  N
  N25      1.0000 0.26540  0.29900  0.86040  Biso   1.000  N
  N26      1.0000 0.11580  0.46600  0.80450  Biso   1.000  N
  N27      1.0000 0.41420  0.14720  0.80610  Biso   1.000  N
  N28      1.0000 0.07950  0.95390  0.88800  Biso   1.000  N
  N29      1.0000 0.59240  0.96570  0.90870  Biso   1.000  N
  N30      1.0000 0.68640  0.80380  0.99000  Biso   1.000  N
  N31      1.0000 0.70570  0.35740  0.90990  Biso   1.000  N
  N32      1.0000 0.88180  0.71990  0.84080  Biso   1.000  N
  N33      1.0000 0.71290  0.35790  0.75000  Biso   1.000  N
  N34      1.0000 0.31000  0.79150  0.75000  Biso   1.000  N
  N35      1.0000 0.28710  0.64210  0.25000  Biso   1.000  N
  N36      1.0000 0.69000  0.20850  0.25000  Biso   1.000  N
  O1       1.0000 0.58810  0.72070  0.61900  Biso   1.000  O
  O2       1.0000 0.81120  0.95810  0.67640  Biso   1.000  O
  O3       1.0000 0.96480  0.75450  0.54500  Biso   1.000  O
  O4       1.0000 0.88720  0.03990  0.54360  Biso   1.000  O
  O5       1.0000 0.41190  0.27930  0.11900  Biso   1.000  O
  O6       1.0000 0.18880  0.04190  0.17640  Biso   1.000  O
  O7       1.0000 0.03520  0.24550  0.04500  Biso   1.000  O
  O8       1.0000 0.11280  0.96010  0.04360  Biso   1.000  O
  O9       1.0000 0.41190  0.27930  0.38100  Biso   1.000  O
  O10      1.0000 0.18880  0.04190  0.32360  Biso   1.000  O
  O11      1.0000 0.03520  0.24550  0.45500  Biso   1.000  O
  O12      1.0000 0.11280  0.96010  0.45640  Biso   1.000  O
  O13      1.0000 0.58810  0.72070  0.88100  Biso   1.000  O
  O14      1.0000 0.81120  0.95810  0.82360  Biso   1.000  O
  O15      1.0000 0.96480  0.75450  0.95500  Biso   1.000  O
  O16      1.0000 0.88720  0.03990  0.95640  Biso   1.000  O
