data_image0
_cell_length_a       12.39
_cell_length_b       13.795
_cell_length_c       13.83
_cell_angle_alpha    115.769
_cell_angle_beta     93.914
_cell_angle_gamma    106.918

_symmetry_space_group_name_H-M    P 1
_symmetry_int_tables_number       1

loop_
  _symmetry_equiv_pos_as_xyz
  'x, y, z'

loop_
  _atom_site_label
  _atom_site_occupancy
  _atom_site_fract_x
  _atom_site_fract_y
  _atom_site_fract_z
  _atom_site_thermal_displace_type
  _atom_site_B_iso_or_equiv
  _atom_site_type_symbol
  Eu1      1.0000 0.67393  0.52536  0.53212  Biso   1.000  Eu
  Eu2      1.0000 0.32607  0.47464  0.46788  Biso   1.000  Eu
  H1       1.0000 0.56920  0.17300  0.50550  Biso   1.000  H
  H2       1.0000 0.19640  0.92120  0.36200  Biso   1.000  H
  H3       1.0000 0.24390  0.09480  0.35980  Biso   1.000  H
  H4       1.0000 0.69150  0.59460  0.32800  Biso   1.000  H
  H5       1.0000 0.78180  0.64730  0.20660  Biso   1.000  H
  H6       1.0000 0.38910  0.44090  0.10150  Biso   1.000  H
  H7       1.0000 0.03300  0.90010  0.75960  Biso   1.000  H
  H8       1.0000 0.13350  0.07970  0.78500  Biso   1.000  H
  H9       1.0000 0.89350  0.81570  0.45070  Biso   1.000  H
  H10      1.0000 0.43080  0.82700  0.49450  Biso   1.000  H
  H11      1.0000 0.80360  0.07880  0.63800  Biso   1.000  H
  H12      1.0000 0.75610  0.90520  0.64020  Biso   1.000  H
  H13      1.0000 0.30850  0.40540  0.67200  Biso   1.000  H
  H14      1.0000 0.21820  0.35270  0.79340  Biso   1.000  H
  H15      1.0000 0.61090  0.55910  0.89850  Biso   1.000  H
  H16      1.0000 0.96700  0.09990  0.24040  Biso   1.000  H
  H17      1.0000 0.86650  0.92030  0.21500  Biso   1.000  H
  H18      1.0000 0.10650  0.18430  0.54930  Biso   1.000  H
  C1       1.0000 0.44590  0.27060  0.43910  Biso   1.000  C
  C2       1.0000 0.41150  0.15370  0.43470  Biso   1.000  C
  C3       1.0000 0.49240  0.12330  0.47690  Biso   1.000  C
  C4       1.0000 0.45800  0.01750  0.47620  Biso   1.000  C
  C5       1.0000 0.27250  0.97250  0.39200  Biso   1.000  C
  C6       1.0000 0.30000  0.07740  0.39030  Biso   1.000  C
  C7       1.0000 0.46640  0.48300  0.30630  Biso   1.000  C
  C8       1.0000 0.52980  0.51340  0.22850  Biso   1.000  C
  C9       1.0000 0.64880  0.57480  0.25990  Biso   1.000  C
  C10      1.0000 0.70260  0.60590  0.18580  Biso   1.000  C
  C11      1.0000 0.52960  0.51480  0.05570  Biso   1.000  C
  C12      1.0000 0.46830  0.48220  0.12430  Biso   1.000  C
  C13      1.0000 0.87200  0.72130  0.58220  Biso   1.000  C
  C14      1.0000 0.94920  0.83720  0.60180  Biso   1.000  C
  C15      1.0000 0.02400  0.91820  0.70280  Biso   1.000  C
  C16      1.0000 0.08440  0.02560  0.71670  Biso   1.000  C
  C17      1.0000 0.00510  0.98050  0.54250  Biso   1.000  C
  C18      1.0000 0.94110  0.86870  0.52010  Biso   1.000  C
  C19      1.0000 0.70010  0.18990  0.28870  Biso   1.000  C
  C20      1.0000 0.69600  0.29310  0.14690  Biso   1.000  C
  C21      1.0000 0.02410  0.50170  0.64660  Biso   1.000  C
  C22      1.0000 0.77590  0.36980  0.72230  Biso   1.000  C
  C23      1.0000 0.55410  0.72940  0.56090  Biso   1.000  C
  C24      1.0000 0.58850  0.84630  0.56530  Biso   1.000  C
  C25      1.0000 0.50760  0.87670  0.52310  Biso   1.000  C
  C26      1.0000 0.54200  0.98250  0.52380  Biso   1.000  C
  C27      1.0000 0.72750  0.02750  0.60800  Biso   1.000  C
  C28      1.0000 0.70000  0.92260  0.60970  Biso   1.000  C
  C29      1.0000 0.53360  0.51700  0.69370  Biso   1.000  C
  C30      1.0000 0.47020  0.48660  0.77150  Biso   1.000  C
  C31      1.0000 0.35120  0.42520  0.74010  Biso   1.000  C
  C32      1.0000 0.29740  0.39410  0.81420  Biso   1.000  C
  C33      1.0000 0.47040  0.48520  0.94430  Biso   1.000  C
  C34      1.0000 0.53170  0.51780  0.87570  Biso   1.000  C
  C35      1.0000 0.12800  0.27870  0.41780  Biso   1.000  C
  C36      1.0000 0.05080  0.16280  0.39820  Biso   1.000  C
  C37      1.0000 0.97600  0.08180  0.29720  Biso   1.000  C
  C38      1.0000 0.91560  0.97440  0.28330  Biso   1.000  C
  C39      1.0000 0.99490  0.01950  0.45750  Biso   1.000  C
  C40      1.0000 0.05890  0.13130  0.47990  Biso   1.000  C
  C41      1.0000 0.29990  0.81010  0.71130  Biso   1.000  C
  C42      1.0000 0.30400  0.70690  0.85310  Biso   1.000  C
  C43      1.0000 0.97590  0.49830  0.35340  Biso   1.000  C
  C44      1.0000 0.22410  0.63020  0.27770  Biso   1.000  C
  S1       1.0000 0.87110  0.45670  0.67270  Biso   1.000  S
  S2       1.0000 0.65340  0.28850  0.27350  Biso   1.000  S
  S3       1.0000 0.12890  0.54330  0.32730  Biso   1.000  S
  S4       1.0000 0.34660  0.71150  0.72650  Biso   1.000  S
  N1       1.0000 0.34750  0.94170  0.43330  Biso   1.000  N
  N2       1.0000 0.64410  0.57820  0.08610  Biso   1.000  N
  N3       1.0000 0.07780  0.05820  0.63940  Biso   1.000  N
  N4       1.0000 0.65250  0.05830  0.56670  Biso   1.000  N
  N5       1.0000 0.35590  0.42180  0.91390  Biso   1.000  N
  N6       1.0000 0.92220  0.94180  0.36060  Biso   1.000  N
  O1       1.0000 0.55250  0.33160  0.47610  Biso   1.000  O
  O2       1.0000 0.36740  0.29770  0.40940  Biso   1.000  O
  O3       1.0000 0.52630  0.49490  0.39110  Biso   1.000  O
  O4       1.0000 0.35950  0.45060  0.28630  Biso   1.000  O
  O5       1.0000 0.85930  0.70010  0.66020  Biso   1.000  O
  O6       1.0000 0.81760  0.64850  0.48460  Biso   1.000  O
  O7       1.0000 0.80210  0.44730  0.58150  Biso   1.000  O
  O8       1.0000 0.71780  0.40580  0.36210  Biso   1.000  O
  O9       1.0000 0.44750  0.66840  0.52390  Biso   1.000  O
  O10      1.0000 0.63260  0.70230  0.59060  Biso   1.000  O
  O11      1.0000 0.47370  0.50510  0.60890  Biso   1.000  O
  O12      1.0000 0.64050  0.54940  0.71370  Biso   1.000  O
  O13      1.0000 0.14070  0.29990  0.33980  Biso   1.000  O
  O14      1.0000 0.18240  0.35150  0.51540  Biso   1.000  O
  O15      1.0000 0.19790  0.55270  0.41850  Biso   1.000  O
  O16      1.0000 0.28220  0.59420  0.63790  Biso   1.000  O
