data_JITPOS_clean
_audit_creation_date              2015-05-15
_audit_creation_method            'Materials Studio'
_symmetry_space_group_name_H-M    'P1'
_symmetry_Int_Tables_number       1
_symmetry_cell_setting            triclinic
loop_
_symmetry_equiv_pos_as_xyz
  x,y,z
_cell_length_a                    23.1451
_cell_length_b                    27.3976
_cell_length_c                    10.5482
_cell_angle_alpha                 90.0000
_cell_angle_beta                  90.0000
_cell_angle_gamma                 90.0000
loop_
_atom_site_label
_atom_site_type_symbol
_atom_site_fract_x
_atom_site_fract_y
_atom_site_fract_z
_atom_site_U_iso_or_equiv
_atom_site_adp_type
_atom_site_occupancy
Zn1    Zn   -0.19572   0.95855  -0.41321   0.01267  Uiso   1.00
Zn2    Zn   -0.26938   0.04152  -0.56242   0.01267  Uiso   1.00
Zn3    Zn   -0.22913   0.04411  -0.24291   0.01267  Uiso   1.00
H4     H    -0.29600   0.95100  -0.50500   0.01267  Uiso   1.00
H5     H    -0.95620   0.08310  -0.04930   0.01267  Uiso   1.00
H6     H    -0.01800   0.94900  -0.27930   0.01267  Uiso   1.00
H7     H    -0.18760   0.12990  -0.56080   0.01267  Uiso   1.00
H8     H    -0.15290   0.12900  -0.20830   0.01267  Uiso   1.00
H9     H    -0.05270   0.07430  -0.09950   0.01267  Uiso   1.00
H10    H    -0.10870   0.87210  -0.41580   0.01267  Uiso   1.00
H11    H    -0.35540   0.12780  -0.58800   0.01267  Uiso   1.00
H12    H    -0.35870   0.21220  -0.59180   0.01267  Uiso   1.00
H13    H    -0.27920   0.78730  -0.39440   0.01267  Uiso   1.00
H14    H    -0.18600   0.21330  -0.55750   0.01267  Uiso   1.00
H15    H    -0.31970   0.12900  -0.25410   0.01267  Uiso   1.00
H16    H    -0.10510   0.78850  -0.42090   0.01267  Uiso   1.00
H17    H    -0.27720   0.87040  -0.39290   0.01267  Uiso   1.00
H18    H    -0.15130   0.21230  -0.20020   0.01267  Uiso   1.00
H19    H    -0.32210   0.21260  -0.25270   0.01267  Uiso   1.00
C20    C    -0.86470   0.03340  -0.11190   0.01267  Uiso   1.00
C21    C    -0.04460   0.01160  -0.19900   0.01267  Uiso   1.00
C22    C    -0.94710   0.98070  -0.20380   0.01267  Uiso   1.00
C23    C    -0.19210   0.77630  -0.40830   0.01267  Uiso   1.00
C24    C    -0.92730   0.02270  -0.13940   0.01267  Uiso   1.00
C25    C    -0.23660   0.22320  -0.22950   0.01267  Uiso   1.00
C26    C    -0.27270   0.22340  -0.57540   0.01267  Uiso   1.00
C27    C    -0.10730   0.00750  -0.24100   0.01267  Uiso   1.00
C28    C    -0.96810   0.05630  -0.09820   0.01267  Uiso   1.00
C29    C    -0.00520   0.97650  -0.23400   0.01267  Uiso   1.00
C30    C    -0.22290   0.14670  -0.56520   0.01267  Uiso   1.00
C31    C    -0.18780   0.14600  -0.21890   0.01267  Uiso   1.00
C32    C    -0.02590   0.05100  -0.12790   0.01267  Uiso   1.00
C33    C    -0.14360   0.85470  -0.41200   0.01267  Uiso   1.00
C34    C    -0.32050   0.14520  -0.58180   0.01267  Uiso   1.00
C35    C    -0.32290   0.19630  -0.58420   0.01267  Uiso   1.00
C36    C    -0.24350   0.80350  -0.39950   0.01267  Uiso   1.00
C37    C    -0.22150   0.19690  -0.56490   0.01267  Uiso   1.00
C38    C    -0.28470   0.14620  -0.24620   0.01267  Uiso   1.00
C39    C    -0.14110   0.80430  -0.41470   0.01267  Uiso   1.00
C40    C    -0.24190   0.85360  -0.39830   0.01267  Uiso   1.00
C41    C    -0.18650   0.19620  -0.21410   0.01267  Uiso   1.00
C42    C    -0.28650   0.19640  -0.24410   0.01267  Uiso   1.00
S43    S    -0.90010   0.93232  -0.24720   0.01267  Uiso   1.00
N44    N    -0.23540   0.12060  -0.23750   0.01267  Uiso   1.00
N45    N    -0.19320   0.88040  -0.40430   0.01267  Uiso   1.00
N46    N    -0.27190   0.12010  -0.57150   0.01267  Uiso   1.00
O47    O    -0.20820   0.03793  -0.43200   0.01267  Uiso   1.00
O48    O    -0.24330   0.96909  -0.24630   0.01267  Uiso   1.00
O49    O    -0.13980   0.04253  -0.20970   0.01267  Uiso   1.00
O50    O    -0.85140   0.03727  -0.99690   0.01267  Uiso   1.00
O51    O    -0.83120   0.04066  -0.20260   0.01267  Uiso   1.00
O52    O    -0.12090   0.97017  -0.30390   0.01267  Uiso   1.00
O53    O    -0.26120   0.96160  -0.54790   0.01267  Uiso   1.00
O54    O    -0.93560   0.88850  -0.24510   0.01267  Uiso   1.00
O55    O    -0.87950   0.94280  -0.37490   0.01267  Uiso   1.00
O56    O    -0.85430   0.93160  -0.15440   0.01267  Uiso   1.00
H57    H    -0.21349   0.46909  -0.74630   0.01267  Uiso   1.00
H58    H    -0.16499   0.46207  -0.43200   0.01267  Uiso   1.00
Zn59   Zn   -0.30428   0.04145  -0.91321   0.01267  Uiso   1.00
Zn60   Zn   -0.23062   0.95848  -0.06242   0.01267  Uiso   1.00
Zn61   Zn   -0.27087   0.95589  -0.74291   0.01267  Uiso   1.00
H62    H    -0.20400   0.04900  -0.00500   0.01267  Uiso   1.00
H63    H    -0.54380   0.91690  -0.54930   0.01267  Uiso   1.00
H64    H    -0.48200   0.05100  -0.77930   0.01267  Uiso   1.00
H65    H    -0.31240   0.87010  -0.06080   0.01267  Uiso   1.00
H66    H    -0.34710   0.87100  -0.70830   0.01267  Uiso   1.00
H67    H    -0.44730   0.92570  -0.59950   0.01267  Uiso   1.00
H68    H    -0.39130   0.12790  -0.91580   0.01267  Uiso   1.00
H69    H    -0.14460   0.87220  -0.08800   0.01267  Uiso   1.00
H70    H    -0.14130   0.78780  -0.09180   0.01267  Uiso   1.00
H71    H    -0.22080   0.21270  -0.89440   0.01267  Uiso   1.00
H72    H    -0.31400   0.78670  -0.05750   0.01267  Uiso   1.00
H73    H    -0.18030   0.87100  -0.75410   0.01267  Uiso   1.00
H74    H    -0.39490   0.21150  -0.92090   0.01267  Uiso   1.00
H75    H    -0.22280   0.12960  -0.89290   0.01267  Uiso   1.00
H76    H    -0.34870   0.78770  -0.70020   0.01267  Uiso   1.00
H77    H    -0.17790   0.78740  -0.75270   0.01267  Uiso   1.00
C78    C    -0.63530   0.96660  -0.61190   0.01267  Uiso   1.00
C79    C    -0.45540   0.98840  -0.69900   0.01267  Uiso   1.00
C80    C    -0.55290   0.01930  -0.70380   0.01267  Uiso   1.00
C81    C    -0.30790   0.22370  -0.90830   0.01267  Uiso   1.00
C82    C    -0.57270   0.97730  -0.63940   0.01267  Uiso   1.00
C83    C    -0.26340   0.77680  -0.72950   0.01267  Uiso   1.00
C84    C    -0.22730   0.77660  -0.07540   0.01267  Uiso   1.00
C85    C    -0.39270   0.99250  -0.74100   0.01267  Uiso   1.00
C86    C    -0.53190   0.94370  -0.59820   0.01267  Uiso   1.00
C87    C    -0.49480   0.02350  -0.73400   0.01267  Uiso   1.00
C88    C    -0.27710   0.85330  -0.06520   0.01267  Uiso   1.00
C89    C    -0.31220   0.85400  -0.71890   0.01267  Uiso   1.00
C90    C    -0.47410   0.94900  -0.62790   0.01267  Uiso   1.00
C91    C    -0.35640   0.14530  -0.91200   0.01267  Uiso   1.00
C92    C    -0.17950   0.85480  -0.08180   0.01267  Uiso   1.00
C93    C    -0.17710   0.80370  -0.08420   0.01267  Uiso   1.00
C94    C    -0.25650   0.19650  -0.89950   0.01267  Uiso   1.00
C95    C    -0.27850   0.80310  -0.06490   0.01267  Uiso   1.00
C96    C    -0.21530   0.85380  -0.74620   0.01267  Uiso   1.00
C97    C    -0.35890   0.19570  -0.91470   0.01267  Uiso   1.00
C98    C    -0.25810   0.14640  -0.89830   0.01267  Uiso   1.00
C99    C    -0.31350   0.80380  -0.71410   0.01267  Uiso   1.00
C100   C    -0.21350   0.80360  -0.74410   0.01267  Uiso   1.00
S101   S    -0.59990   0.06768  -0.74720   0.01267  Uiso   1.00
N102   N    -0.26460   0.87940  -0.73750   0.01267  Uiso   1.00
N103   N    -0.30680   0.11960  -0.90430   0.01267  Uiso   1.00
N104   N    -0.22810   0.87990  -0.07150   0.01267  Uiso   1.00
O105   O    -0.29180   0.96207  -0.93200   0.01267  Uiso   1.00
O106   O    -0.25670   0.03091  -0.74630   0.01267  Uiso   1.00
O107   O    -0.36020   0.95747  -0.70970   0.01267  Uiso   1.00
O108   O    -0.64860   0.96273  -0.49690   0.01267  Uiso   1.00
O109   O    -0.66880   0.95934  -0.70260   0.01267  Uiso   1.00
O110   O    -0.37910   0.02983  -0.80390   0.01267  Uiso   1.00
O111   O    -0.23880   0.03840  -0.04790   0.01267  Uiso   1.00
O112   O    -0.56440   0.11150  -0.74510   0.01267  Uiso   1.00
O113   O    -0.62050   0.05720  -0.87490   0.01267  Uiso   1.00
O114   O    -0.64570   0.06840  -0.65440   0.01267  Uiso   1.00
H115   H    -0.28651   0.53091  -0.24630   0.01267  Uiso   1.00
H116   H    -0.33501   0.53793  -0.93200   0.01267  Uiso   1.00
Zn117  Zn   -0.80428   0.45855  -0.58679   0.01267  Uiso   1.00
Zn118  Zn   -0.73062   0.54152  -0.43758   0.01267  Uiso   1.00
Zn119  Zn   -0.77087   0.54411  -0.75709   0.01267  Uiso   1.00
H120   H    -0.70400   0.45100  -0.49500   0.01267  Uiso   1.00
H121   H    -0.04380   0.58310  -0.95070   0.01267  Uiso   1.00
H122   H    -0.98200   0.44900  -0.72070   0.01267  Uiso   1.00
H123   H    -0.81240   0.62990  -0.43920   0.01267  Uiso   1.00
H124   H    -0.84710   0.62900  -0.79170   0.01267  Uiso   1.00
H125   H    -0.94730   0.57430  -0.90050   0.01267  Uiso   1.00
H126   H    -0.89130   0.37210  -0.58420   0.01267  Uiso   1.00
H127   H    -0.64460   0.62780  -0.41200   0.01267  Uiso   1.00
H128   H    -0.64130   0.71220  -0.40820   0.01267  Uiso   1.00
H129   H    -0.72080   0.28730  -0.60560   0.01267  Uiso   1.00
H130   H    -0.81400   0.71330  -0.44250   0.01267  Uiso   1.00
H131   H    -0.68030   0.62900  -0.74590   0.01267  Uiso   1.00
H132   H    -0.89490   0.28850  -0.57910   0.01267  Uiso   1.00
H133   H    -0.72280   0.37040  -0.60710   0.01267  Uiso   1.00
H134   H    -0.84870   0.71230  -0.79980   0.01267  Uiso   1.00
H135   H    -0.67790   0.71260  -0.74730   0.01267  Uiso   1.00
C136   C    -0.13530   0.53340  -0.88810   0.01267  Uiso   1.00
C137   C    -0.95540   0.51160  -0.80100   0.01267  Uiso   1.00
C138   C    -0.05290   0.48070  -0.79620   0.01267  Uiso   1.00
C139   C    -0.80790   0.27630  -0.59170   0.01267  Uiso   1.00
C140   C    -0.07270   0.52270  -0.86060   0.01267  Uiso   1.00
C141   C    -0.76340   0.72320  -0.77050   0.01267  Uiso   1.00
C142   C    -0.72730   0.72340  -0.42460   0.01267  Uiso   1.00
C143   C    -0.89270   0.50750  -0.75900   0.01267  Uiso   1.00
C144   C    -0.03190   0.55630  -0.90180   0.01267  Uiso   1.00
C145   C    -0.99480   0.47650  -0.76600   0.01267  Uiso   1.00
C146   C    -0.77710   0.64670  -0.43480   0.01267  Uiso   1.00
C147   C    -0.81220   0.64600  -0.78110   0.01267  Uiso   1.00
C148   C    -0.97410   0.55100  -0.87210   0.01267  Uiso   1.00
C149   C    -0.85640   0.35470  -0.58800   0.01267  Uiso   1.00
C150   C    -0.67950   0.64520  -0.41820   0.01267  Uiso   1.00
C151   C    -0.67710   0.69630  -0.41580   0.01267  Uiso   1.00
C152   C    -0.75650   0.30350  -0.60050   0.01267  Uiso   1.00
C153   C    -0.77850   0.69690  -0.43510   0.01267  Uiso   1.00
C154   C    -0.71530   0.64620  -0.75380   0.01267  Uiso   1.00
C155   C    -0.85890   0.30430  -0.58530   0.01267  Uiso   1.00
C156   C    -0.75810   0.35360  -0.60170   0.01267  Uiso   1.00
C157   C    -0.81350   0.69620  -0.78590   0.01267  Uiso   1.00
C158   C    -0.71350   0.69640  -0.75590   0.01267  Uiso   1.00
S159   S    -0.09990   0.43232  -0.75280   0.01267  Uiso   1.00
N160   N    -0.76460   0.62060  -0.76250   0.01267  Uiso   1.00
N161   N    -0.80680   0.38040  -0.59570   0.01267  Uiso   1.00
N162   N    -0.72810   0.62010  -0.42850   0.01267  Uiso   1.00
O163   O    -0.79180   0.53793  -0.56800   0.01267  Uiso   1.00
O164   O    -0.75670   0.46909  -0.75370   0.01267  Uiso   1.00
O165   O    -0.86020   0.54253  -0.79030   0.01267  Uiso   1.00
O166   O    -0.14860   0.53727  -0.00310   0.01267  Uiso   1.00
O167   O    -0.16880   0.54066  -0.79740   0.01267  Uiso   1.00
O168   O    -0.87910   0.47017  -0.69610   0.01267  Uiso   1.00
O169   O    -0.73880   0.46160  -0.45210   0.01267  Uiso   1.00
O170   O    -0.06440   0.38850  -0.75490   0.01267  Uiso   1.00
O171   O    -0.12050   0.44280  -0.62510   0.01267  Uiso   1.00
O172   O    -0.14570   0.43160  -0.84560   0.01267  Uiso   1.00
H173   H    -0.78651   0.96909  -0.25370   0.01267  Uiso   1.00
H174   H    -0.83501   0.96207  -0.56800   0.01267  Uiso   1.00
Zn175  Zn   -0.69572   0.54145  -0.08679   0.01267  Uiso   1.00
Zn176  Zn   -0.76938   0.45848  -0.93758   0.01267  Uiso   1.00
Zn177  Zn   -0.72913   0.45589  -0.25709   0.01267  Uiso   1.00
H178   H    -0.79600   0.54900  -0.99500   0.01267  Uiso   1.00
H179   H    -0.45620   0.41690  -0.45070   0.01267  Uiso   1.00
H180   H    -0.51800   0.55100  -0.22070   0.01267  Uiso   1.00
H181   H    -0.68760   0.37010  -0.93920   0.01267  Uiso   1.00
H182   H    -0.65290   0.37100  -0.29170   0.01267  Uiso   1.00
H183   H    -0.55270   0.42570  -0.40050   0.01267  Uiso   1.00
H184   H    -0.60870   0.62790  -0.08420   0.01267  Uiso   1.00
H185   H    -0.85540   0.37220  -0.91200   0.01267  Uiso   1.00
H186   H    -0.85870   0.28780  -0.90820   0.01267  Uiso   1.00
H187   H    -0.77920   0.71270  -0.10560   0.01267  Uiso   1.00
H188   H    -0.68600   0.28670  -0.94250   0.01267  Uiso   1.00
H189   H    -0.81970   0.37100  -0.24590   0.01267  Uiso   1.00
H190   H    -0.60510   0.71150  -0.07910   0.01267  Uiso   1.00
H191   H    -0.77720   0.62960  -0.10710   0.01267  Uiso   1.00
H192   H    -0.65130   0.28770  -0.29980   0.01267  Uiso   1.00
H193   H    -0.82210   0.28740  -0.24730   0.01267  Uiso   1.00
C194   C    -0.36470   0.46660  -0.38810   0.01267  Uiso   1.00
C195   C    -0.54460   0.48840  -0.30100   0.01267  Uiso   1.00
C196   C    -0.44710   0.51930  -0.29620   0.01267  Uiso   1.00
C197   C    -0.69210   0.72370  -0.09170   0.01267  Uiso   1.00
C198   C    -0.42730   0.47730  -0.36060   0.01267  Uiso   1.00
C199   C    -0.73660   0.27680  -0.27050   0.01267  Uiso   1.00
C200   C    -0.77270   0.27660  -0.92460   0.01267  Uiso   1.00
C201   C    -0.60730   0.49250  -0.25900   0.01267  Uiso   1.00
C202   C    -0.46810   0.44370  -0.40180   0.01267  Uiso   1.00
C203   C    -0.50520   0.52350  -0.26600   0.01267  Uiso   1.00
C204   C    -0.72290   0.35330  -0.93480   0.01267  Uiso   1.00
C205   C    -0.68780   0.35400  -0.28110   0.01267  Uiso   1.00
C206   C    -0.52590   0.44900  -0.37210   0.01267  Uiso   1.00
C207   C    -0.64360   0.64530  -0.08800   0.01267  Uiso   1.00
C208   C    -0.82050   0.35480  -0.91820   0.01267  Uiso   1.00
C209   C    -0.82290   0.30370  -0.91580   0.01267  Uiso   1.00
C210   C    -0.74350   0.69650  -0.10050   0.01267  Uiso   1.00
C211   C    -0.72150   0.30310  -0.93510   0.01267  Uiso   1.00
C212   C    -0.78470   0.35380  -0.25380   0.01267  Uiso   1.00
C213   C    -0.64110   0.69570  -0.08530   0.01267  Uiso   1.00
C214   C    -0.74190   0.64640  -0.10170   0.01267  Uiso   1.00
C215   C    -0.68650   0.30380  -0.28590   0.01267  Uiso   1.00
C216   C    -0.78650   0.30360  -0.25590   0.01267  Uiso   1.00
S217   S    -0.40010   0.56768  -0.25280   0.01267  Uiso   1.00
N218   N    -0.73540   0.37940  -0.26250   0.01267  Uiso   1.00
N219   N    -0.69320   0.61960  -0.09570   0.01267  Uiso   1.00
N220   N    -0.77190   0.37990  -0.92850   0.01267  Uiso   1.00
O221   O    -0.70820   0.46207  -0.06800   0.01267  Uiso   1.00
O222   O    -0.74330   0.53091  -0.25370   0.01267  Uiso   1.00
O223   O    -0.63980   0.45747  -0.29030   0.01267  Uiso   1.00
O224   O    -0.35140   0.46273  -0.50310   0.01267  Uiso   1.00
O225   O    -0.33120   0.45934  -0.29740   0.01267  Uiso   1.00
O226   O    -0.62090   0.52983  -0.19610   0.01267  Uiso   1.00
O227   O    -0.76120   0.53840  -0.95210   0.01267  Uiso   1.00
O228   O    -0.43560   0.61150  -0.25490   0.01267  Uiso   1.00
O229   O    -0.37950   0.55720  -0.12510   0.01267  Uiso   1.00
O230   O    -0.35430   0.56840  -0.34560   0.01267  Uiso   1.00
H231   H    -0.71349   0.03091  -0.75370   0.01267  Uiso   1.00
H232   H    -0.66499   0.03793  -0.06800   0.01267  Uiso   1.00
Zn233  Zn   -0.80428   0.04145  -0.58679   0.01267  Uiso   1.00
Zn234  Zn   -0.73062   0.95848  -0.43758   0.01267  Uiso   1.00
Zn235  Zn   -0.77087   0.95589  -0.75709   0.01267  Uiso   1.00
H236   H    -0.70400   0.04900  -0.49500   0.01267  Uiso   1.00
H237   H    -0.04380   0.91690  -0.95070   0.01267  Uiso   1.00
H238   H    -0.98200   0.05100  -0.72070   0.01267  Uiso   1.00
H239   H    -0.81240   0.87010  -0.43920   0.01267  Uiso   1.00
H240   H    -0.84710   0.87100  -0.79170   0.01267  Uiso   1.00
H241   H    -0.94730   0.92570  -0.90050   0.01267  Uiso   1.00
H242   H    -0.89130   0.12790  -0.58420   0.01267  Uiso   1.00
H243   H    -0.64460   0.87220  -0.41200   0.01267  Uiso   1.00
H244   H    -0.64130   0.78780  -0.40820   0.01267  Uiso   1.00
H245   H    -0.72080   0.21270  -0.60560   0.01267  Uiso   1.00
H246   H    -0.81400   0.78670  -0.44250   0.01267  Uiso   1.00
H247   H    -0.68030   0.87100  -0.74590   0.01267  Uiso   1.00
H248   H    -0.89490   0.21150  -0.57910   0.01267  Uiso   1.00
H249   H    -0.72280   0.12960  -0.60710   0.01267  Uiso   1.00
H250   H    -0.84870   0.78770  -0.79980   0.01267  Uiso   1.00
H251   H    -0.67790   0.78740  -0.74730   0.01267  Uiso   1.00
C252   C    -0.13530   0.96660  -0.88810   0.01267  Uiso   1.00
C253   C    -0.95540   0.98840  -0.80100   0.01267  Uiso   1.00
C254   C    -0.05290   0.01930  -0.79620   0.01267  Uiso   1.00
C255   C    -0.80790   0.22370  -0.59170   0.01267  Uiso   1.00
C256   C    -0.07270   0.97730  -0.86060   0.01267  Uiso   1.00
C257   C    -0.76340   0.77680  -0.77050   0.01267  Uiso   1.00
C258   C    -0.72730   0.77660  -0.42460   0.01267  Uiso   1.00
C259   C    -0.89270   0.99250  -0.75900   0.01267  Uiso   1.00
C260   C    -0.03190   0.94370  -0.90180   0.01267  Uiso   1.00
C261   C    -0.99480   0.02350  -0.76600   0.01267  Uiso   1.00
C262   C    -0.77710   0.85330  -0.43480   0.01267  Uiso   1.00
C263   C    -0.81220   0.85400  -0.78110   0.01267  Uiso   1.00
C264   C    -0.97410   0.94900  -0.87210   0.01267  Uiso   1.00
C265   C    -0.85640   0.14530  -0.58800   0.01267  Uiso   1.00
C266   C    -0.67950   0.85480  -0.41820   0.01267  Uiso   1.00
C267   C    -0.67710   0.80370  -0.41580   0.01267  Uiso   1.00
C268   C    -0.75650   0.19650  -0.60050   0.01267  Uiso   1.00
C269   C    -0.77850   0.80310  -0.43510   0.01267  Uiso   1.00
C270   C    -0.71530   0.85380  -0.75380   0.01267  Uiso   1.00
C271   C    -0.85890   0.19570  -0.58530   0.01267  Uiso   1.00
C272   C    -0.75810   0.14640  -0.60170   0.01267  Uiso   1.00
C273   C    -0.81350   0.80380  -0.78590   0.01267  Uiso   1.00
C274   C    -0.71350   0.80360  -0.75590   0.01267  Uiso   1.00
S275   S    -0.09990   0.06768  -0.75280   0.01267  Uiso   1.00
N276   N    -0.76460   0.87940  -0.76250   0.01267  Uiso   1.00
N277   N    -0.80680   0.11960  -0.59570   0.01267  Uiso   1.00
N278   N    -0.72810   0.87990  -0.42850   0.01267  Uiso   1.00
O279   O    -0.79180   0.96207  -0.56800   0.01267  Uiso   1.00
O280   O    -0.75670   0.03091  -0.75370   0.01267  Uiso   1.00
O281   O    -0.86020   0.95747  -0.79030   0.01267  Uiso   1.00
O282   O    -0.14860   0.96273  -0.00310   0.01267  Uiso   1.00
O283   O    -0.16880   0.95934  -0.79740   0.01267  Uiso   1.00
O284   O    -0.87910   0.02983  -0.69610   0.01267  Uiso   1.00
O285   O    -0.73880   0.03840  -0.45210   0.01267  Uiso   1.00
O286   O    -0.06440   0.11150  -0.75490   0.01267  Uiso   1.00
O287   O    -0.12050   0.05720  -0.62510   0.01267  Uiso   1.00
O288   O    -0.14570   0.06840  -0.84560   0.01267  Uiso   1.00
H289   H    -0.78651   0.53091  -0.25370   0.01267  Uiso   1.00
H290   H    -0.83501   0.53793  -0.56800   0.01267  Uiso   1.00
Zn291  Zn   -0.69572   0.95855  -0.08679   0.01267  Uiso   1.00
Zn292  Zn   -0.76938   0.04152  -0.93758   0.01267  Uiso   1.00
Zn293  Zn   -0.72913   0.04411  -0.25709   0.01267  Uiso   1.00
H294   H    -0.79600   0.95100  -0.99500   0.01267  Uiso   1.00
H295   H    -0.45620   0.08310  -0.45070   0.01267  Uiso   1.00
H296   H    -0.51800   0.94900  -0.22070   0.01267  Uiso   1.00
H297   H    -0.68760   0.12990  -0.93920   0.01267  Uiso   1.00
H298   H    -0.65290   0.12900  -0.29170   0.01267  Uiso   1.00
H299   H    -0.55270   0.07430  -0.40050   0.01267  Uiso   1.00
H300   H    -0.60870   0.87210  -0.08420   0.01267  Uiso   1.00
H301   H    -0.85540   0.12780  -0.91200   0.01267  Uiso   1.00
H302   H    -0.85870   0.21220  -0.90820   0.01267  Uiso   1.00
H303   H    -0.77920   0.78730  -0.10560   0.01267  Uiso   1.00
H304   H    -0.68600   0.21330  -0.94250   0.01267  Uiso   1.00
H305   H    -0.81970   0.12900  -0.24590   0.01267  Uiso   1.00
H306   H    -0.60510   0.78850  -0.07910   0.01267  Uiso   1.00
H307   H    -0.77720   0.87040  -0.10710   0.01267  Uiso   1.00
H308   H    -0.65130   0.21230  -0.29980   0.01267  Uiso   1.00
H309   H    -0.82210   0.21260  -0.24730   0.01267  Uiso   1.00
C310   C    -0.36470   0.03340  -0.38810   0.01267  Uiso   1.00
C311   C    -0.54460   0.01160  -0.30100   0.01267  Uiso   1.00
C312   C    -0.44710   0.98070  -0.29620   0.01267  Uiso   1.00
C313   C    -0.69210   0.77630  -0.09170   0.01267  Uiso   1.00
C314   C    -0.42730   0.02270  -0.36060   0.01267  Uiso   1.00
C315   C    -0.73660   0.22320  -0.27050   0.01267  Uiso   1.00
C316   C    -0.77270   0.22340  -0.92460   0.01267  Uiso   1.00
C317   C    -0.60730   0.00750  -0.25900   0.01267  Uiso   1.00
C318   C    -0.46810   0.05630  -0.40180   0.01267  Uiso   1.00
C319   C    -0.50520   0.97650  -0.26600   0.01267  Uiso   1.00
C320   C    -0.72290   0.14670  -0.93480   0.01267  Uiso   1.00
C321   C    -0.68780   0.14600  -0.28110   0.01267  Uiso   1.00
C322   C    -0.52590   0.05100  -0.37210   0.01267  Uiso   1.00
C323   C    -0.64360   0.85470  -0.08800   0.01267  Uiso   1.00
C324   C    -0.82050   0.14520  -0.91820   0.01267  Uiso   1.00
C325   C    -0.82290   0.19630  -0.91580   0.01267  Uiso   1.00
C326   C    -0.74350   0.80350  -0.10050   0.01267  Uiso   1.00
C327   C    -0.72150   0.19690  -0.93510   0.01267  Uiso   1.00
C328   C    -0.78470   0.14620  -0.25380   0.01267  Uiso   1.00
C329   C    -0.64110   0.80430  -0.08530   0.01267  Uiso   1.00
C330   C    -0.74190   0.85360  -0.10170   0.01267  Uiso   1.00
C331   C    -0.68650   0.19620  -0.28590   0.01267  Uiso   1.00
C332   C    -0.78650   0.19640  -0.25590   0.01267  Uiso   1.00
S333   S    -0.40010   0.93232  -0.25280   0.01267  Uiso   1.00
N334   N    -0.73540   0.12060  -0.26250   0.01267  Uiso   1.00
N335   N    -0.69320   0.88040  -0.09570   0.01267  Uiso   1.00
N336   N    -0.77190   0.12010  -0.92850   0.01267  Uiso   1.00
O337   O    -0.70820   0.03793  -0.06800   0.01267  Uiso   1.00
O338   O    -0.74330   0.96909  -0.25370   0.01267  Uiso   1.00
O339   O    -0.63980   0.04253  -0.29030   0.01267  Uiso   1.00
O340   O    -0.35140   0.03727  -0.50310   0.01267  Uiso   1.00
O341   O    -0.33120   0.04066  -0.29740   0.01267  Uiso   1.00
O342   O    -0.62090   0.97017  -0.19610   0.01267  Uiso   1.00
O343   O    -0.76120   0.96160  -0.95210   0.01267  Uiso   1.00
O344   O    -0.43560   0.88850  -0.25490   0.01267  Uiso   1.00
O345   O    -0.37950   0.94280  -0.12510   0.01267  Uiso   1.00
O346   O    -0.35430   0.93160  -0.34560   0.01267  Uiso   1.00
H347   H    -0.71349   0.46909  -0.75370   0.01267  Uiso   1.00
H348   H    -0.66499   0.46207  -0.06800   0.01267  Uiso   1.00
Zn349  Zn   -0.19572   0.54145  -0.41321   0.01267  Uiso   1.00
Zn350  Zn   -0.26938   0.45848  -0.56242   0.01267  Uiso   1.00
Zn351  Zn   -0.22913   0.45589  -0.24291   0.01267  Uiso   1.00
H352   H    -0.29600   0.54900  -0.50500   0.01267  Uiso   1.00
H353   H    -0.95620   0.41690  -0.04930   0.01267  Uiso   1.00
H354   H    -0.01800   0.55100  -0.27930   0.01267  Uiso   1.00
H355   H    -0.18760   0.37010  -0.56080   0.01267  Uiso   1.00
H356   H    -0.15290   0.37100  -0.20830   0.01267  Uiso   1.00
H357   H    -0.05270   0.42570  -0.09950   0.01267  Uiso   1.00
H358   H    -0.10870   0.62790  -0.41580   0.01267  Uiso   1.00
H359   H    -0.35540   0.37220  -0.58800   0.01267  Uiso   1.00
H360   H    -0.35870   0.28780  -0.59180   0.01267  Uiso   1.00
H361   H    -0.27920   0.71270  -0.39440   0.01267  Uiso   1.00
H362   H    -0.18600   0.28670  -0.55750   0.01267  Uiso   1.00
H363   H    -0.31970   0.37100  -0.25410   0.01267  Uiso   1.00
H364   H    -0.10510   0.71150  -0.42090   0.01267  Uiso   1.00
H365   H    -0.27720   0.62960  -0.39290   0.01267  Uiso   1.00
H366   H    -0.15130   0.28770  -0.20020   0.01267  Uiso   1.00
H367   H    -0.32210   0.28740  -0.25270   0.01267  Uiso   1.00
C368   C    -0.86470   0.46660  -0.11190   0.01267  Uiso   1.00
C369   C    -0.04460   0.48840  -0.19900   0.01267  Uiso   1.00
C370   C    -0.94710   0.51930  -0.20380   0.01267  Uiso   1.00
C371   C    -0.19210   0.72370  -0.40830   0.01267  Uiso   1.00
C372   C    -0.92730   0.47730  -0.13940   0.01267  Uiso   1.00
C373   C    -0.23660   0.27680  -0.22950   0.01267  Uiso   1.00
C374   C    -0.27270   0.27660  -0.57540   0.01267  Uiso   1.00
C375   C    -0.10730   0.49250  -0.24100   0.01267  Uiso   1.00
C376   C    -0.96810   0.44370  -0.09820   0.01267  Uiso   1.00
C377   C    -0.00520   0.52350  -0.23400   0.01267  Uiso   1.00
C378   C    -0.22290   0.35330  -0.56520   0.01267  Uiso   1.00
C379   C    -0.18780   0.35400  -0.21890   0.01267  Uiso   1.00
C380   C    -0.02590   0.44900  -0.12790   0.01267  Uiso   1.00
C381   C    -0.14360   0.64530  -0.41200   0.01267  Uiso   1.00
C382   C    -0.32050   0.35480  -0.58180   0.01267  Uiso   1.00
C383   C    -0.32290   0.30370  -0.58420   0.01267  Uiso   1.00
C384   C    -0.24350   0.69650  -0.39950   0.01267  Uiso   1.00
C385   C    -0.22150   0.30310  -0.56490   0.01267  Uiso   1.00
C386   C    -0.28470   0.35380  -0.24620   0.01267  Uiso   1.00
C387   C    -0.14110   0.69570  -0.41470   0.01267  Uiso   1.00
C388   C    -0.24190   0.64640  -0.39830   0.01267  Uiso   1.00
C389   C    -0.18650   0.30380  -0.21410   0.01267  Uiso   1.00
C390   C    -0.28650   0.30360  -0.24410   0.01267  Uiso   1.00
S391   S    -0.90010   0.56768  -0.24720   0.01267  Uiso   1.00
N392   N    -0.23540   0.37940  -0.23750   0.01267  Uiso   1.00
N393   N    -0.19320   0.61960  -0.40430   0.01267  Uiso   1.00
N394   N    -0.27190   0.37990  -0.57150   0.01267  Uiso   1.00
O395   O    -0.20820   0.46207  -0.43200   0.01267  Uiso   1.00
O396   O    -0.24330   0.53091  -0.24630   0.01267  Uiso   1.00
O397   O    -0.13980   0.45747  -0.20970   0.01267  Uiso   1.00
O398   O    -0.85140   0.46273  -0.99690   0.01267  Uiso   1.00
O399   O    -0.83120   0.45934  -0.20260   0.01267  Uiso   1.00
O400   O    -0.12090   0.52983  -0.30390   0.01267  Uiso   1.00
O401   O    -0.26120   0.53840  -0.54790   0.01267  Uiso   1.00
O402   O    -0.93560   0.61150  -0.24510   0.01267  Uiso   1.00
O403   O    -0.87950   0.55720  -0.37490   0.01267  Uiso   1.00
O404   O    -0.85430   0.56840  -0.15440   0.01267  Uiso   1.00
H405   H    -0.21349   0.03091  -0.74630   0.01267  Uiso   1.00
H406   H    -0.16499   0.03793  -0.43200   0.01267  Uiso   1.00
Zn407  Zn   -0.30428   0.45855  -0.91321   0.01267  Uiso   1.00
Zn408  Zn   -0.23062   0.54152  -0.06242   0.01267  Uiso   1.00
Zn409  Zn   -0.27087   0.54411  -0.74291   0.01267  Uiso   1.00
H410   H    -0.20400   0.45100  -0.00500   0.01267  Uiso   1.00
H411   H    -0.54380   0.58310  -0.54930   0.01267  Uiso   1.00
H412   H    -0.48200   0.44900  -0.77930   0.01267  Uiso   1.00
H413   H    -0.31240   0.62990  -0.06080   0.01267  Uiso   1.00
H414   H    -0.34710   0.62900  -0.70830   0.01267  Uiso   1.00
H415   H    -0.44730   0.57430  -0.59950   0.01267  Uiso   1.00
H416   H    -0.39130   0.37210  -0.91580   0.01267  Uiso   1.00
H417   H    -0.14460   0.62780  -0.08800   0.01267  Uiso   1.00
H418   H    -0.14130   0.71220  -0.09180   0.01267  Uiso   1.00
H419   H    -0.22080   0.28730  -0.89440   0.01267  Uiso   1.00
H420   H    -0.31400   0.71330  -0.05750   0.01267  Uiso   1.00
H421   H    -0.18030   0.62900  -0.75410   0.01267  Uiso   1.00
H422   H    -0.39490   0.28850  -0.92090   0.01267  Uiso   1.00
H423   H    -0.22280   0.37040  -0.89290   0.01267  Uiso   1.00
H424   H    -0.34870   0.71230  -0.70020   0.01267  Uiso   1.00
H425   H    -0.17790   0.71260  -0.75270   0.01267  Uiso   1.00
C426   C    -0.63530   0.53340  -0.61190   0.01267  Uiso   1.00
C427   C    -0.45540   0.51160  -0.69900   0.01267  Uiso   1.00
C428   C    -0.55290   0.48070  -0.70380   0.01267  Uiso   1.00
C429   C    -0.30790   0.27630  -0.90830   0.01267  Uiso   1.00
C430   C    -0.57270   0.52270  -0.63940   0.01267  Uiso   1.00
C431   C    -0.26340   0.72320  -0.72950   0.01267  Uiso   1.00
C432   C    -0.22730   0.72340  -0.07540   0.01267  Uiso   1.00
C433   C    -0.39270   0.50750  -0.74100   0.01267  Uiso   1.00
C434   C    -0.53190   0.55630  -0.59820   0.01267  Uiso   1.00
C435   C    -0.49480   0.47650  -0.73400   0.01267  Uiso   1.00
C436   C    -0.27710   0.64670  -0.06520   0.01267  Uiso   1.00
C437   C    -0.31220   0.64600  -0.71890   0.01267  Uiso   1.00
C438   C    -0.47410   0.55100  -0.62790   0.01267  Uiso   1.00
C439   C    -0.35640   0.35470  -0.91200   0.01267  Uiso   1.00
C440   C    -0.17950   0.64520  -0.08180   0.01267  Uiso   1.00
C441   C    -0.17710   0.69630  -0.08420   0.01267  Uiso   1.00
C442   C    -0.25650   0.30350  -0.89950   0.01267  Uiso   1.00
C443   C    -0.27850   0.69690  -0.06490   0.01267  Uiso   1.00
C444   C    -0.21530   0.64620  -0.74620   0.01267  Uiso   1.00
C445   C    -0.35890   0.30430  -0.91470   0.01267  Uiso   1.00
C446   C    -0.25810   0.35360  -0.89830   0.01267  Uiso   1.00
C447   C    -0.31350   0.69620  -0.71410   0.01267  Uiso   1.00
C448   C    -0.21350   0.69640  -0.74410   0.01267  Uiso   1.00
S449   S    -0.59990   0.43232  -0.74720   0.01267  Uiso   1.00
N450   N    -0.26460   0.62060  -0.73750   0.01267  Uiso   1.00
N451   N    -0.30680   0.38040  -0.90430   0.01267  Uiso   1.00
N452   N    -0.22810   0.62010  -0.07150   0.01267  Uiso   1.00
O453   O    -0.29180   0.53793  -0.93200   0.01267  Uiso   1.00
O454   O    -0.25670   0.46909  -0.74630   0.01267  Uiso   1.00
O455   O    -0.36020   0.54253  -0.70970   0.01267  Uiso   1.00
O456   O    -0.64860   0.53727  -0.49690   0.01267  Uiso   1.00
O457   O    -0.66880   0.54066  -0.70260   0.01267  Uiso   1.00
O458   O    -0.37910   0.47017  -0.80390   0.01267  Uiso   1.00
O459   O    -0.23880   0.46160  -0.04790   0.01267  Uiso   1.00
O460   O    -0.56440   0.38850  -0.74510   0.01267  Uiso   1.00
O461   O    -0.62050   0.44280  -0.87490   0.01267  Uiso   1.00
O462   O    -0.64570   0.43160  -0.65440   0.01267  Uiso   1.00
H463   H    -0.28651   0.96909  -0.24630   0.01267  Uiso   1.00
H464   H    -0.33501   0.96207  -0.93200   0.01267  Uiso   1.00
