data_image0
_cell_length_a       9.1571
_cell_length_b       10.4571
_cell_length_c       10.4571
_cell_angle_alpha    95.8993
_cell_angle_beta     100.305
_cell_angle_gamma    79.6951

_symmetry_space_group_name_H-M    P 1
_symmetry_int_tables_number       1

loop_
  _symmetry_equiv_pos_as_xyz
  'x, y, z'

loop_
  _atom_site_label
  _atom_site_occupancy
  _atom_site_fract_x
  _atom_site_fract_y
  _atom_site_fract_z
  _atom_site_thermal_displace_type
  _atom_site_B_iso_or_equiv
  _atom_site_type_symbol
  Zn1      1.0000 0.75000  0.02443  0.02443  Biso   1.000  Zn
  Zn2      1.0000 0.25000  0.97557  0.97557  Biso   1.000  Zn
  P1       1.0000 0.99153  0.20632  0.05526  Biso   1.000  P
  P2       1.0000 0.50847  0.05526  0.20632  Biso   1.000  P
  P3       1.0000 0.00847  0.79368  0.94474  Biso   1.000  P
  P4       1.0000 0.49153  0.94474  0.79368  Biso   1.000  P
  H1       1.0000 0.01320  0.23490  0.24750  Biso   1.000  H
  H2       1.0000 0.72640  0.34590  0.96250  Biso   1.000  H
  H3       1.0000 0.21440  0.36310  0.08630  Biso   1.000  H
  H4       1.0000 0.48680  0.24750  0.23490  Biso   1.000  H
  H5       1.0000 0.77360  0.96250  0.34590  Biso   1.000  H
  H6       1.0000 0.28560  0.08630  0.36310  Biso   1.000  H
  H7       1.0000 0.98680  0.76510  0.75250  Biso   1.000  H
  H8       1.0000 0.27360  0.65410  0.03750  Biso   1.000  H
  H9       1.0000 0.78560  0.63690  0.91370  Biso   1.000  H
  H10      1.0000 0.51320  0.75250  0.76510  Biso   1.000  H
  H11      1.0000 0.22640  0.03750  0.65410  Biso   1.000  H
  H12      1.0000 0.71440  0.91370  0.63690  Biso   1.000  H
  C1       1.0000 0.86100  0.45668  0.97332  Biso   1.000  C
  C2       1.0000 0.99010  0.37309  0.02575  Biso   1.000  C
  C3       1.0000 0.12820  0.41820  0.05160  Biso   1.000  C
  C4       1.0000 0.63900  0.97332  0.45668  Biso   1.000  C
  C5       1.0000 0.50990  0.02575  0.37309  Biso   1.000  C
  C6       1.0000 0.37180  0.05160  0.41820  Biso   1.000  C
  C7       1.0000 0.13900  0.54332  0.02668  Biso   1.000  C
  C8       1.0000 0.00990  0.62691  0.97425  Biso   1.000  C
  C9       1.0000 0.87180  0.58180  0.94840  Biso   1.000  C
  C10      1.0000 0.36100  0.02668  0.54332  Biso   1.000  C
  C11      1.0000 0.49010  0.97425  0.62691  Biso   1.000  C
  C12      1.0000 0.62820  0.94840  0.58180  Biso   1.000  C
  O1       1.0000 0.06210  0.18481  0.19931  Biso   1.000  O
  O2       1.0000 0.82700  0.18768  0.02698  Biso   1.000  O
  O3       1.0000 0.08930  0.12064  0.96892  Biso   1.000  O
  O4       1.0000 0.72100  0.42088  0.94338  Biso   1.000  O
  O5       1.0000 0.43790  0.19931  0.18481  Biso   1.000  O
  O6       1.0000 0.67300  0.02698  0.18768  Biso   1.000  O
  O7       1.0000 0.41070  0.96892  0.12064  Biso   1.000  O
  O8       1.0000 0.77900  0.94338  0.42088  Biso   1.000  O
  O9       1.0000 0.93790  0.81519  0.80069  Biso   1.000  O
  O10      1.0000 0.17300  0.81232  0.97302  Biso   1.000  O
  O11      1.0000 0.91070  0.87936  0.03108  Biso   1.000  O
  O12      1.0000 0.27900  0.57912  0.05662  Biso   1.000  O
  O13      1.0000 0.56210  0.80069  0.81519  Biso   1.000  O
  O14      1.0000 0.32700  0.97302  0.81232  Biso   1.000  O
  O15      1.0000 0.58930  0.03108  0.87936  Biso   1.000  O
  O16      1.0000 0.22100  0.05662  0.57912  Biso   1.000  O
