data_image0
_cell_length_a       13.8683
_cell_length_b       16.2281
_cell_length_c       20.491
_cell_angle_alpha    90
_cell_angle_beta     104.715
_cell_angle_gamma    90

_symmetry_space_group_name_H-M    P 1
_symmetry_int_tables_number       1

loop_
  _symmetry_equiv_pos_as_xyz
  'x, y, z'

loop_
  _atom_site_label
  _atom_site_occupancy
  _atom_site_fract_x
  _atom_site_fract_y
  _atom_site_fract_z
  _atom_site_thermal_displace_type
  _atom_site_B_iso_or_equiv
  _atom_site_type_symbol
  K1       1.0000 0.01002  0.39783  0.88517  Biso   1.000  K
  K2       1.0000 0.06504  0.37118  0.11015  Biso   1.000  K
  K3       1.0000 0.21901  0.48151  0.02823  Biso   1.000  K
  K4       1.0000 0.98998  0.89783  0.61483  Biso   1.000  K
  K5       1.0000 0.93496  0.87118  0.38985  Biso   1.000  K
  K6       1.0000 0.78099  0.98151  0.47177  Biso   1.000  K
  K7       1.0000 0.98998  0.60217  0.11483  Biso   1.000  K
  K8       1.0000 0.93496  0.62882  0.88985  Biso   1.000  K
  K9       1.0000 0.78099  0.51849  0.97177  Biso   1.000  K
  K10      1.0000 0.01002  0.10217  0.38517  Biso   1.000  K
  K11      1.0000 0.06504  0.12882  0.61015  Biso   1.000  K
  K12      1.0000 0.21901  0.01849  0.52823  Biso   1.000  K
  H1       1.0000 0.20150  0.08160  0.96900  Biso   1.000  H
  H2       1.0000 0.31770  0.12120  0.91060  Biso   1.000  H
  H3       1.0000 0.34130  0.26090  0.89340  Biso   1.000  H
  H4       1.0000 0.25110  0.35900  0.93450  Biso   1.000  H
  H5       1.0000 0.07460  0.21050  0.05730  Biso   1.000  H
  H6       1.0000 0.96910  0.13190  0.93530  Biso   1.000  H
  H7       1.0000 0.92060  0.16100  0.99450  Biso   1.000  H
  H8       1.0000 0.96170  0.22800  0.95090  Biso   1.000  H
  H9       1.0000 0.15500  0.08360  0.08740  Biso   1.000  H
  H10      1.0000 0.03720  0.07520  0.07750  Biso   1.000  H
  H11      1.0000 0.08750  0.04270  0.02020  Biso   1.000  H
  H12      1.0000 0.62780  0.38920  0.68410  Biso   1.000  H
  H13      1.0000 0.71740  0.44320  0.61230  Biso   1.000  H
  H14      1.0000 0.86820  0.51170  0.65850  Biso   1.000  H
  H15      1.0000 0.92600  0.52670  0.77500  Biso   1.000  H
  H16      1.0000 0.66340  0.43030  0.85470  Biso   1.000  H
  H17      1.0000 0.52560  0.34490  0.82190  Biso   1.000  H
  H18      1.0000 0.52010  0.41340  0.76480  Biso   1.000  H
  H19      1.0000 0.55460  0.32150  0.75350  Biso   1.000  H
  H20      1.0000 0.72210  0.27030  0.82080  Biso   1.000  H
  H21      1.0000 0.78980  0.32920  0.87670  Biso   1.000  H
  H22      1.0000 0.68830  0.29210  0.88780  Biso   1.000  H
  H23      1.0000 0.34040  0.64110  0.81750  Biso   1.000  H
  H24      1.0000 0.35830  0.75670  0.88750  Biso   1.000  H
  H25      1.0000 0.26200  0.76940  0.96440  Biso   1.000  H
  H26      1.0000 0.14830  0.66790  0.97110  Biso   1.000  H
  H27      1.0000 0.17660  0.46930  0.82410  Biso   1.000  H
  H28      1.0000 0.29710  0.41420  0.77930  Biso   1.000  H
  H29      1.0000 0.34560  0.44840  0.85360  Biso   1.000  H
  H30      1.0000 0.35670  0.49960  0.78920  Biso   1.000  H
  H31      1.0000 0.09630  0.55110  0.73570  Biso   1.000  H
  H32      1.0000 0.15220  0.47800  0.70780  Biso   1.000  H
  H33      1.0000 0.19850  0.56890  0.71550  Biso   1.000  H
  H34      1.0000 0.88210  0.22500  0.71340  Biso   1.000  H
  H35      1.0000 0.85510  0.31780  0.72900  Biso   1.000  H
  H36      1.0000 0.08780  0.20860  0.85010  Biso   1.000  H
  H37      1.0000 0.02230  0.15980  0.78600  Biso   1.000  H
  H38      1.0000 0.14240  0.30050  0.77870  Biso   1.000  H
  H39      1.0000 0.16970  0.20800  0.76290  Biso   1.000  H
  H40      1.0000 0.93640  0.31550  0.64090  Biso   1.000  H
  H41      1.0000 0.00100  0.36610  0.70420  Biso   1.000  H
  H42      1.0000 0.45640  0.36720  0.01960  Biso   1.000  H
  H43      1.0000 0.52240  0.42910  0.07390  Biso   1.000  H
  H44      1.0000 0.48360  0.57290  0.06610  Biso   1.000  H
  H45      1.0000 0.39200  0.60500  0.00710  Biso   1.000  H
  H46      1.0000 0.79850  0.58160  0.53100  Biso   1.000  H
  H47      1.0000 0.68230  0.62120  0.58940  Biso   1.000  H
  H48      1.0000 0.65870  0.76090  0.60660  Biso   1.000  H
  H49      1.0000 0.74890  0.85900  0.56550  Biso   1.000  H
  H50      1.0000 0.92540  0.71050  0.44270  Biso   1.000  H
  H51      1.0000 0.03090  0.63190  0.56470  Biso   1.000  H
  H52      1.0000 0.07940  0.66100  0.50550  Biso   1.000  H
  H53      1.0000 0.03830  0.72800  0.54910  Biso   1.000  H
  H54      1.0000 0.84500  0.58360  0.41260  Biso   1.000  H
  H55      1.0000 0.96280  0.57520  0.42250  Biso   1.000  H
  H56      1.0000 0.91250  0.54270  0.47980  Biso   1.000  H
  H57      1.0000 0.37220  0.88920  0.81590  Biso   1.000  H
  H58      1.0000 0.28260  0.94320  0.88770  Biso   1.000  H
  H59      1.0000 0.13180  0.01170  0.84150  Biso   1.000  H
  H60      1.0000 0.07400  0.02670  0.72500  Biso   1.000  H
  H61      1.0000 0.33660  0.93030  0.64530  Biso   1.000  H
  H62      1.0000 0.47440  0.84490  0.67810  Biso   1.000  H
  H63      1.0000 0.47990  0.91340  0.73520  Biso   1.000  H
  H64      1.0000 0.44540  0.82150  0.74650  Biso   1.000  H
  H65      1.0000 0.27790  0.77030  0.67920  Biso   1.000  H
  H66      1.0000 0.21020  0.82920  0.62330  Biso   1.000  H
  H67      1.0000 0.31170  0.79210  0.61220  Biso   1.000  H
  H68      1.0000 0.65960  0.14110  0.68250  Biso   1.000  H
  H69      1.0000 0.64170  0.25670  0.61250  Biso   1.000  H
  H70      1.0000 0.73800  0.26940  0.53560  Biso   1.000  H
  H71      1.0000 0.85170  0.16790  0.52890  Biso   1.000  H
  H72      1.0000 0.82340  0.96930  0.67590  Biso   1.000  H
  H73      1.0000 0.70290  0.91420  0.72070  Biso   1.000  H
  H74      1.0000 0.65440  0.94840  0.64640  Biso   1.000  H
  H75      1.0000 0.64330  0.99960  0.71080  Biso   1.000  H
  H76      1.0000 0.90370  0.05110  0.76430  Biso   1.000  H
  H77      1.0000 0.84780  0.97800  0.79220  Biso   1.000  H
  H78      1.0000 0.80150  0.06890  0.78450  Biso   1.000  H
  H79      1.0000 0.11790  0.72500  0.78660  Biso   1.000  H
  H80      1.0000 0.14490  0.81780  0.77100  Biso   1.000  H
  H81      1.0000 0.91220  0.70860  0.64990  Biso   1.000  H
  H82      1.0000 0.97770  0.65980  0.71400  Biso   1.000  H
  H83      1.0000 0.85760  0.80050  0.72130  Biso   1.000  H
  H84      1.0000 0.83030  0.70800  0.73710  Biso   1.000  H
  H85      1.0000 0.06360  0.81550  0.85910  Biso   1.000  H
  H86      1.0000 0.99900  0.86610  0.79580  Biso   1.000  H
  H87      1.0000 0.54360  0.86720  0.48040  Biso   1.000  H
  H88      1.0000 0.47760  0.92910  0.42610  Biso   1.000  H
  H89      1.0000 0.51640  0.07290  0.43390  Biso   1.000  H
  H90      1.0000 0.60800  0.10500  0.49290  Biso   1.000  H
  H91      1.0000 0.79850  0.91840  0.03100  Biso   1.000  H
  H92      1.0000 0.68230  0.87880  0.08940  Biso   1.000  H
  H93      1.0000 0.65870  0.73910  0.10660  Biso   1.000  H
  H94      1.0000 0.74890  0.64100  0.06550  Biso   1.000  H
  H95      1.0000 0.92540  0.78950  0.94270  Biso   1.000  H
  H96      1.0000 0.03090  0.86810  0.06470  Biso   1.000  H
  H97      1.0000 0.07940  0.83900  0.00550  Biso   1.000  H
  H98      1.0000 0.03830  0.77200  0.04910  Biso   1.000  H
  H99      1.0000 0.84500  0.91640  0.91260  Biso   1.000  H
  H100     1.0000 0.96280  0.92480  0.92250  Biso   1.000  H
  H101     1.0000 0.91250  0.95730  0.97980  Biso   1.000  H
  H102     1.0000 0.37220  0.61080  0.31590  Biso   1.000  H
  H103     1.0000 0.28260  0.55680  0.38770  Biso   1.000  H
  H104     1.0000 0.13180  0.48830  0.34150  Biso   1.000  H
  H105     1.0000 0.07400  0.47330  0.22500  Biso   1.000  H
  H106     1.0000 0.33660  0.56970  0.14530  Biso   1.000  H
  H107     1.0000 0.47440  0.65510  0.17810  Biso   1.000  H
  H108     1.0000 0.47990  0.58660  0.23520  Biso   1.000  H
  H109     1.0000 0.44540  0.67850  0.24650  Biso   1.000  H
  H110     1.0000 0.27790  0.72970  0.17920  Biso   1.000  H
  H111     1.0000 0.21020  0.67080  0.12330  Biso   1.000  H
  H112     1.0000 0.31170  0.70790  0.11220  Biso   1.000  H
  H113     1.0000 0.65960  0.35890  0.18250  Biso   1.000  H
  H114     1.0000 0.64170  0.24330  0.11250  Biso   1.000  H
  H115     1.0000 0.73800  0.23060  0.03560  Biso   1.000  H
  H116     1.0000 0.85170  0.33210  0.02890  Biso   1.000  H
  H117     1.0000 0.82340  0.53070  0.17590  Biso   1.000  H
  H118     1.0000 0.70290  0.58580  0.22070  Biso   1.000  H
  H119     1.0000 0.65440  0.55160  0.14640  Biso   1.000  H
  H120     1.0000 0.64330  0.50040  0.21080  Biso   1.000  H
  H121     1.0000 0.90370  0.44890  0.26430  Biso   1.000  H
  H122     1.0000 0.84780  0.52200  0.29220  Biso   1.000  H
  H123     1.0000 0.80150  0.43110  0.28450  Biso   1.000  H
  H124     1.0000 0.11790  0.77500  0.28660  Biso   1.000  H
  H125     1.0000 0.14490  0.68220  0.27100  Biso   1.000  H
  H126     1.0000 0.91220  0.79140  0.14990  Biso   1.000  H
  H127     1.0000 0.97770  0.84020  0.21400  Biso   1.000  H
  H128     1.0000 0.85760  0.69950  0.22130  Biso   1.000  H
  H129     1.0000 0.83030  0.79200  0.23710  Biso   1.000  H
  H130     1.0000 0.06360  0.68450  0.35910  Biso   1.000  H
  H131     1.0000 0.99900  0.63390  0.29580  Biso   1.000  H
  H132     1.0000 0.54360  0.63280  0.98040  Biso   1.000  H
  H133     1.0000 0.47760  0.57090  0.92610  Biso   1.000  H
  H134     1.0000 0.51640  0.42710  0.93390  Biso   1.000  H
  H135     1.0000 0.60800  0.39500  0.99290  Biso   1.000  H
  H136     1.0000 0.20150  0.41840  0.46900  Biso   1.000  H
  H137     1.0000 0.31770  0.37880  0.41060  Biso   1.000  H
  H138     1.0000 0.34130  0.23910  0.39340  Biso   1.000  H
  H139     1.0000 0.25110  0.14100  0.43450  Biso   1.000  H
  H140     1.0000 0.07460  0.28950  0.55730  Biso   1.000  H
  H141     1.0000 0.96910  0.36810  0.43530  Biso   1.000  H
  H142     1.0000 0.92060  0.33900  0.49450  Biso   1.000  H
  H143     1.0000 0.96170  0.27200  0.45090  Biso   1.000  H
  H144     1.0000 0.15500  0.41640  0.58740  Biso   1.000  H
  H145     1.0000 0.03720  0.42480  0.57750  Biso   1.000  H
  H146     1.0000 0.08750  0.45730  0.52020  Biso   1.000  H
  H147     1.0000 0.62780  0.11080  0.18410  Biso   1.000  H
  H148     1.0000 0.71740  0.05680  0.11230  Biso   1.000  H
  H149     1.0000 0.86820  0.98830  0.15850  Biso   1.000  H
  H150     1.0000 0.92600  0.97330  0.27500  Biso   1.000  H
  H151     1.0000 0.66340  0.06970  0.35470  Biso   1.000  H
  H152     1.0000 0.52560  0.15510  0.32190  Biso   1.000  H
  H153     1.0000 0.52010  0.08660  0.26480  Biso   1.000  H
  H154     1.0000 0.55460  0.17850  0.25350  Biso   1.000  H
  H155     1.0000 0.72210  0.22970  0.32080  Biso   1.000  H
  H156     1.0000 0.78980  0.17080  0.37670  Biso   1.000  H
  H157     1.0000 0.68830  0.20790  0.38780  Biso   1.000  H
  H158     1.0000 0.34040  0.85890  0.31750  Biso   1.000  H
  H159     1.0000 0.35830  0.74330  0.38750  Biso   1.000  H
  H160     1.0000 0.26200  0.73060  0.46440  Biso   1.000  H
  H161     1.0000 0.14830  0.83210  0.47110  Biso   1.000  H
  H162     1.0000 0.17660  0.03070  0.32410  Biso   1.000  H
  H163     1.0000 0.29710  0.08580  0.27930  Biso   1.000  H
  H164     1.0000 0.34560  0.05160  0.35360  Biso   1.000  H
  H165     1.0000 0.35670  0.00040  0.28920  Biso   1.000  H
  H166     1.0000 0.09630  0.94890  0.23570  Biso   1.000  H
  H167     1.0000 0.15220  0.02200  0.20780  Biso   1.000  H
  H168     1.0000 0.19850  0.93110  0.21550  Biso   1.000  H
  H169     1.0000 0.88210  0.27500  0.21340  Biso   1.000  H
  H170     1.0000 0.85510  0.18220  0.22900  Biso   1.000  H
  H171     1.0000 0.08780  0.29140  0.35010  Biso   1.000  H
  H172     1.0000 0.02230  0.34020  0.28600  Biso   1.000  H
  H173     1.0000 0.14240  0.19950  0.27870  Biso   1.000  H
  H174     1.0000 0.16970  0.29200  0.26290  Biso   1.000  H
  H175     1.0000 0.93640  0.18450  0.14090  Biso   1.000  H
  H176     1.0000 0.00100  0.13390  0.20420  Biso   1.000  H
  H177     1.0000 0.45640  0.13280  0.51960  Biso   1.000  H
  H178     1.0000 0.52240  0.07090  0.57390  Biso   1.000  H
  H179     1.0000 0.48360  0.92710  0.56610  Biso   1.000  H
  H180     1.0000 0.39200  0.89500  0.50710  Biso   1.000  H
  C1       1.0000 0.17060  0.28090  0.97841  Biso   1.000  C
  C2       1.0000 0.15520  0.19510  0.98745  Biso   1.000  C
  C3       1.0000 0.21110  0.13860  0.96220  Biso   1.000  C
  C4       1.0000 0.28050  0.16160  0.92730  Biso   1.000  C
  C5       1.0000 0.29440  0.24400  0.91740  Biso   1.000  C
  C6       1.0000 0.24060  0.30240  0.94219  Biso   1.000  C
  C7       1.0000 0.07490  0.16920  0.02110  Biso   1.000  C
  C8       1.0000 0.97240  0.17290  0.97090  Biso   1.000  C
  C9       1.0000 0.09000  0.08530  0.05450  Biso   1.000  C
  C10      1.0000 0.80890  0.47050  0.80040  Biso   1.000  C
  C11      1.0000 0.71980  0.42620  0.77220  Biso   1.000  C
  C12      1.0000 0.68820  0.41770  0.70290  Biso   1.000  C
  C13      1.0000 0.74140  0.44940  0.65980  Biso   1.000  C
  C14      1.0000 0.83030  0.49020  0.68730  Biso   1.000  C
  C15      1.0000 0.86420  0.49980  0.75680  Biso   1.000  C
  C16      1.0000 0.66420  0.38850  0.81900  Biso   1.000  C
  C17      1.0000 0.55660  0.36500  0.78700  Biso   1.000  C
  C18      1.0000 0.72120  0.31320  0.85430  Biso   1.000  C
  C19      1.0000 0.17270  0.59150  0.89764  Biso   1.000  C
  C20      1.0000 0.23210  0.58420  0.85120  Biso   1.000  C
  C21      1.0000 0.30030  0.64600  0.84860  Biso   1.000  C
  C22      1.0000 0.31140  0.71510  0.89050  Biso   1.000  C
  C23      1.0000 0.25480  0.72270  0.93570  Biso   1.000  C
  C24      1.0000 0.18710  0.66210  0.93920  Biso   1.000  C
  C25      1.0000 0.21900  0.50860  0.80590  Biso   1.000  C
  C26      1.0000 0.31250  0.46390  0.80710  Biso   1.000  C
  C27      1.0000 0.16150  0.52840  0.73510  Biso   1.000  C
  C28      1.0000 0.91070  0.27890  0.73104  Biso   1.000  C
  C29      1.0000 0.04850  0.21480  0.80276  Biso   1.000  C
  C30      1.0000 0.11390  0.24680  0.76065  Biso   1.000  C
  C31      1.0000 0.97590  0.31060  0.68831  Biso   1.000  C
  C32      1.0000 0.48470  0.42350  0.02610  Biso   1.000  C
  C33      1.0000 0.44660  0.56400  0.01850  Biso   1.000  C
  C34      1.0000 0.82940  0.78090  0.52159  Biso   1.000  C
  C35      1.0000 0.84480  0.69510  0.51255  Biso   1.000  C
  C36      1.0000 0.78890  0.63860  0.53780  Biso   1.000  C
  C37      1.0000 0.71950  0.66160  0.57270  Biso   1.000  C
  C38      1.0000 0.70560  0.74400  0.58260  Biso   1.000  C
  C39      1.0000 0.75940  0.80240  0.55781  Biso   1.000  C
  C40      1.0000 0.92510  0.66920  0.47890  Biso   1.000  C
  C41      1.0000 0.02760  0.67290  0.52910  Biso   1.000  C
  C42      1.0000 0.91000  0.58530  0.44550  Biso   1.000  C
  C43      1.0000 0.19110  0.97050  0.69960  Biso   1.000  C
  C44      1.0000 0.28020  0.92620  0.72780  Biso   1.000  C
  C45      1.0000 0.31180  0.91770  0.79710  Biso   1.000  C
  C46      1.0000 0.25860  0.94940  0.84020  Biso   1.000  C
  C47      1.0000 0.16970  0.99020  0.81270  Biso   1.000  C
  C48      1.0000 0.13580  0.99980  0.74320  Biso   1.000  C
  C49      1.0000 0.33580  0.88850  0.68100  Biso   1.000  C
  C50      1.0000 0.44340  0.86500  0.71300  Biso   1.000  C
  C51      1.0000 0.27880  0.81320  0.64570  Biso   1.000  C
  C52      1.0000 0.82730  0.09150  0.60236  Biso   1.000  C
  C53      1.0000 0.76790  0.08420  0.64880  Biso   1.000  C
  C54      1.0000 0.69970  0.14600  0.65140  Biso   1.000  C
  C55      1.0000 0.68860  0.21510  0.60950  Biso   1.000  C
  C56      1.0000 0.74520  0.22270  0.56430  Biso   1.000  C
  C57      1.0000 0.81290  0.16210  0.56080  Biso   1.000  C
  C58      1.0000 0.78100  0.00860  0.69410  Biso   1.000  C
  C59      1.0000 0.68750  0.96390  0.69290  Biso   1.000  C
  C60      1.0000 0.83850  0.02840  0.76490  Biso   1.000  C
  C61      1.0000 0.08930  0.77890  0.76896  Biso   1.000  C
  C62      1.0000 0.95150  0.71480  0.69724  Biso   1.000  C
  C63      1.0000 0.88610  0.74680  0.73935  Biso   1.000  C
  C64      1.0000 0.02410  0.81060  0.81169  Biso   1.000  C
  C65      1.0000 0.51530  0.92350  0.47390  Biso   1.000  C
  C66      1.0000 0.55340  0.06400  0.48150  Biso   1.000  C
  C67      1.0000 0.82940  0.71910  0.02159  Biso   1.000  C
  C68      1.0000 0.84480  0.80490  0.01255  Biso   1.000  C
  C69      1.0000 0.78890  0.86140  0.03780  Biso   1.000  C
  C70      1.0000 0.71950  0.83840  0.07270  Biso   1.000  C
  C71      1.0000 0.70560  0.75600  0.08260  Biso   1.000  C
  C72      1.0000 0.75940  0.69760  0.05781  Biso   1.000  C
  C73      1.0000 0.92510  0.83080  0.97890  Biso   1.000  C
  C74      1.0000 0.02760  0.82710  0.02910  Biso   1.000  C
  C75      1.0000 0.91000  0.91470  0.94550  Biso   1.000  C
  C76      1.0000 0.19110  0.52950  0.19960  Biso   1.000  C
  C77      1.0000 0.28020  0.57380  0.22780  Biso   1.000  C
  C78      1.0000 0.31180  0.58230  0.29710  Biso   1.000  C
  C79      1.0000 0.25860  0.55060  0.34020  Biso   1.000  C
  C80      1.0000 0.16970  0.50980  0.31270  Biso   1.000  C
  C81      1.0000 0.13580  0.50020  0.24320  Biso   1.000  C
  C82      1.0000 0.33580  0.61150  0.18100  Biso   1.000  C
  C83      1.0000 0.44340  0.63500  0.21300  Biso   1.000  C
  C84      1.0000 0.27880  0.68680  0.14570  Biso   1.000  C
  C85      1.0000 0.82730  0.40850  0.10236  Biso   1.000  C
  C86      1.0000 0.76790  0.41580  0.14880  Biso   1.000  C
  C87      1.0000 0.69970  0.35400  0.15140  Biso   1.000  C
  C88      1.0000 0.68860  0.28490  0.10950  Biso   1.000  C
  C89      1.0000 0.74520  0.27730  0.06430  Biso   1.000  C
  C90      1.0000 0.81290  0.33790  0.06080  Biso   1.000  C
  C91      1.0000 0.78100  0.49140  0.19410  Biso   1.000  C
  C92      1.0000 0.68750  0.53610  0.19290  Biso   1.000  C
  C93      1.0000 0.83850  0.47160  0.26490  Biso   1.000  C
  C94      1.0000 0.08930  0.72110  0.26896  Biso   1.000  C
  C95      1.0000 0.95150  0.78520  0.19724  Biso   1.000  C
  C96      1.0000 0.88610  0.75320  0.23935  Biso   1.000  C
  C97      1.0000 0.02410  0.68940  0.31169  Biso   1.000  C
  C98      1.0000 0.51530  0.57650  0.97390  Biso   1.000  C
  C99      1.0000 0.55340  0.43600  0.98150  Biso   1.000  C
  C100     1.0000 0.17060  0.21910  0.47841  Biso   1.000  C
  C101     1.0000 0.15520  0.30490  0.48745  Biso   1.000  C
  C102     1.0000 0.21110  0.36140  0.46220  Biso   1.000  C
  C103     1.0000 0.28050  0.33840  0.42730  Biso   1.000  C
  C104     1.0000 0.29440  0.25600  0.41740  Biso   1.000  C
  C105     1.0000 0.24060  0.19760  0.44219  Biso   1.000  C
  C106     1.0000 0.07490  0.33080  0.52110  Biso   1.000  C
  C107     1.0000 0.97240  0.32710  0.47090  Biso   1.000  C
  C108     1.0000 0.09000  0.41470  0.55450  Biso   1.000  C
  C109     1.0000 0.80890  0.02950  0.30040  Biso   1.000  C
  C110     1.0000 0.71980  0.07380  0.27220  Biso   1.000  C
  C111     1.0000 0.68820  0.08230  0.20290  Biso   1.000  C
  C112     1.0000 0.74140  0.05060  0.15980  Biso   1.000  C
  C113     1.0000 0.83030  0.00980  0.18730  Biso   1.000  C
  C114     1.0000 0.86420  0.00020  0.25680  Biso   1.000  C
  C115     1.0000 0.66420  0.11150  0.31900  Biso   1.000  C
  C116     1.0000 0.55660  0.13500  0.28700  Biso   1.000  C
  C117     1.0000 0.72120  0.18680  0.35430  Biso   1.000  C
  C118     1.0000 0.17270  0.90850  0.39764  Biso   1.000  C
  C119     1.0000 0.23210  0.91580  0.35120  Biso   1.000  C
  C120     1.0000 0.30030  0.85400  0.34860  Biso   1.000  C
  C121     1.0000 0.31140  0.78490  0.39050  Biso   1.000  C
  C122     1.0000 0.25480  0.77730  0.43570  Biso   1.000  C
  C123     1.0000 0.18710  0.83790  0.43920  Biso   1.000  C
  C124     1.0000 0.21900  0.99140  0.30590  Biso   1.000  C
  C125     1.0000 0.31250  0.03610  0.30710  Biso   1.000  C
  C126     1.0000 0.16150  0.97160  0.23510  Biso   1.000  C
  C127     1.0000 0.91070  0.22110  0.23104  Biso   1.000  C
  C128     1.0000 0.04850  0.28520  0.30276  Biso   1.000  C
  C129     1.0000 0.11390  0.25320  0.26065  Biso   1.000  C
  C130     1.0000 0.97590  0.18940  0.18831  Biso   1.000  C
  C131     1.0000 0.48470  0.07650  0.52610  Biso   1.000  C
  C132     1.0000 0.44660  0.93600  0.51850  Biso   1.000  C
  O1       1.0000 0.12030  0.33781  0.00187  Biso   1.000  O
  O2       1.0000 0.84043  0.48307  0.86622  Biso   1.000  O
  O3       1.0000 0.10750  0.53499  0.90228  Biso   1.000  O
  O4       1.0000 0.96779  0.26977  0.79990  Biso   1.000  O
  O5       1.0000 0.05819  0.25656  0.69170  Biso   1.000  O
  O6       1.0000 0.40540  0.48283  0.01107  Biso   1.000  O
  O7       1.0000 0.98650  0.48050  0.99890  Biso   1.000  O
  O8       1.0000 0.87970  0.83781  0.49813  Biso   1.000  O
  O9       1.0000 0.15957  0.98307  0.63378  Biso   1.000  O
  O10      1.0000 0.89250  0.03499  0.59772  Biso   1.000  O
  O11      1.0000 0.03221  0.76977  0.70010  Biso   1.000  O
  O12      1.0000 0.94181  0.75656  0.80830  Biso   1.000  O
  O13      1.0000 0.59460  0.98283  0.48893  Biso   1.000  O
  O14      1.0000 0.01350  0.98050  0.50110  Biso   1.000  O
  O15      1.0000 0.87970  0.66219  0.99813  Biso   1.000  O
  O16      1.0000 0.15957  0.51693  0.13378  Biso   1.000  O
  O17      1.0000 0.89250  0.46501  0.09772  Biso   1.000  O
  O18      1.0000 0.03221  0.73023  0.20010  Biso   1.000  O
  O19      1.0000 0.94181  0.74344  0.30830  Biso   1.000  O
  O20      1.0000 0.59460  0.51717  0.98893  Biso   1.000  O
  O21      1.0000 0.01350  0.51950  0.00110  Biso   1.000  O
  O22      1.0000 0.12030  0.16219  0.50187  Biso   1.000  O
  O23      1.0000 0.84043  0.01693  0.36622  Biso   1.000  O
  O24      1.0000 0.10750  0.96501  0.40228  Biso   1.000  O
  O25      1.0000 0.96779  0.23023  0.29990  Biso   1.000  O
  O26      1.0000 0.05819  0.24344  0.19170  Biso   1.000  O
  O27      1.0000 0.40540  0.01717  0.51107  Biso   1.000  O
  O28      1.0000 0.98650  0.01950  0.49890  Biso   1.000  O
