data_image0
_cell_length_a       16.875
_cell_length_b       17.3103
_cell_length_c       20.2441
_cell_angle_alpha    99.182
_cell_angle_beta     97.809
_cell_angle_gamma    108.543

_symmetry_space_group_name_H-M    P 1
_symmetry_int_tables_number       1

loop_
  _symmetry_equiv_pos_as_xyz
  'x, y, z'

loop_
  _atom_site_label
  _atom_site_occupancy
  _atom_site_fract_x
  _atom_site_fract_y
  _atom_site_fract_z
  _atom_site_thermal_displace_type
  _atom_site_B_iso_or_equiv
  _atom_site_type_symbol
  Tb1      1.0000 0.16639  0.62106  0.90066  Biso   1.000  Tb
  Tb2      1.0000 0.25902  0.57857  0.74329  Biso   1.000  Tb
  Tb3      1.0000 0.16413  0.98674  0.27038  Biso   1.000  Tb
  Tb4      1.0000 0.24773  0.20764  0.37859  Biso   1.000  Tb
  Tb5      1.0000 0.83361  0.37894  0.09934  Biso   1.000  Tb
  Tb6      1.0000 0.74098  0.42143  0.25671  Biso   1.000  Tb
  Tb7      1.0000 0.83587  0.01326  0.72962  Biso   1.000  Tb
  Tb8      1.0000 0.75227  0.79236  0.62141  Biso   1.000  Tb
  Na1      1.0000 0.35740  0.54294  0.54545  Biso   1.000  Na
  Na2      1.0000 0.04460  0.71960  0.14715  Biso   1.000  Na
  Na3      1.0000 0.84050  0.37240  0.79390  Biso   1.000  Na
  Na4      1.0000 0.95810  0.42710  0.54720  Biso   1.000  Na
  Na5      1.0000 0.64260  0.45706  0.45455  Biso   1.000  Na
  Na6      1.0000 0.95540  0.28040  0.85285  Biso   1.000  Na
  Na7      1.0000 0.15950  0.62760  0.20610  Biso   1.000  Na
  Na8      1.0000 0.04190  0.57290  0.45280  Biso   1.000  Na
  H1       1.0000 0.11810  0.88160  0.79020  Biso   1.000  H
  H2       1.0000 0.36090  0.91850  0.77630  Biso   1.000  H
  H3       1.0000 0.24910  0.03550  0.80980  Biso   1.000  H
  H4       1.0000 0.30930  0.02290  0.75740  Biso   1.000  H
  H5       1.0000 0.20860  0.99590  0.73060  Biso   1.000  H
  H6       1.0000 0.04580  0.67830  0.77010  Biso   1.000  H
  H7       1.0000 0.02760  0.75940  0.80370  Biso   1.000  H
  H8       1.0000 0.13520  0.81370  0.93190  Biso   1.000  H
  H9       1.0000 0.03480  0.78960  0.93020  Biso   1.000  H
  H10      1.0000 0.96610  0.63260  0.91260  Biso   1.000  H
  H11      1.0000 0.93610  0.66060  0.84460  Biso   1.000  H
  H12      1.0000 0.38130  0.75450  0.83940  Biso   1.000  H
  H13      1.0000 0.42840  0.82770  0.80400  Biso   1.000  H
  H14      1.0000 0.37330  0.80280  0.68210  Biso   1.000  H
  H15      1.0000 0.38370  0.72180  0.63920  Biso   1.000  H
  H16      1.0000 0.46560  0.67930  0.70000  Biso   1.000  H
  H17      1.0000 0.50270  0.75700  0.76390  Biso   1.000  H
  H18      1.0000 0.29680  0.31320  0.84930  Biso   1.000  H
  H19      1.0000 0.41040  0.50030  0.01170  Biso   1.000  H
  H20      1.0000 0.36140  0.30170  0.98370  Biso   1.000  H
  H21      1.0000 0.42850  0.31980  0.93430  Biso   1.000  H
  H22      1.0000 0.44800  0.38060  0.00750  Biso   1.000  H
  H23      1.0000 0.14840  0.38360  0.77900  Biso   1.000  H
  H24      1.0000 0.19640  0.31930  0.76040  Biso   1.000  H
  H25      1.0000 0.35570  0.42450  0.74620  Biso   1.000  H
  H26      1.0000 0.30160  0.35330  0.67990  Biso   1.000  H
  H27      1.0000 0.19020  0.39310  0.61740  Biso   1.000  H
  H28      1.0000 0.14410  0.32200  0.65540  Biso   1.000  H
  H29      1.0000 0.39970  0.63170  0.01440  Biso   1.000  H
  H30      1.0000 0.36530  0.65280  0.94450  Biso   1.000  H
  H31      1.0000 0.28510  0.54800  0.06400  Biso   1.000  H
  H32      1.0000 0.21670  0.59090  0.07970  Biso   1.000  H
  H33      1.0000 0.26550  0.71820  0.07910  Biso   1.000  H
  H34      1.0000 0.36240  0.72770  0.07610  Biso   1.000  H
  H35      1.0000 0.91780  0.95640  0.42880  Biso   1.000  H
  H36      1.0000 0.90520  0.16170  0.36710  Biso   1.000  H
  H37      1.0000 0.78320  0.07450  0.40000  Biso   1.000  H
  H38      1.0000 0.78290  0.98830  0.41910  Biso   1.000  H
  H39      1.0000 0.82810  0.07390  0.47470  Biso   1.000  H
  H40      1.0000 0.12640  0.98770  0.42150  Biso   1.000  H
  H41      1.0000 0.04120  0.92060  0.43180  Biso   1.000  H
  H42      1.0000 0.96970  0.79390  0.27580  Biso   1.000  H
  H43      1.0000 0.93670  0.85120  0.32720  Biso   1.000  H
  H44      1.0000 0.08500  0.82030  0.39850  Biso   1.000  H
  H45      1.0000 0.08250  0.78380  0.32020  Biso   1.000  H
  H46      1.0000 0.00550  0.23590  0.30980  Biso   1.000  H
  H47      1.0000 0.05160  0.18230  0.26860  Biso   1.000  H
  H48      1.0000 0.09450  0.35590  0.40630  Biso   1.000  H
  H49      1.0000 0.09350  0.27990  0.44270  Biso   1.000  H
  H50      1.0000 0.11290  0.33890  0.28360  Biso   1.000  H
  H51      1.0000 0.20540  0.37710  0.33260  Biso   1.000  H
  H52      1.0000 0.50530  0.10540  0.48100  Biso   1.000  H
  H53      1.0000 0.50690  0.03390  0.28260  Biso   1.000  H
  H54      1.0000 0.60300  0.00330  0.37480  Biso   1.000  H
  H55      1.0000 0.65110  0.10220  0.39400  Biso   1.000  H
  H56      1.0000 0.61660  0.05400  0.45130  Biso   1.000  H
  H57      1.0000 0.38770  0.12040  0.51850  Biso   1.000  H
  H58      1.0000 0.29850  0.08550  0.46570  Biso   1.000  H
  H59      1.0000 0.32400  0.88170  0.17430  Biso   1.000  H
  H60      1.0000 0.32910  0.90520  0.25500  Biso   1.000  H
  H61      1.0000 0.35160  0.09960  0.21650  Biso   1.000  H
  H62      1.0000 0.40430  0.04010  0.19680  Biso   1.000  H
  H63      1.0000 0.33760  0.19960  0.58010  Biso   1.000  H
  H64      1.0000 0.34020  0.28820  0.56520  Biso   1.000  H
  H65      1.0000 0.44290  0.32630  0.52230  Biso   1.000  H
  H66      1.0000 0.48280  0.25440  0.50770  Biso   1.000  H
  H67      1.0000 0.21020  0.91110  0.10980  Biso   1.000  H
  H68      1.0000 0.29350  0.98570  0.10580  Biso   1.000  H
  H69      1.0000 0.88190  0.11840  0.20980  Biso   1.000  H
  H70      1.0000 0.63910  0.08150  0.22370  Biso   1.000  H
  H71      1.0000 0.75090  0.96450  0.19020  Biso   1.000  H
  H72      1.0000 0.69070  0.97710  0.24260  Biso   1.000  H
  H73      1.0000 0.79140  0.00410  0.26940  Biso   1.000  H
  H74      1.0000 0.95420  0.32170  0.22990  Biso   1.000  H
  H75      1.0000 0.97240  0.24060  0.19630  Biso   1.000  H
  H76      1.0000 0.86480  0.18630  0.06810  Biso   1.000  H
  H77      1.0000 0.96520  0.21040  0.06980  Biso   1.000  H
  H78      1.0000 0.03390  0.36740  0.08740  Biso   1.000  H
  H79      1.0000 0.06390  0.33940  0.15540  Biso   1.000  H
  H80      1.0000 0.61870  0.24550  0.16060  Biso   1.000  H
  H81      1.0000 0.57160  0.17230  0.19600  Biso   1.000  H
  H82      1.0000 0.62670  0.19720  0.31790  Biso   1.000  H
  H83      1.0000 0.61630  0.27820  0.36080  Biso   1.000  H
  H84      1.0000 0.53440  0.32070  0.30000  Biso   1.000  H
  H85      1.0000 0.49730  0.24300  0.23610  Biso   1.000  H
  H86      1.0000 0.70320  0.68680  0.15070  Biso   1.000  H
  H87      1.0000 0.58960  0.49970  0.98830  Biso   1.000  H
  H88      1.0000 0.63860  0.69830  0.01630  Biso   1.000  H
  H89      1.0000 0.57150  0.68020  0.06570  Biso   1.000  H
  H90      1.0000 0.55200  0.61940  0.99250  Biso   1.000  H
  H91      1.0000 0.85160  0.61640  0.22100  Biso   1.000  H
  H92      1.0000 0.80360  0.68070  0.23960  Biso   1.000  H
  H93      1.0000 0.64430  0.57550  0.25380  Biso   1.000  H
  H94      1.0000 0.69840  0.64670  0.32010  Biso   1.000  H
  H95      1.0000 0.80980  0.60690  0.38260  Biso   1.000  H
  H96      1.0000 0.85590  0.67800  0.34460  Biso   1.000  H
  H97      1.0000 0.60030  0.36830  0.98560  Biso   1.000  H
  H98      1.0000 0.63470  0.34720  0.05550  Biso   1.000  H
  H99      1.0000 0.71490  0.45200  0.93600  Biso   1.000  H
  H100     1.0000 0.78330  0.40910  0.92030  Biso   1.000  H
  H101     1.0000 0.73450  0.28180  0.92090  Biso   1.000  H
  H102     1.0000 0.63760  0.27230  0.92390  Biso   1.000  H
  H103     1.0000 0.08220  0.04360  0.57120  Biso   1.000  H
  H104     1.0000 0.09480  0.83830  0.63290  Biso   1.000  H
  H105     1.0000 0.21680  0.92550  0.60000  Biso   1.000  H
  H106     1.0000 0.21710  0.01170  0.58090  Biso   1.000  H
  H107     1.0000 0.17190  0.92610  0.52530  Biso   1.000  H
  H108     1.0000 0.87360  0.01230  0.57850  Biso   1.000  H
  H109     1.0000 0.95880  0.07940  0.56820  Biso   1.000  H
  H110     1.0000 0.03030  0.20610  0.72420  Biso   1.000  H
  H111     1.0000 0.06330  0.14880  0.67280  Biso   1.000  H
  H112     1.0000 0.91500  0.17970  0.60150  Biso   1.000  H
  H113     1.0000 0.91750  0.21620  0.67980  Biso   1.000  H
  H114     1.0000 0.99450  0.76410  0.69020  Biso   1.000  H
  H115     1.0000 0.94840  0.81770  0.73140  Biso   1.000  H
  H116     1.0000 0.90550  0.64410  0.59370  Biso   1.000  H
  H117     1.0000 0.90650  0.72010  0.55730  Biso   1.000  H
  H118     1.0000 0.88710  0.66110  0.71640  Biso   1.000  H
  H119     1.0000 0.79460  0.62290  0.66740  Biso   1.000  H
  H120     1.0000 0.49470  0.89460  0.51900  Biso   1.000  H
  H121     1.0000 0.49310  0.96610  0.71740  Biso   1.000  H
  H122     1.0000 0.39700  0.99670  0.62520  Biso   1.000  H
  H123     1.0000 0.34890  0.89780  0.60600  Biso   1.000  H
  H124     1.0000 0.38340  0.94600  0.54870  Biso   1.000  H
  H125     1.0000 0.61230  0.87960  0.48150  Biso   1.000  H
  H126     1.0000 0.70150  0.91450  0.53430  Biso   1.000  H
  H127     1.0000 0.67600  0.11830  0.82570  Biso   1.000  H
  H128     1.0000 0.67090  0.09480  0.74500  Biso   1.000  H
  H129     1.0000 0.64840  0.90040  0.78350  Biso   1.000  H
  H130     1.0000 0.59570  0.95990  0.80320  Biso   1.000  H
  H131     1.0000 0.66240  0.80040  0.41990  Biso   1.000  H
  H132     1.0000 0.65980  0.71180  0.43480  Biso   1.000  H
  H133     1.0000 0.55710  0.67370  0.47770  Biso   1.000  H
  H134     1.0000 0.51720  0.74560  0.49230  Biso   1.000  H
  H135     1.0000 0.78980  0.08890  0.89020  Biso   1.000  H
  H136     1.0000 0.70650  0.01430  0.89420  Biso   1.000  H
  C1       1.0000 0.21990  0.75180  0.80000  Biso   1.000  C
  C2       1.0000 0.15470  0.78220  0.80240  Biso   1.000  C
  C3       1.0000 0.16520  0.86270  0.79110  Biso   1.000  C
  C4       1.0000 0.24130  0.91520  0.78140  Biso   1.000  C
  C5       1.0000 0.30740  0.88390  0.78260  Biso   1.000  C
  C6       1.0000 0.29960  0.80450  0.79250  Biso   1.000  C
  C7       1.0000 0.25310  0.99950  0.76880  Biso   1.000  C
  C8       1.0000 0.06700  0.72780  0.80830  Biso   1.000  C
  C9       1.0000 0.08250  0.76780  0.93260  Biso   1.000  C
  C10      1.0000 0.09310  0.73640  0.99810  Biso   1.000  C
  C11      1.0000 0.97800  0.63890  0.86680  Biso   1.000  C
  C12      1.0000 0.96770  0.55470  0.82480  Biso   1.000  C
  C13      1.0000 0.37660  0.77790  0.79820  Biso   1.000  C
  C14      1.0000 0.35290  0.74110  0.67290  Biso   1.000  C
  C15      1.0000 0.26010  0.70810  0.64300  Biso   1.000  C
  C16      1.0000 0.45670  0.70230  0.74530  Biso   1.000  C
  C17      1.0000 0.46230  0.64390  0.79230  Biso   1.000  C
  C18      1.0000 0.27730  0.49610  0.87660  Biso   1.000  C
  C19      1.0000 0.26480  0.41520  0.84200  Biso   1.000  C
  C20      1.0000 0.30560  0.36830  0.87280  Biso   1.000  C
  C21      1.0000 0.35860  0.39880  0.93670  Biso   1.000  C
  C22      1.0000 0.37230  0.47820  0.96860  Biso   1.000  C
  C23      1.0000 0.33270  0.52950  0.94090  Biso   1.000  C
  C24      1.0000 0.40310  0.34550  0.96840  Biso   1.000  C
  C25      1.0000 0.20450  0.37930  0.77410  Biso   1.000  C
  C26      1.0000 0.31350  0.41180  0.70330  Biso   1.000  C
  C27      1.0000 0.34900  0.46950  0.65830  Biso   1.000  C
  C28      1.0000 0.16690  0.38310  0.65880  Biso   1.000  C
  C29      1.0000 0.09430  0.41840  0.66220  Biso   1.000  C
  C30      1.0000 0.34980  0.61550  0.97660  Biso   1.000  C
  C31      1.0000 0.23950  0.56600  0.04260  Biso   1.000  C
  C32      1.0000 0.16840  0.48980  0.99780  Biso   1.000  C
  C33      1.0000 0.30530  0.71510  0.04790  Biso   1.000  C
  C34      1.0000 0.30960  0.77850  0.00560  Biso   1.000  C
  C35      1.0000 0.05300  0.07850  0.35600  Biso   1.000  C
  C36      1.0000 0.01860  0.01140  0.38680  Biso   1.000  C
  C37      1.0000 0.94180  0.00220  0.40870  Biso   1.000  C
  C38      1.0000 0.89950  0.05820  0.40170  Biso   1.000  C
  C39      1.0000 0.93420  0.12350  0.37250  Biso   1.000  C
  C40      1.0000 0.01110  0.13560  0.35030  Biso   1.000  C
  C41      1.0000 0.81600  0.04780  0.42600  Biso   1.000  C
  C42      1.0000 0.06650  0.95390  0.39950  Biso   1.000  C
  C43      1.0000 0.97710  0.85240  0.29590  Biso   1.000  C
  C44      1.0000 0.95510  0.89420  0.23910  Biso   1.000  C
  C45      1.0000 0.10370  0.83530  0.35650  Biso   1.000  C
  C46      1.0000 0.19920  0.86870  0.36960  Biso   1.000  C
  C47      1.0000 0.04670  0.20640  0.31500  Biso   1.000  C
  C48      1.0000 0.12550  0.31780  0.41600  Biso   1.000  C
  C49      1.0000 0.21500  0.36840  0.45740  Biso   1.000  C
  C50      1.0000 0.16100  0.32480  0.30560  Biso   1.000  C
  C51      1.0000 0.19730  0.28420  0.25130  Biso   1.000  C
  C52      1.0000 0.36250  0.08950  0.34830  Biso   1.000  C
  C53      1.0000 0.40120  0.10440  0.41870  Biso   1.000  C
  C54      1.0000 0.47890  0.09430  0.43430  Biso   1.000  C
  C55      1.0000 0.52050  0.06870  0.38510  Biso   1.000  C
  C56      1.0000 0.48040  0.05280  0.31730  Biso   1.000  C
  C57      1.0000 0.40240  0.06360  0.29820  Biso   1.000  C
  C58      1.0000 0.60540  0.05590  0.40290  Biso   1.000  C
  C59      1.0000 0.22180  0.19770  0.53140  Biso   1.000  C
  C60      1.0000 0.35740  0.12620  0.47520  Biso   1.000  C
  C61      1.0000 0.29370  0.89780  0.20970  Biso   1.000  C
  C62      1.0000 0.36310  0.04900  0.22500  Biso   1.000  C
  C63      1.0000 0.45350  0.29760  0.42290  Biso   1.000  C
  C64      1.0000 0.31780  0.22750  0.54550  Biso   1.000  C
  C65      1.0000 0.20800  0.82900  0.20200  Biso   1.000  C
  C66      1.0000 0.43790  0.27530  0.48940  Biso   1.000  C
  C67      1.0000 0.24620  0.96980  0.13070  Biso   1.000  C
  C68      1.0000 0.19480  0.02360  0.12280  Biso   1.000  C
  C69      1.0000 0.78010  0.24820  0.20000  Biso   1.000  C
  C70      1.0000 0.84530  0.21780  0.19760  Biso   1.000  C
  C71      1.0000 0.83480  0.13730  0.20890  Biso   1.000  C
  C72      1.0000 0.75870  0.08480  0.21860  Biso   1.000  C
  C73      1.0000 0.69260  0.11610  0.21740  Biso   1.000  C
  C74      1.0000 0.70040  0.19550  0.20750  Biso   1.000  C
  C75      1.0000 0.74690  0.00050  0.23120  Biso   1.000  C
  C76      1.0000 0.93300  0.27220  0.19170  Biso   1.000  C
  C77      1.0000 0.91750  0.23220  0.06740  Biso   1.000  C
  C78      1.0000 0.90690  0.26360  0.00190  Biso   1.000  C
  C79      1.0000 0.02200  0.36110  0.13320  Biso   1.000  C
  C80      1.0000 0.03230  0.44530  0.17520  Biso   1.000  C
  C81      1.0000 0.62340  0.22210  0.20180  Biso   1.000  C
  C82      1.0000 0.64710  0.25890  0.32710  Biso   1.000  C
  C83      1.0000 0.73990  0.29190  0.35700  Biso   1.000  C
  C84      1.0000 0.54330  0.29770  0.25470  Biso   1.000  C
  C85      1.0000 0.53770  0.35610  0.20770  Biso   1.000  C
  C86      1.0000 0.72270  0.50390  0.12340  Biso   1.000  C
  C87      1.0000 0.73520  0.58480  0.15800  Biso   1.000  C
  C88      1.0000 0.69440  0.63170  0.12720  Biso   1.000  C
  C89      1.0000 0.64140  0.60120  0.06330  Biso   1.000  C
  C90      1.0000 0.62770  0.52180  0.03140  Biso   1.000  C
  C91      1.0000 0.66730  0.47050  0.05910  Biso   1.000  C
  C92      1.0000 0.59690  0.65450  0.03160  Biso   1.000  C
  C93      1.0000 0.79550  0.62070  0.22590  Biso   1.000  C
  C94      1.0000 0.68650  0.58820  0.29670  Biso   1.000  C
  C95      1.0000 0.65100  0.53050  0.34170  Biso   1.000  C
  C96      1.0000 0.83310  0.61690  0.34120  Biso   1.000  C
  C97      1.0000 0.90570  0.58160  0.33780  Biso   1.000  C
  C98      1.0000 0.65020  0.38450  0.02340  Biso   1.000  C
  C99      1.0000 0.76050  0.43400  0.95740  Biso   1.000  C
  C100     1.0000 0.83160  0.51020  0.00220  Biso   1.000  C
  C101     1.0000 0.69470  0.28490  0.95210  Biso   1.000  C
  C102     1.0000 0.69040  0.22150  0.99440  Biso   1.000  C
  C103     1.0000 0.94700  0.92150  0.64400  Biso   1.000  C
  C104     1.0000 0.98140  0.98860  0.61320  Biso   1.000  C
  C105     1.0000 0.05820  0.99780  0.59130  Biso   1.000  C
  C106     1.0000 0.10050  0.94180  0.59830  Biso   1.000  C
  C107     1.0000 0.06580  0.87650  0.62750  Biso   1.000  C
  C108     1.0000 0.98890  0.86440  0.64970  Biso   1.000  C
  C109     1.0000 0.18400  0.95220  0.57400  Biso   1.000  C
  C110     1.0000 0.93350  0.04610  0.60050  Biso   1.000  C
  C111     1.0000 0.02290  0.14760  0.70410  Biso   1.000  C
  C112     1.0000 0.04490  0.10580  0.76090  Biso   1.000  C
  C113     1.0000 0.89630  0.16470  0.64350  Biso   1.000  C
  C114     1.0000 0.80080  0.13130  0.63040  Biso   1.000  C
  C115     1.0000 0.95330  0.79360  0.68500  Biso   1.000  C
  C116     1.0000 0.87450  0.68220  0.58400  Biso   1.000  C
  C117     1.0000 0.78500  0.63160  0.54260  Biso   1.000  C
  C118     1.0000 0.83900  0.67520  0.69440  Biso   1.000  C
  C119     1.0000 0.80270  0.71580  0.74870  Biso   1.000  C
  C120     1.0000 0.63750  0.91050  0.65170  Biso   1.000  C
  C121     1.0000 0.59880  0.89560  0.58130  Biso   1.000  C
  C122     1.0000 0.52110  0.90570  0.56570  Biso   1.000  C
  C123     1.0000 0.47950  0.93130  0.61490  Biso   1.000  C
  C124     1.0000 0.51960  0.94720  0.68270  Biso   1.000  C
  C125     1.0000 0.59760  0.93640  0.70180  Biso   1.000  C
  C126     1.0000 0.39460  0.94410  0.59710  Biso   1.000  C
  C127     1.0000 0.77820  0.80230  0.46860  Biso   1.000  C
  C128     1.0000 0.64260  0.87380  0.52480  Biso   1.000  C
  C129     1.0000 0.70630  0.10220  0.79030  Biso   1.000  C
  C130     1.0000 0.63690  0.95100  0.77500  Biso   1.000  C
  C131     1.0000 0.54650  0.70240  0.57710  Biso   1.000  C
  C132     1.0000 0.68220  0.77250  0.45450  Biso   1.000  C
  C133     1.0000 0.79200  0.17100  0.79800  Biso   1.000  C
  C134     1.0000 0.56210  0.72470  0.51060  Biso   1.000  C
  C135     1.0000 0.75380  0.03020  0.86930  Biso   1.000  C
  C136     1.0000 0.80520  0.97640  0.87720  Biso   1.000  C
  N1       1.0000 0.35340  0.21130  0.48450  Biso   1.000  N
  N2       1.0000 0.06500  0.69910  0.87420  Biso   1.000  N
  N3       1.0000 0.37350  0.71420  0.73710  Biso   1.000  N
  N4       1.0000 0.23480  0.42180  0.71890  Biso   1.000  N
  N5       1.0000 0.27630  0.62920  0.00530  Biso   1.000  N
  N6       1.0000 0.06590  0.89520  0.33590  Biso   1.000  N
  N7       1.0000 0.13110  0.26820  0.35080  Biso   1.000  N
  N8       1.0000 0.28200  0.97590  0.20280  Biso   1.000  N
  N9       1.0000 0.64660  0.78870  0.51550  Biso   1.000  N
  N10      1.0000 0.93500  0.30090  0.12580  Biso   1.000  N
  N11      1.0000 0.62650  0.28580  0.26290  Biso   1.000  N
  N12      1.0000 0.76520  0.57820  0.28110  Biso   1.000  N
  N13      1.0000 0.72370  0.37080  0.99470  Biso   1.000  N
  N14      1.0000 0.93410  0.10480  0.66410  Biso   1.000  N
  N15      1.0000 0.86890  0.73180  0.64920  Biso   1.000  N
  N16      1.0000 0.71800  0.02410  0.79720  Biso   1.000  N
  O1       1.0000 0.14450  0.84990  0.21060  Biso   1.000  O
  O2       1.0000 0.18360  0.17690  0.46970  Biso   1.000  O
  O3       1.0000 0.16280  0.04490  0.17330  Biso   1.000  O
  O4       1.0000 0.38990  0.28070  0.37430  Biso   1.000  O
  O5       1.0000 0.21050  0.67270  0.80700  Biso   1.000  O
  O6       1.0000 0.11270  0.67210  0.99440  Biso   1.000  O
  O7       1.0000 0.08170  0.77620  0.05040  Biso   1.000  O
  O8       1.0000 0.03360  0.53460  0.82930  Biso   1.000  O
  O9       1.0000 0.89490  0.51120  0.79130  Biso   1.000  O
  O10      1.0000 0.21430  0.63980  0.65690  Biso   1.000  O
  O11      1.0000 0.23090  0.74630  0.60530  Biso   1.000  O
  O12      1.0000 0.39420  0.59700  0.80400  Biso   1.000  O
  O13      1.0000 0.53350  0.64360  0.81600  Biso   1.000  O
  O14      1.0000 0.23780  0.54310  0.84860  Biso   1.000  O
  O15      1.0000 0.32330  0.53120  0.65540  Biso   1.000  O
  O16      1.0000 0.40420  0.45680  0.62600  Biso   1.000  O
  O17      1.0000 0.11630  0.49340  0.69470  Biso   1.000  O
  O18      1.0000 0.02190  0.37350  0.63150  Biso   1.000  O
  O19      1.0000 0.12450  0.50260  0.94740  Biso   1.000  O
  O20      1.0000 0.15430  0.42070  0.01420  Biso   1.000  O
  O21      1.0000 0.26800  0.75540  0.94500  Biso   1.000  O
  O22      1.0000 0.34990  0.85390  0.03340  Biso   1.000  O
  O23      1.0000 0.12660  0.08780  0.33280  Biso   1.000  O
  O24      1.0000 0.01690  0.94150  0.21850  Biso   1.000  O
  O25      1.0000 0.88000  0.87560  0.21380  Biso   1.000  O
  O26      1.0000 0.23520  0.93460  0.35090  Biso   1.000  O
  O27      1.0000 0.23790  0.82690  0.39540  Biso   1.000  O
  O28      1.0000 0.27630  0.34420  0.44400  Biso   1.000  O
  O29      1.0000 0.22430  0.43170  0.50250  Biso   1.000  O
  O30      1.0000 0.23480  0.23660  0.26800  Biso   1.000  O
  O31      1.0000 0.18820  0.30080  0.19270  Biso   1.000  O
  O32      1.0000 0.28650  0.09810  0.33210  Biso   1.000  O
  O33      1.0000 0.18520  0.19850  0.58120  Biso   1.000  O
  O34      1.0000 0.52810  0.33750  0.41890  Biso   1.000  O
  O35      1.0000 0.20580  0.75640  0.18990  Biso   1.000  O
  O36      1.0000 0.18160  0.04170  0.06640  Biso   1.000  O
  O37      1.0000 0.78300  0.33260  0.67900  Biso   1.000  O
  O38      1.0000 0.90690  0.70770  0.10660  Biso   1.000  O
  O39      1.0000 0.41790  0.48510  0.46030  Biso   1.000  O
  O40      1.0000 0.89530  0.49330  0.46800  Biso   1.000  O
  O41      1.0000 0.02260  0.63450  0.23390  Biso   1.000  O
  O42      1.0000 0.05630  0.59180  0.09410  Biso   1.000  O
  O43      1.0000 0.99690  0.55700  0.64640  Biso   1.000  O
  O44      1.0000 0.94250  0.32520  0.44140  Biso   1.000  O
  O45      1.0000 0.31110  0.62650  0.47680  Biso   1.000  O
  O46      1.0000 0.68160  0.35010  0.78750  Biso   1.000  O
  O47      1.0000 0.85550  0.15010  0.78940  Biso   1.000  O
  O48      1.0000 0.81640  0.82310  0.53030  Biso   1.000  O
  O49      1.0000 0.83720  0.95510  0.82670  Biso   1.000  O
  O50      1.0000 0.61010  0.71930  0.62570  Biso   1.000  O
  O51      1.0000 0.78950  0.32730  0.19300  Biso   1.000  O
  O52      1.0000 0.88730  0.32790  0.00560  Biso   1.000  O
  O53      1.0000 0.91830  0.22380  0.94960  Biso   1.000  O
  O54      1.0000 0.96640  0.46540  0.17070  Biso   1.000  O
  O55      1.0000 0.10510  0.48880  0.20870  Biso   1.000  O
  O56      1.0000 0.78570  0.36020  0.34310  Biso   1.000  O
  O57      1.0000 0.76910  0.25370  0.39470  Biso   1.000  O
  O58      1.0000 0.60580  0.40300  0.19600  Biso   1.000  O
  O59      1.0000 0.46650  0.35640  0.18400  Biso   1.000  O
  O60      1.0000 0.76220  0.45690  0.15140  Biso   1.000  O
  O61      1.0000 0.67670  0.46880  0.34460  Biso   1.000  O
  O62      1.0000 0.59580  0.54320  0.37400  Biso   1.000  O
  O63      1.0000 0.88370  0.50660  0.30530  Biso   1.000  O
  O64      1.0000 0.97810  0.62650  0.36850  Biso   1.000  O
  O65      1.0000 0.87550  0.49740  0.05260  Biso   1.000  O
  O66      1.0000 0.84570  0.57930  0.98580  Biso   1.000  O
  O67      1.0000 0.73200  0.24460  0.05500  Biso   1.000  O
  O68      1.0000 0.65010  0.14610  0.96660  Biso   1.000  O
  O69      1.0000 0.87340  0.91220  0.66720  Biso   1.000  O
  O70      1.0000 0.98310  0.05850  0.78150  Biso   1.000  O
  O71      1.0000 0.12000  0.12440  0.78620  Biso   1.000  O
  O72      1.0000 0.76480  0.06540  0.64910  Biso   1.000  O
  O73      1.0000 0.76210  0.17310  0.60460  Biso   1.000  O
  O74      1.0000 0.72370  0.65580  0.55600  Biso   1.000  O
  O75      1.0000 0.77570  0.56830  0.49750  Biso   1.000  O
  O76      1.0000 0.76520  0.76340  0.73200  Biso   1.000  O
  O77      1.0000 0.81180  0.69920  0.80730  Biso   1.000  O
  O78      1.0000 0.71350  0.90190  0.66790  Biso   1.000  O
  O79      1.0000 0.81480  0.80150  0.41880  Biso   1.000  O
  O80      1.0000 0.47190  0.66250  0.58110  Biso   1.000  O
  O81      1.0000 0.79420  0.24360  0.81010  Biso   1.000  O
  O82      1.0000 0.81840  0.95830  0.93360  Biso   1.000  O
  O83      1.0000 0.21700  0.66740  0.32100  Biso   1.000  O
  O84      1.0000 0.09310  0.29230  0.89340  Biso   1.000  O
  O85      1.0000 0.58210  0.51490  0.53970  Biso   1.000  O
  O86      1.0000 0.10470  0.50670  0.53200  Biso   1.000  O
  O87      1.0000 0.97740  0.36550  0.76610  Biso   1.000  O
  O88      1.0000 0.94370  0.40820  0.90590  Biso   1.000  O
  O89      1.0000 0.00310  0.44300  0.35360  Biso   1.000  O
  O90      1.0000 0.05750  0.67480  0.55860  Biso   1.000  O
  O91      1.0000 0.68890  0.37350  0.52320  Biso   1.000  O
  O92      1.0000 0.31840  0.64990  0.21250  Biso   1.000  O
