data_image0
_cell_length_a       10.151
_cell_length_b       11.6954
_cell_length_c       14.9162
_cell_angle_alpha    91.642
_cell_angle_beta     90
_cell_angle_gamma    90

_symmetry_space_group_name_H-M    P 1
_symmetry_int_tables_number       1

loop_
  _symmetry_equiv_pos_as_xyz
  'x, y, z'

loop_
  _atom_site_label
  _atom_site_occupancy
  _atom_site_fract_x
  _atom_site_fract_y
  _atom_site_fract_z
  _atom_site_thermal_displace_type
  _atom_site_B_iso_or_equiv
  _atom_site_type_symbol
  Mn1      1.0000 0.10269  0.76039  0.18599  Biso   1.000  Mn
  Mn2      1.0000 0.91740  0.74321  0.36901  Biso   1.000  Mn
  Mn3      1.0000 0.60269  0.73961  0.31401  Biso   1.000  Mn
  Mn4      1.0000 0.41740  0.75679  0.13099  Biso   1.000  Mn
  Mn5      1.0000 0.89731  0.23961  0.81401  Biso   1.000  Mn
  Mn6      1.0000 0.08260  0.25679  0.63099  Biso   1.000  Mn
  Mn7      1.0000 0.39731  0.26039  0.68599  Biso   1.000  Mn
  Mn8      1.0000 0.58260  0.24321  0.86901  Biso   1.000  Mn
  Mn9      1.0000 0.00000  0.50000  0.50000  Biso   1.000  Mn
  Mn10     1.0000 0.50000  0.00000  0.00000  Biso   1.000  Mn
  Mn11     1.0000 0.00000  0.00000  0.50000  Biso   1.000  Mn
  Mn12     1.0000 0.50000  0.50000  0.00000  Biso   1.000  Mn
  H1       1.0000 0.24730  0.85520  0.37140  Biso   1.000  H
  H2       1.0000 0.83890  0.19120  0.42930  Biso   1.000  H
  H3       1.0000 0.01300  0.01690  0.23320  Biso   1.000  H
  H4       1.0000 0.38460  0.05140  0.54380  Biso   1.000  H
  H5       1.0000 0.19660  0.52300  0.26410  Biso   1.000  H
  H6       1.0000 0.70590  0.49800  0.48500  Biso   1.000  H
  H7       1.0000 0.74730  0.64480  0.12860  Biso   1.000  H
  H8       1.0000 0.33890  0.30880  0.07070  Biso   1.000  H
  H9       1.0000 0.51300  0.48310  0.26680  Biso   1.000  H
  H10      1.0000 0.88460  0.44860  0.95620  Biso   1.000  H
  H11      1.0000 0.69660  0.97700  0.23590  Biso   1.000  H
  H12      1.0000 0.20590  0.00200  0.01500  Biso   1.000  H
  H13      1.0000 0.75270  0.14480  0.62860  Biso   1.000  H
  H14      1.0000 0.16110  0.80880  0.57070  Biso   1.000  H
  H15      1.0000 0.98700  0.98310  0.76680  Biso   1.000  H
  H16      1.0000 0.61540  0.94860  0.45620  Biso   1.000  H
  H17      1.0000 0.80340  0.47700  0.73590  Biso   1.000  H
  H18      1.0000 0.29410  0.50200  0.51500  Biso   1.000  H
  H19      1.0000 0.25270  0.35520  0.87140  Biso   1.000  H
  H20      1.0000 0.66110  0.69120  0.92930  Biso   1.000  H
  H21      1.0000 0.48700  0.51690  0.73320  Biso   1.000  H
  H22      1.0000 0.11540  0.55140  0.04380  Biso   1.000  H
  H23      1.0000 0.30340  0.02300  0.76410  Biso   1.000  H
  H24      1.0000 0.79410  0.99800  0.98500  Biso   1.000  H
  C1       1.0000 0.32150  0.82940  0.32944  Biso   1.000  C
  C2       1.0000 0.13130  0.55240  0.31473  Biso   1.000  C
  C3       1.0000 0.01330  0.98008  0.28962  Biso   1.000  C
  C4       1.0000 0.28950  0.07350  0.55150  Biso   1.000  C
  C5       1.0000 0.72020  0.56570  0.44537  Biso   1.000  C
  C6       1.0000 0.89990  0.24216  0.46728  Biso   1.000  C
  C7       1.0000 0.82150  0.67060  0.17056  Biso   1.000  C
  C8       1.0000 0.63130  0.94760  0.18527  Biso   1.000  C
  C9       1.0000 0.51330  0.51992  0.21038  Biso   1.000  C
  C10      1.0000 0.78950  0.42650  0.94850  Biso   1.000  C
  C11      1.0000 0.22020  0.93430  0.05463  Biso   1.000  C
  C12      1.0000 0.39990  0.25784  0.03272  Biso   1.000  C
  C13      1.0000 0.67850  0.17060  0.67056  Biso   1.000  C
  C14      1.0000 0.86870  0.44760  0.68527  Biso   1.000  C
  C15      1.0000 0.98670  0.01992  0.71038  Biso   1.000  C
  C16      1.0000 0.71050  0.92650  0.44850  Biso   1.000  C
  C17      1.0000 0.27980  0.43430  0.55463  Biso   1.000  C
  C18      1.0000 0.10010  0.75784  0.53272  Biso   1.000  C
  C19      1.0000 0.17850  0.32940  0.82944  Biso   1.000  C
  C20      1.0000 0.36870  0.05240  0.81473  Biso   1.000  C
  C21      1.0000 0.48670  0.48008  0.78962  Biso   1.000  C
  C22      1.0000 0.21050  0.57350  0.05150  Biso   1.000  C
  C23      1.0000 0.77980  0.06570  0.94537  Biso   1.000  C
  C24      1.0000 0.60010  0.74216  0.96728  Biso   1.000  C
  O1       1.0000 0.29583  0.80660  0.24818  Biso   1.000  O
  O2       1.0000 0.83909  0.59870  0.43906  Biso   1.000  O
  O3       1.0000 0.97161  0.18624  0.52102  Biso   1.000  O
  O4       1.0000 0.26108  0.15360  0.60717  Biso   1.000  O
  O5       1.0000 0.07801  0.64874  0.30339  Biso   1.000  O
  O6       1.0000 0.00284  0.87254  0.28166  Biso   1.000  O
  O7       1.0000 0.00070  0.03714  0.35912  Biso   1.000  O
  O8       1.0000 0.62407  0.60713  0.40734  Biso   1.000  O
  O9       1.0000 0.42893  0.81504  0.36733  Biso   1.000  O
  O10      1.0000 0.89537  0.34637  0.46262  Biso   1.000  O
  O11      1.0000 0.11130  0.48822  0.37675  Biso   1.000  O
  O12      1.0000 0.21121  0.01833  0.50420  Biso   1.000  O
  O13      1.0000 0.79583  0.69340  0.25182  Biso   1.000  O
  O14      1.0000 0.33909  0.90130  0.06094  Biso   1.000  O
  O15      1.0000 0.47161  0.31376  0.97898  Biso   1.000  O
  O16      1.0000 0.76108  0.34640  0.89283  Biso   1.000  O
  O17      1.0000 0.57801  0.85126  0.19661  Biso   1.000  O
  O18      1.0000 0.50284  0.62746  0.21834  Biso   1.000  O
  O19      1.0000 0.50070  0.46286  0.14088  Biso   1.000  O
  O20      1.0000 0.12407  0.89287  0.09266  Biso   1.000  O
  O21      1.0000 0.92893  0.68496  0.13267  Biso   1.000  O
  O22      1.0000 0.39537  0.15363  0.03738  Biso   1.000  O
  O23      1.0000 0.61130  0.01178  0.12325  Biso   1.000  O
  O24      1.0000 0.71121  0.48167  0.99580  Biso   1.000  O
  O25      1.0000 0.70417  0.19340  0.75182  Biso   1.000  O
  O26      1.0000 0.16091  0.40130  0.56094  Biso   1.000  O
  O27      1.0000 0.02839  0.81376  0.47898  Biso   1.000  O
  O28      1.0000 0.73892  0.84640  0.39283  Biso   1.000  O
  O29      1.0000 0.92199  0.35126  0.69661  Biso   1.000  O
  O30      1.0000 0.99716  0.12746  0.71834  Biso   1.000  O
  O31      1.0000 0.99930  0.96286  0.64088  Biso   1.000  O
  O32      1.0000 0.37593  0.39287  0.59266  Biso   1.000  O
  O33      1.0000 0.57107  0.18496  0.63267  Biso   1.000  O
  O34      1.0000 0.10463  0.65363  0.53738  Biso   1.000  O
  O35      1.0000 0.88870  0.51178  0.62325  Biso   1.000  O
  O36      1.0000 0.78879  0.98167  0.49580  Biso   1.000  O
  O37      1.0000 0.20417  0.30660  0.74818  Biso   1.000  O
  O38      1.0000 0.66091  0.09870  0.93906  Biso   1.000  O
  O39      1.0000 0.52839  0.68624  0.02102  Biso   1.000  O
  O40      1.0000 0.23892  0.65360  0.10717  Biso   1.000  O
  O41      1.0000 0.42199  0.14874  0.80339  Biso   1.000  O
  O42      1.0000 0.49716  0.37254  0.78166  Biso   1.000  O
  O43      1.0000 0.49930  0.53714  0.85912  Biso   1.000  O
  O44      1.0000 0.87593  0.10713  0.90734  Biso   1.000  O
  O45      1.0000 0.07107  0.31504  0.86733  Biso   1.000  O
  O46      1.0000 0.60463  0.84637  0.96262  Biso   1.000  O
  O47      1.0000 0.38870  0.98822  0.87675  Biso   1.000  O
  O48      1.0000 0.28879  0.51833  0.00420  Biso   1.000  O
