data_image0
_cell_length_a       11.6575
_cell_length_b       10.1053
_cell_length_c       14.879
_cell_angle_alpha    90
_cell_angle_beta     91.633
_cell_angle_gamma    90

_symmetry_space_group_name_H-M    "P 1"
_symmetry_int_tables_number       1

loop_
  _symmetry_equiv_pos_as_xyz
  'x, y, z'

loop_
  _atom_site_label
  _atom_site_occupancy
  _atom_site_fract_x
  _atom_site_fract_y
  _atom_site_fract_z
  _atom_site_thermal_displace_type
  _atom_site_B_iso_or_equiv
  _atom_site_type_symbol
  Mn1      1.0000 0.73947  0.59944  0.31509  Biso   1.000  Mn
  Mn2      1.0000 0.24317  0.58462  0.86883  Biso   1.000  Mn
  O1       1.0000 0.09858  0.66260  0.93979  Biso   1.000  O
  O2       1.0000 0.68612  0.52880  0.02157  Biso   1.000  O
  O3       1.0000 0.85165  0.57600  0.19750  Biso   1.000  O
  O4       1.0000 0.62704  0.49810  0.21960  Biso   1.000  O
  O5       1.0000 0.51900  0.28760  0.00203  Biso   1.000  O
  O6       1.0000 0.69174  0.79190  0.25249  Biso   1.000  O
  O7       1.0000 0.10660  0.87960  0.90936  Biso   1.000  O
  O8       1.0000 0.65347  0.23670  0.10685  Biso   1.000  O
  O9       1.0000 0.46123  0.49770  0.14117  Biso   1.000  O
  O10      1.0000 0.68420  0.92470  0.13167  Biso   1.000  O
  O11      1.0000 0.01290  0.61160  0.12341  Biso   1.000  O
  O12      1.0000 0.84620  0.60740  0.96224  Biso   1.000  O
  C1       1.0000 0.94770  0.63100  0.18600  Biso   1.000  C
  C2       1.0000 0.66940  0.81720  0.17000  Biso   1.000  C
  C3       1.0000 0.57350  0.20810  0.04950  Biso   1.000  C
  C4       1.0000 0.51860  0.50920  0.21170  Biso   1.000  C
  C5       1.0000 0.06540  0.78230  0.94730  Biso   1.000  C
  C6       1.0000 0.74120  0.60280  0.96780  Biso   1.000  C
  H1       1.0000 0.01880  0.78220  0.97770  Biso   1.000  H
  H2       1.0000 0.55400  0.11310  0.04210  Biso   1.000  H
  H3       1.0000 0.64570  0.74900  0.13440  Biso   1.000  H
  H4       1.0000 0.47810  0.51300  0.27040  Biso   1.000  H
  H5       1.0000 0.69190  0.66420  0.92730  Biso   1.000  H
  H6       1.0000 0.97940  0.68170  0.23190  Biso   1.000  H
  Mn3      1.0000 0.76053  0.09944  0.18491  Biso   1.000  Mn
  Mn4      1.0000 0.25683  0.08462  0.63117  Biso   1.000  Mn
  O13      1.0000 0.40142  0.16260  0.56021  Biso   1.000  O
  O14      1.0000 0.81388  0.02880  0.47843  Biso   1.000  O
  O15      1.0000 0.64835  0.07600  0.30250  Biso   1.000  O
  O16      1.0000 0.87296  0.99810  0.28040  Biso   1.000  O
  O17      1.0000 0.98100  0.78760  0.49797  Biso   1.000  O
  O18      1.0000 0.80826  0.29190  0.24751  Biso   1.000  O
  O19      1.0000 0.39340  0.37960  0.59064  Biso   1.000  O
  O20      1.0000 0.84653  0.73670  0.39315  Biso   1.000  O
  O21      1.0000 0.03877  0.99770  0.35883  Biso   1.000  O
  O22      1.0000 0.81580  0.42470  0.36833  Biso   1.000  O
  O23      1.0000 0.48710  0.11160  0.37659  Biso   1.000  O
  O24      1.0000 0.65380  0.10740  0.53776  Biso   1.000  O
  C7       1.0000 0.55230  0.13100  0.31400  Biso   1.000  C
  C8       1.0000 0.83060  0.31720  0.33000  Biso   1.000  C
  C9       1.0000 0.92650  0.70810  0.45050  Biso   1.000  C
  C10      1.0000 0.98140  0.00920  0.28830  Biso   1.000  C
  C11      1.0000 0.43460  0.28230  0.55270  Biso   1.000  C
  C12      1.0000 0.75880  0.10280  0.53220  Biso   1.000  C
  H7       1.0000 0.48120  0.28220  0.52230  Biso   1.000  H
  H8       1.0000 0.94600  0.61310  0.45790  Biso   1.000  H
  H9       1.0000 0.85430  0.24900  0.36560  Biso   1.000  H
  H10      1.0000 0.02190  0.01300  0.22960  Biso   1.000  H
  H11      1.0000 0.80810  0.16420  0.57270  Biso   1.000  H
  H12      1.0000 0.52060  0.18170  0.26810  Biso   1.000  H
  Mn5      1.0000 0.26053  0.40056  0.68491  Biso   1.000  Mn
  Mn6      1.0000 0.75683  0.41538  0.13117  Biso   1.000  Mn
  O25      1.0000 0.90142  0.33740  0.06021  Biso   1.000  O
  O26      1.0000 0.31388  0.47120  0.97843  Biso   1.000  O
  O27      1.0000 0.14835  0.42400  0.80250  Biso   1.000  O
  O28      1.0000 0.37296  0.50190  0.78040  Biso   1.000  O
  O29      1.0000 0.48100  0.71240  0.99797  Biso   1.000  O
  O30      1.0000 0.30826  0.20810  0.74751  Biso   1.000  O
  O31      1.0000 0.89340  0.12040  0.09064  Biso   1.000  O
  O32      1.0000 0.34653  0.76330  0.89315  Biso   1.000  O
  O33      1.0000 0.53877  0.50230  0.85883  Biso   1.000  O
  O34      1.0000 0.31580  0.07530  0.86833  Biso   1.000  O
  O35      1.0000 0.98710  0.38840  0.87659  Biso   1.000  O
  O36      1.0000 0.15380  0.39260  0.03776  Biso   1.000  O
  C13      1.0000 0.05230  0.36900  0.81400  Biso   1.000  C
  C14      1.0000 0.33060  0.18280  0.83000  Biso   1.000  C
  C15      1.0000 0.42650  0.79190  0.95050  Biso   1.000  C
  C16      1.0000 0.48140  0.49080  0.78830  Biso   1.000  C
  C17      1.0000 0.93460  0.21770  0.05270  Biso   1.000  C
  C18      1.0000 0.25880  0.39720  0.03220  Biso   1.000  C
  H13      1.0000 0.98120  0.21780  0.02230  Biso   1.000  H
  H14      1.0000 0.44600  0.88690  0.95790  Biso   1.000  H
  H15      1.0000 0.35430  0.25100  0.86560  Biso   1.000  H
  H16      1.0000 0.52190  0.48700  0.72960  Biso   1.000  H
  H17      1.0000 0.30810  0.33580  0.07270  Biso   1.000  H
  H18      1.0000 0.02060  0.31830  0.76810  Biso   1.000  H
  Mn7      1.0000 0.23947  0.90056  0.81509  Biso   1.000  Mn
  Mn8      1.0000 0.74317  0.91538  0.36883  Biso   1.000  Mn
  O37      1.0000 0.59858  0.83740  0.43979  Biso   1.000  O
  O38      1.0000 0.18612  0.97120  0.52157  Biso   1.000  O
  O39      1.0000 0.35165  0.92400  0.69750  Biso   1.000  O
  O40      1.0000 0.12704  0.00190  0.71960  Biso   1.000  O
  O41      1.0000 0.01900  0.21240  0.50203  Biso   1.000  O
  O42      1.0000 0.19174  0.70810  0.75249  Biso   1.000  O
  O43      1.0000 0.60660  0.62040  0.40936  Biso   1.000  O
  O44      1.0000 0.15347  0.26330  0.60685  Biso   1.000  O
  O45      1.0000 0.96123  0.00230  0.64117  Biso   1.000  O
  O46      1.0000 0.18420  0.57530  0.63167  Biso   1.000  O
  O47      1.0000 0.51290  0.88840  0.62341  Biso   1.000  O
  O48      1.0000 0.34620  0.89260  0.46224  Biso   1.000  O
  C19      1.0000 0.44770  0.86900  0.68600  Biso   1.000  C
  C20      1.0000 0.16940  0.68280  0.67000  Biso   1.000  C
  C21      1.0000 0.07350  0.29190  0.54950  Biso   1.000  C
  C22      1.0000 0.01860  0.99080  0.71170  Biso   1.000  C
  C23      1.0000 0.56540  0.71770  0.44730  Biso   1.000  C
  C24      1.0000 0.24120  0.89720  0.46780  Biso   1.000  C
  H19      1.0000 0.51880  0.71780  0.47770  Biso   1.000  H
  H20      1.0000 0.05400  0.38690  0.54210  Biso   1.000  H
  H21      1.0000 0.14570  0.75100  0.63440  Biso   1.000  H
  H22      1.0000 0.97810  0.98700  0.77040  Biso   1.000  H
  H23      1.0000 0.19190  0.83580  0.42730  Biso   1.000  H
  H24      1.0000 0.47940  0.81830  0.73190  Biso   1.000  H
  Mn9      1.0000 0.00000  0.50000  0.00000  Biso   1.000  Mn
  Mn10     1.0000 0.50000  0.00000  0.50000  Biso   1.000  Mn
  Mn11     1.0000 0.50000  0.50000  0.00000  Biso   1.000  Mn
  Mn12     1.0000 0.00000  0.00000  0.50000  Biso   1.000  Mn
