data_image0
_cell_length_a       10.1309
_cell_length_b       11.6829
_cell_length_c       14.8952
_cell_angle_alpha    91.625
_cell_angle_beta     90
_cell_angle_gamma    90

_symmetry_space_group_name_H-M    P 1
_symmetry_int_tables_number       1

loop_
  _symmetry_equiv_pos_as_xyz
  'x, y, z'

loop_
  _atom_site_label
  _atom_site_occupancy
  _atom_site_fract_x
  _atom_site_fract_y
  _atom_site_fract_z
  _atom_site_thermal_displace_type
  _atom_site_B_iso_or_equiv
  _atom_site_type_symbol
  Mn1      1.0000 0.10133  0.76050  0.18548  Biso   1.000  Mn
  Mn2      1.0000 0.58347  0.24323  0.86900  Biso   1.000  Mn
  Mn3      1.0000 0.60133  0.73950  0.31452  Biso   1.000  Mn
  Mn4      1.0000 0.08347  0.25677  0.63100  Biso   1.000  Mn
  Mn5      1.0000 0.89867  0.23950  0.81452  Biso   1.000  Mn
  Mn6      1.0000 0.41653  0.75677  0.13100  Biso   1.000  Mn
  Mn7      1.0000 0.39867  0.26050  0.68548  Biso   1.000  Mn
  Mn8      1.0000 0.91653  0.74323  0.36900  Biso   1.000  Mn
  Mn9      1.0000 0.50000  0.00000  0.00000  Biso   1.000  Mn
  Mn10     1.0000 0.00000  0.50000  0.50000  Biso   1.000  Mn
  Mn11     1.0000 0.50000  0.50000  0.00000  Biso   1.000  Mn
  Mn12     1.0000 0.00000  0.00000  0.50000  Biso   1.000  Mn
  H1       1.0000 0.24820  0.86190  0.37060  Biso   1.000  H
  H2       1.0000 0.88560  0.44670  0.95720  Biso   1.000  H
  H3       1.0000 0.34020  0.30850  0.07610  Biso   1.000  H
  H4       1.0000 0.20330  0.99500  0.01030  Biso   1.000  H
  H5       1.0000 0.30940  0.02410  0.76710  Biso   1.000  H
  H6       1.0000 0.48130  0.51900  0.73320  Biso   1.000  H
  H7       1.0000 0.74820  0.63810  0.12940  Biso   1.000  H
  H8       1.0000 0.38560  0.05330  0.54280  Biso   1.000  H
  H9       1.0000 0.84020  0.19150  0.42390  Biso   1.000  H
  H10      1.0000 0.70330  0.50500  0.48970  Biso   1.000  H
  H11      1.0000 0.80940  0.47590  0.73290  Biso   1.000  H
  H12      1.0000 0.98130  0.98100  0.76680  Biso   1.000  H
  H13      1.0000 0.75180  0.13810  0.62940  Biso   1.000  H
  H14      1.0000 0.11440  0.55330  0.04280  Biso   1.000  H
  H15      1.0000 0.65980  0.69150  0.92390  Biso   1.000  H
  H16      1.0000 0.79670  0.00500  0.98970  Biso   1.000  H
  H17      1.0000 0.69060  0.97590  0.23290  Biso   1.000  H
  H18      1.0000 0.51870  0.48100  0.26680  Biso   1.000  H
  H19      1.0000 0.25180  0.36190  0.87060  Biso   1.000  H
  H20      1.0000 0.61440  0.94670  0.45720  Biso   1.000  H
  H21      1.0000 0.15980  0.80850  0.57610  Biso   1.000  H
  H22      1.0000 0.29670  0.49500  0.51030  Biso   1.000  H
  H23      1.0000 0.19060  0.52410  0.26710  Biso   1.000  H
  H24      1.0000 0.01870  0.01900  0.23320  Biso   1.000  H
  C1       1.0000 0.36930  0.05210  0.81413  Biso   1.000  C
  C2       1.0000 0.31980  0.82980  0.32965  Biso   1.000  C
  C3       1.0000 0.79040  0.42630  0.94936  Biso   1.000  C
  C4       1.0000 0.21960  0.93450  0.05405  Biso   1.000  C
  C5       1.0000 0.48860  0.48040  0.78916  Biso   1.000  C
  C6       1.0000 0.39930  0.25780  0.03280  Biso   1.000  C
  C7       1.0000 0.86930  0.44790  0.68587  Biso   1.000  C
  C8       1.0000 0.81980  0.67020  0.17035  Biso   1.000  C
  C9       1.0000 0.29040  0.07370  0.55064  Biso   1.000  C
  C10      1.0000 0.71960  0.56550  0.44595  Biso   1.000  C
  C11      1.0000 0.98860  0.01960  0.71084  Biso   1.000  C
  C12      1.0000 0.89930  0.24220  0.46720  Biso   1.000  C
  C13      1.0000 0.63070  0.94790  0.18587  Biso   1.000  C
  C14      1.0000 0.68020  0.17020  0.67035  Biso   1.000  C
  C15      1.0000 0.20960  0.57370  0.05064  Biso   1.000  C
  C16      1.0000 0.78040  0.06550  0.94595  Biso   1.000  C
  C17      1.0000 0.51140  0.51960  0.21084  Biso   1.000  C
  C18      1.0000 0.60070  0.74220  0.96720  Biso   1.000  C
  C19      1.0000 0.13070  0.55210  0.31413  Biso   1.000  C
  C20      1.0000 0.18020  0.32980  0.82965  Biso   1.000  C
  C21      1.0000 0.70960  0.92630  0.44936  Biso   1.000  C
  C22      1.0000 0.28040  0.43450  0.55405  Biso   1.000  C
  C23      1.0000 0.01140  0.98040  0.28916  Biso   1.000  C
  C24      1.0000 0.10070  0.75780  0.53280  Biso   1.000  C
  O1       1.0000 0.47178  0.31387  0.97893  Biso   1.000  O
  O2       1.0000 0.29441  0.80685  0.24786  Biso   1.000  O
  O3       1.0000 0.76207  0.34655  0.89320  Biso   1.000  O
  O4       1.0000 0.33845  0.90140  0.06071  Biso   1.000  O
  O5       1.0000 0.49899  0.37271  0.78123  Biso   1.000  O
  O6       1.0000 0.50070  0.53766  0.85892  Biso   1.000  O
  O7       1.0000 0.12276  0.89304  0.09201  Biso   1.000  O
  O8       1.0000 0.38900  0.98780  0.87648  Biso   1.000  O
  O9       1.0000 0.42314  0.14863  0.80294  Biso   1.000  O
  O10      1.0000 0.42699  0.81516  0.36791  Biso   1.000  O
  O11      1.0000 0.71152  0.48132  0.99666  Biso   1.000  O
  O12      1.0000 0.39461  0.15370  0.03742  Biso   1.000  O
  O13      1.0000 0.97178  0.18613  0.52107  Biso   1.000  O
  O14      1.0000 0.79441  0.69315  0.25214  Biso   1.000  O
  O15      1.0000 0.26207  0.15345  0.60680  Biso   1.000  O
  O16      1.0000 0.83845  0.59860  0.43929  Biso   1.000  O
  O17      1.0000 0.99899  0.12729  0.71877  Biso   1.000  O
  O18      1.0000 0.00070  0.96234  0.64108  Biso   1.000  O
  O19      1.0000 0.62276  0.60696  0.40799  Biso   1.000  O
  O20      1.0000 0.88900  0.51220  0.62352  Biso   1.000  O
  O21      1.0000 0.92314  0.35137  0.69706  Biso   1.000  O
  O22      1.0000 0.92699  0.68484  0.13209  Biso   1.000  O
  O23      1.0000 0.21152  0.01868  0.50334  Biso   1.000  O
  O24      1.0000 0.89461  0.34630  0.46258  Biso   1.000  O
  O25      1.0000 0.52822  0.68613  0.02107  Biso   1.000  O
  O26      1.0000 0.70559  0.19315  0.75214  Biso   1.000  O
  O27      1.0000 0.23793  0.65345  0.10680  Biso   1.000  O
  O28      1.0000 0.66155  0.09860  0.93929  Biso   1.000  O
  O29      1.0000 0.50101  0.62729  0.21877  Biso   1.000  O
  O30      1.0000 0.49930  0.46234  0.14108  Biso   1.000  O
  O31      1.0000 0.87724  0.10696  0.90799  Biso   1.000  O
  O32      1.0000 0.61100  0.01220  0.12352  Biso   1.000  O
  O33      1.0000 0.57686  0.85137  0.19706  Biso   1.000  O
  O34      1.0000 0.57301  0.18484  0.63209  Biso   1.000  O
  O35      1.0000 0.28848  0.51868  0.00334  Biso   1.000  O
  O36      1.0000 0.60539  0.84630  0.96258  Biso   1.000  O
  O37      1.0000 0.02822  0.81387  0.47893  Biso   1.000  O
  O38      1.0000 0.20559  0.30685  0.74786  Biso   1.000  O
  O39      1.0000 0.73793  0.84655  0.39320  Biso   1.000  O
  O40      1.0000 0.16155  0.40140  0.56071  Biso   1.000  O
  O41      1.0000 0.00101  0.87271  0.28123  Biso   1.000  O
  O42      1.0000 0.99930  0.03766  0.35892  Biso   1.000  O
  O43      1.0000 0.37724  0.39304  0.59201  Biso   1.000  O
  O44      1.0000 0.11100  0.48780  0.37648  Biso   1.000  O
  O45      1.0000 0.07686  0.64863  0.30294  Biso   1.000  O
  O46      1.0000 0.07301  0.31516  0.86791  Biso   1.000  O
  O47      1.0000 0.78848  0.98132  0.49666  Biso   1.000  O
  O48      1.0000 0.10539  0.65370  0.53742  Biso   1.000  O
