data_image0
_cell_length_a       12.5898
_cell_length_b       14.9339
_cell_length_c       19.739
_cell_angle_alpha    111.35
_cell_angle_beta     101.661
_cell_angle_gamma    93.977

_symmetry_space_group_name_H-M    P 1
_symmetry_int_tables_number       1

loop_
  _symmetry_equiv_pos_as_xyz
  'x, y, z'

loop_
  _atom_site_label
  _atom_site_occupancy
  _atom_site_fract_x
  _atom_site_fract_y
  _atom_site_fract_z
  _atom_site_thermal_displace_type
  _atom_site_B_iso_or_equiv
  _atom_site_type_symbol
  Na1      1.0000 0.89430  0.41030  0.42140  Biso   1.000  Na
  Na2      1.0000 0.02190  0.02680  0.42640  Biso   1.000  Na
  Na3      1.0000 0.62130  0.10840  0.38720  Biso   1.000  Na
  Na4      1.0000 0.83050  0.42550  0.13640  Biso   1.000  Na
  Na5      1.0000 0.35690  0.46180  0.95280  Biso   1.000  Na
  Na6      1.0000 0.05710  0.14530  0.75820  Biso   1.000  Na
  Na7      1.0000 0.89800  0.27840  0.92430  Biso   1.000  Na
  Na8      1.0000 0.10570  0.58970  0.57860  Biso   1.000  Na
  Na9      1.0000 0.97810  0.97320  0.57360  Biso   1.000  Na
  Na10     1.0000 0.37870  0.89160  0.61280  Biso   1.000  Na
  Na11     1.0000 0.16950  0.57450  0.86360  Biso   1.000  Na
  Na12     1.0000 0.64310  0.53820  0.04720  Biso   1.000  Na
  Na13     1.0000 0.94290  0.85470  0.24180  Biso   1.000  Na
  Na14     1.0000 0.10200  0.72160  0.07570  Biso   1.000  Na
  Na15     1.0000 0.50000  0.00000  0.50000  Biso   1.000  Na
  Fe1      1.0000 0.34663  0.35335  0.48166  Biso   1.000  Fe
  Fe2      1.0000 0.79497  0.31641  0.56353  Biso   1.000  Fe
  Fe3      1.0000 0.65337  0.64665  0.51834  Biso   1.000  Fe
  Fe4      1.0000 0.20503  0.68359  0.43647  Biso   1.000  Fe
  Sb1      1.0000 0.40051  0.49158  0.35593  Biso   1.000  Sb
  Sb2      1.0000 0.59949  0.50842  0.64407  Biso   1.000  Sb
  W1       1.0000 0.60529  0.37471  0.41946  Biso   1.000  W
  W2       1.0000 0.45745  0.22825  0.24635  Biso   1.000  W
  W3       1.0000 0.64618  0.41071  0.26783  Biso   1.000  W
  W4       1.0000 0.59635  0.66472  0.34157  Biso   1.000  W
  W5       1.0000 0.45035  0.52270  0.17065  Biso   1.000  W
  W6       1.0000 0.33286  0.68093  0.29261  Biso   1.000  W
  W7       1.0000 0.12020  0.47793  0.26567  Biso   1.000  W
  W8       1.0000 0.23922  0.31884  0.14597  Biso   1.000  W
  W9       1.0000 0.19416  0.28243  0.29355  Biso   1.000  W
  W10      1.0000 0.39471  0.62529  0.58054  Biso   1.000  W
  W11      1.0000 0.54255  0.77175  0.75365  Biso   1.000  W
  W12      1.0000 0.35382  0.58929  0.73217  Biso   1.000  W
  W13      1.0000 0.40365  0.33528  0.65843  Biso   1.000  W
  W14      1.0000 0.54965  0.47730  0.82935  Biso   1.000  W
  W15      1.0000 0.66714  0.31907  0.70739  Biso   1.000  W
  W16      1.0000 0.87980  0.52207  0.73433  Biso   1.000  W
  W17      1.0000 0.76078  0.68116  0.85403  Biso   1.000  W
  W18      1.0000 0.80584  0.71757  0.70645  Biso   1.000  W
  C1       1.0000 0.15370  0.23430  0.47750  Biso   1.000  C
  C2       1.0000 0.23050  0.16380  0.44240  Biso   1.000  C
  C3       1.0000 0.91780  0.18140  0.60260  Biso   1.000  C
  C4       1.0000 0.85220  0.12570  0.52070  Biso   1.000  C
  C5       1.0000 0.84630  0.76570  0.52250  Biso   1.000  C
  C6       1.0000 0.76950  0.83620  0.55760  Biso   1.000  C
  C7       1.0000 0.08220  0.81860  0.39740  Biso   1.000  C
  C8       1.0000 0.14780  0.87430  0.47930  Biso   1.000  C
  O1       1.0000 0.70010  0.33300  0.47670  Biso   1.000  O
  O2       1.0000 0.48090  0.35910  0.44740  Biso   1.000  O
  O3       1.0000 0.63890  0.50420  0.46630  Biso   1.000  O
  O4       1.0000 0.70440  0.38400  0.35220  Biso   1.000  O
  O5       1.0000 0.55260  0.23980  0.33540  Biso   1.000  O
  O6       1.0000 0.50230  0.39640  0.32210  Biso   1.000  O
  O7       1.0000 0.44610  0.10660  0.19330  Biso   1.000  O
  O8       1.0000 0.32900  0.22950  0.28360  Biso   1.000  O
  O9       1.0000 0.57720  0.27580  0.21500  Biso   1.000  O
  O10      1.0000 0.36890  0.27280  0.17270  Biso   1.000  O
  O11      1.0000 0.75670  0.40210  0.22840  Biso   1.000  O
  O12      1.0000 0.66390  0.54620  0.32290  Biso   1.000  O
  O13      1.0000 0.53710  0.43420  0.19340  Biso   1.000  O
  O14      1.0000 0.71070  0.75350  0.37250  Biso   1.000  O
  O15      1.0000 0.42820  0.34310  0.57360  Biso   1.000  O
  O16      1.0000 0.48410  0.74540  0.33080  Biso   1.000  O
  O17      1.0000 0.57470  0.62220  0.23210  Biso   1.000  O
  O18      1.0000 0.43350  0.56170  0.29170  Biso   1.000  O
  O19      1.0000 0.46700  0.51320  0.08340  Biso   1.000  O
  O20      1.0000 0.32280  0.42920  0.14140  Biso   1.000  O
  O21      1.0000 0.36380  0.62630  0.19190  Biso   1.000  O
  O22      1.0000 0.27150  0.77490  0.27770  Biso   1.000  O
  O23      1.0000 0.67670  0.30360  0.61210  Biso   1.000  O
  O24      1.0000 0.20830  0.57930  0.25270  Biso   1.000  O
  O25      1.0000 0.98950  0.50470  0.24370  Biso   1.000  O
  O26      1.0000 0.83310  0.45200  0.63210  Biso   1.000  O
  O27      1.0000 0.12280  0.39630  0.16290  Biso   1.000  O
  O28      1.0000 0.08120  0.36090  0.28230  Biso   1.000  O
  O29      1.0000 0.27410  0.40770  0.27260  Biso   1.000  O
  O30      1.0000 0.19150  0.24970  0.05090  Biso   1.000  O
  O31      1.0000 0.16860  0.23650  0.18360  Biso   1.000  O
  O32      1.0000 0.11670  0.18880  0.30100  Biso   1.000  O
  O33      1.0000 0.25950  0.35970  0.38940  Biso   1.000  O
  O34      1.0000 0.31840  0.20410  0.43700  Biso   1.000  O
  O35      1.0000 0.19680  0.32460  0.50420  Biso   1.000  O
  O36      1.0000 0.90180  0.26910  0.63110  Biso   1.000  O
  O37      1.0000 0.78110  0.17230  0.49660  Biso   1.000  O
  O38      1.0000 0.92920  0.33780  0.51820  Biso   1.000  O
  O39      1.0000 0.86860  0.04370  0.48520  Biso   1.000  O
  O40      1.0000 0.20070  0.07540  0.42140  Biso   1.000  O
  O41      1.0000 0.06160  0.20250  0.47820  Biso   1.000  O
  O42      1.0000 0.97790  0.13880  0.63330  Biso   1.000  O
  O43      1.0000 0.91180  0.54190  0.54020  Biso   1.000  O
  O44      1.0000 0.62420  0.95560  0.41660  Biso   1.000  O
  O45      1.0000 0.66670  0.37710  0.03830  Biso   1.000  O
  O46      1.0000 0.75890  0.57910  0.16940  Biso   1.000  O
  O47      1.0000 0.72160  0.28640  0.90410  Biso   1.000  O
  O48      1.0000 0.19890  0.43930  0.99920  Biso   1.000  O
  O49      1.0000 0.36660  0.29430  0.93010  Biso   1.000  O
  O50      1.0000 0.64780  0.04340  0.60660  Biso   1.000  O
  O51      1.0000 0.90050  0.40400  0.87980  Biso   1.000  O
  O52      1.0000 0.89280  0.26370  0.32340  Biso   1.000  O
  O53      1.0000 0.89990  0.26930  0.12890  Biso   1.000  O
  O54      1.0000 0.74000  0.07300  0.30840  Biso   1.000  O
  O55      1.0000 0.93600  0.43230  0.05140  Biso   1.000  O
  O56      1.0000 0.17840  0.15800  0.87450  Biso   1.000  O
  O57      1.0000 0.90250  0.54390  0.37540  Biso   1.000  O
  O58      1.0000 0.52590  0.15230  0.48590  Biso   1.000  O
  O59      1.0000 0.03450  0.31090  0.78570  Biso   1.000  O
  O60      1.0000 0.96510  0.02820  0.30350  Biso   1.000  O
  O61      1.0000 0.88710  0.14290  0.79920  Biso   1.000  O
  O62      1.0000 0.21790  0.14560  0.71560  Biso   1.000  O
  O63      1.0000 0.48710  0.98870  0.28640  Biso   1.000  O
  O64      1.0000 0.29990  0.66700  0.52330  Biso   1.000  O
  O65      1.0000 0.51910  0.64090  0.55260  Biso   1.000  O
  O66      1.0000 0.36110  0.49580  0.53370  Biso   1.000  O
  O67      1.0000 0.29560  0.61600  0.64780  Biso   1.000  O
  O68      1.0000 0.44740  0.76020  0.66460  Biso   1.000  O
  O69      1.0000 0.49770  0.60360  0.67790  Biso   1.000  O
  O70      1.0000 0.55390  0.89340  0.80670  Biso   1.000  O
  O71      1.0000 0.67100  0.77050  0.71640  Biso   1.000  O
  O72      1.0000 0.42280  0.72420  0.78500  Biso   1.000  O
  O73      1.0000 0.63110  0.72720  0.82730  Biso   1.000  O
  O74      1.0000 0.24330  0.59790  0.77160  Biso   1.000  O
  O75      1.0000 0.33610  0.45380  0.67710  Biso   1.000  O
  O76      1.0000 0.46290  0.56580  0.80660  Biso   1.000  O
  O77      1.0000 0.28930  0.24650  0.62750  Biso   1.000  O
  O78      1.0000 0.57180  0.65690  0.42640  Biso   1.000  O
  O79      1.0000 0.51590  0.25460  0.66920  Biso   1.000  O
  O80      1.0000 0.42530  0.37780  0.76790  Biso   1.000  O
  O81      1.0000 0.56650  0.43830  0.70830  Biso   1.000  O
  O82      1.0000 0.53300  0.48680  0.91660  Biso   1.000  O
  O83      1.0000 0.67720  0.57080  0.85860  Biso   1.000  O
  O84      1.0000 0.63620  0.37370  0.80810  Biso   1.000  O
  O85      1.0000 0.72850  0.22510  0.72230  Biso   1.000  O
  O86      1.0000 0.32330  0.69640  0.38790  Biso   1.000  O
  O87      1.0000 0.79170  0.42070  0.74730  Biso   1.000  O
  O88      1.0000 0.01050  0.49530  0.75630  Biso   1.000  O
  O89      1.0000 0.16690  0.54800  0.36790  Biso   1.000  O
  O90      1.0000 0.87720  0.60370  0.83710  Biso   1.000  O
  O91      1.0000 0.91880  0.63910  0.71770  Biso   1.000  O
  O92      1.0000 0.72590  0.59230  0.72740  Biso   1.000  O
  O93      1.0000 0.80850  0.75030  0.94910  Biso   1.000  O
  O94      1.0000 0.83140  0.76350  0.81640  Biso   1.000  O
  O95      1.0000 0.88330  0.81120  0.69900  Biso   1.000  O
  O96      1.0000 0.74050  0.64030  0.61060  Biso   1.000  O
  O97      1.0000 0.68160  0.79590  0.56300  Biso   1.000  O
  O98      1.0000 0.80320  0.67540  0.49580  Biso   1.000  O
  O99      1.0000 0.09820  0.73090  0.36890  Biso   1.000  O
  O100     1.0000 0.21890  0.82770  0.50340  Biso   1.000  O
  O101     1.0000 0.07080  0.66220  0.48180  Biso   1.000  O
  O102     1.0000 0.13140  0.95630  0.51480  Biso   1.000  O
  O103     1.0000 0.79930  0.92460  0.57860  Biso   1.000  O
  O104     1.0000 0.93840  0.79750  0.52180  Biso   1.000  O
  O105     1.0000 0.02210  0.86120  0.36670  Biso   1.000  O
  O106     1.0000 0.08820  0.45810  0.45980  Biso   1.000  O
  O107     1.0000 0.37580  0.04440  0.58340  Biso   1.000  O
  O108     1.0000 0.33330  0.62290  0.96170  Biso   1.000  O
  O109     1.0000 0.24110  0.42090  0.83060  Biso   1.000  O
  O110     1.0000 0.27840  0.71360  0.09590  Biso   1.000  O
  O111     1.0000 0.80110  0.56070  0.00080  Biso   1.000  O
  O112     1.0000 0.63340  0.70570  0.06990  Biso   1.000  O
  O113     1.0000 0.35220  0.95660  0.39340  Biso   1.000  O
  O114     1.0000 0.09950  0.59600  0.12020  Biso   1.000  O
  O115     1.0000 0.10720  0.73630  0.67660  Biso   1.000  O
  O116     1.0000 0.10010  0.73070  0.87110  Biso   1.000  O
  O117     1.0000 0.26000  0.92700  0.69160  Biso   1.000  O
  O118     1.0000 0.06400  0.56770  0.94860  Biso   1.000  O
  O119     1.0000 0.82160  0.84200  0.12550  Biso   1.000  O
  O120     1.0000 0.09750  0.45610  0.62460  Biso   1.000  O
  O121     1.0000 0.47410  0.84770  0.51410  Biso   1.000  O
  O122     1.0000 0.96550  0.68910  0.21430  Biso   1.000  O
  O123     1.0000 0.03490  0.97180  0.69650  Biso   1.000  O
  O124     1.0000 0.11290  0.85710  0.20080  Biso   1.000  O
  O125     1.0000 0.78210  0.85440  0.28440  Biso   1.000  O
  O126     1.0000 0.51290  0.01130  0.71360  Biso   1.000  O
