data_image0
_cell_length_a       17.5207
_cell_length_b       17.5207
_cell_length_c       15.1261
_cell_angle_alpha    90
_cell_angle_beta     90
_cell_angle_gamma    90

_symmetry_space_group_name_H-M    "P 1"
_symmetry_int_tables_number       1

loop_
  _symmetry_equiv_pos_as_xyz
  'x, y, z'

loop_
  _atom_site_label
  _atom_site_occupancy
  _atom_site_fract_x
  _atom_site_fract_y
  _atom_site_fract_z
  _atom_site_thermal_displace_type
  _atom_site_B_iso_or_equiv
  _atom_site_type_symbol
  Co1      1.0000 0.89933  0.14093  0.96933  Biso   1.000  Co
  C1       1.0000 0.05070  0.12550  0.90260  Biso   1.000  C
  C2       1.0000 0.00450  0.14590  0.82240  Biso   1.000  C
  H1       1.0000 0.01760  0.10980  0.77350  Biso   1.000  H
  C3       1.0000 0.02660  0.22640  0.79460  Biso   1.000  C
  H2       1.0000 0.99900  0.24020  0.74050  Biso   1.000  H
  H3       1.0000 0.08170  0.22860  0.78350  Biso   1.000  H
  H4       1.0000 0.01340  0.26230  0.84180  Biso   1.000  H
  C4       1.0000 0.73540  0.14100  0.88880  Biso   1.000  C
  C5       1.0000 0.65250  0.13100  0.91090  Biso   1.000  C
  C6       1.0000 0.63070  0.12100  0.99720  Biso   1.000  C
  H5       1.0000 0.66800  0.12150  0.04270  Biso   1.000  H
  C7       1.0000 0.55460  0.11010  0.01820  Biso   1.000  C
  H6       1.0000 0.54040  0.10060  0.07780  Biso   1.000  H
  C8       1.0000 0.49810  0.11300  0.95210  Biso   1.000  C
  C9       1.0000 0.52120  0.12410  0.86530  Biso   1.000  C
  H7       1.0000 0.48400  0.12580  0.81970  Biso   1.000  H
  C10      1.0000 0.59790  0.13280  0.84420  Biso   1.000  C
  H8       1.0000 0.61300  0.14000  0.78440  Biso   1.000  H
  C11      1.0000 0.41600  0.10550  0.97480  Biso   1.000  C
  C12      1.0000 0.36560  0.06970  0.91810  Biso   1.000  C
  H9       1.0000 0.38360  0.04630  0.86540  Biso   1.000  H
  C13      1.0000 0.28850  0.06810  0.93870  Biso   1.000  C
  H10      1.0000 0.25440  0.04510  0.89780  Biso   1.000  H
  C14      1.0000 0.30920  0.13000  0.06870  Biso   1.000  C
  H11      1.0000 0.29010  0.15100  0.12220  Biso   1.000  H
  C15      1.0000 0.38660  0.13470  0.05200  Biso   1.000  C
  H12      1.0000 0.41950  0.15810  0.09390  Biso   1.000  H
  N1       1.0000 0.26000  0.09710  0.01280  Biso   1.000  N
  O1       1.0000 0.12163  0.11350  0.89640  Biso   1.000  O
  O2       1.0000 0.01782  0.12223  0.97720  Biso   1.000  O
  O3       1.0000 0.92585  0.13949  0.84150  Biso   1.000  O
  O4       1.0000 0.75099  0.14810  0.80700  Biso   1.000  O
  O5       1.0000 0.78275  0.14188  0.95110  Biso   1.000  O
  Co2      1.0000 0.10067  0.85907  0.96933  Biso   1.000  Co
  C16      1.0000 0.94930  0.87450  0.90260  Biso   1.000  C
  C17      1.0000 0.99550  0.85410  0.82240  Biso   1.000  C
  H13      1.0000 0.98240  0.89020  0.77350  Biso   1.000  H
  C18      1.0000 0.97340  0.77360  0.79460  Biso   1.000  C
  H14      1.0000 0.00100  0.75980  0.74050  Biso   1.000  H
  H15      1.0000 0.91830  0.77140  0.78350  Biso   1.000  H
  H16      1.0000 0.98660  0.73770  0.84180  Biso   1.000  H
  C19      1.0000 0.26460  0.85900  0.88880  Biso   1.000  C
  C20      1.0000 0.34750  0.86900  0.91090  Biso   1.000  C
  C21      1.0000 0.36930  0.87900  0.99720  Biso   1.000  C
  H17      1.0000 0.33200  0.87850  0.04270  Biso   1.000  H
  C22      1.0000 0.44540  0.88990  0.01820  Biso   1.000  C
  H18      1.0000 0.45960  0.89940  0.07780  Biso   1.000  H
  C23      1.0000 0.50190  0.88700  0.95210  Biso   1.000  C
  C24      1.0000 0.47880  0.87590  0.86530  Biso   1.000  C
  H19      1.0000 0.51600  0.87420  0.81970  Biso   1.000  H
  C25      1.0000 0.40210  0.86720  0.84420  Biso   1.000  C
  H20      1.0000 0.38700  0.86000  0.78440  Biso   1.000  H
  C26      1.0000 0.58400  0.89450  0.97480  Biso   1.000  C
  C27      1.0000 0.63440  0.93030  0.91810  Biso   1.000  C
  H21      1.0000 0.61640  0.95370  0.86540  Biso   1.000  H
  C28      1.0000 0.71150  0.93190  0.93870  Biso   1.000  C
  H22      1.0000 0.74560  0.95490  0.89780  Biso   1.000  H
  C29      1.0000 0.69080  0.87000  0.06870  Biso   1.000  C
  H23      1.0000 0.70990  0.84900  0.12220  Biso   1.000  H
  C30      1.0000 0.61340  0.86530  0.05200  Biso   1.000  C
  H24      1.0000 0.58050  0.84190  0.09390  Biso   1.000  H
  N2       1.0000 0.74000  0.90290  0.01280  Biso   1.000  N
  O6       1.0000 0.87837  0.88650  0.89640  Biso   1.000  O
  O7       1.0000 0.98218  0.87777  0.97720  Biso   1.000  O
  O8       1.0000 0.07415  0.86051  0.84150  Biso   1.000  O
  O9       1.0000 0.24901  0.85190  0.80700  Biso   1.000  O
  O10      1.0000 0.21725  0.85812  0.95110  Biso   1.000  O
  Co3      1.0000 0.14093  0.10067  0.03067  Biso   1.000  Co
  C31      1.0000 0.12550  0.94930  0.09740  Biso   1.000  C
  C32      1.0000 0.14590  0.99550  0.17760  Biso   1.000  C
  H25      1.0000 0.10980  0.98240  0.22650  Biso   1.000  H
  C33      1.0000 0.22640  0.97340  0.20540  Biso   1.000  C
  H26      1.0000 0.24020  0.00100  0.25950  Biso   1.000  H
  H27      1.0000 0.22860  0.91830  0.21650  Biso   1.000  H
  H28      1.0000 0.26230  0.98660  0.15820  Biso   1.000  H
  C34      1.0000 0.14100  0.26460  0.11120  Biso   1.000  C
  C35      1.0000 0.13100  0.34750  0.08910  Biso   1.000  C
  C36      1.0000 0.12100  0.36930  0.00280  Biso   1.000  C
  H29      1.0000 0.12150  0.33200  0.95730  Biso   1.000  H
  C37      1.0000 0.11010  0.44540  0.98180  Biso   1.000  C
  H30      1.0000 0.10060  0.45960  0.92220  Biso   1.000  H
  C38      1.0000 0.11300  0.50190  0.04790  Biso   1.000  C
  C39      1.0000 0.12410  0.47880  0.13470  Biso   1.000  C
  H31      1.0000 0.12580  0.51600  0.18030  Biso   1.000  H
  C40      1.0000 0.13280  0.40210  0.15580  Biso   1.000  C
  H32      1.0000 0.14000  0.38700  0.21560  Biso   1.000  H
  C41      1.0000 0.10550  0.58400  0.02520  Biso   1.000  C
  C42      1.0000 0.06970  0.63440  0.08190  Biso   1.000  C
  H33      1.0000 0.04630  0.61640  0.13460  Biso   1.000  H
  C43      1.0000 0.06810  0.71150  0.06130  Biso   1.000  C
  H34      1.0000 0.04510  0.74560  0.10220  Biso   1.000  H
  C44      1.0000 0.13000  0.69080  0.93130  Biso   1.000  C
  H35      1.0000 0.15100  0.70990  0.87780  Biso   1.000  H
  C45      1.0000 0.13470  0.61340  0.94800  Biso   1.000  C
  H36      1.0000 0.15810  0.58050  0.90610  Biso   1.000  H
  N3       1.0000 0.09710  0.74000  0.98720  Biso   1.000  N
  O11      1.0000 0.11350  0.87837  0.10360  Biso   1.000  O
  O12      1.0000 0.12223  0.98218  0.02280  Biso   1.000  O
  O13      1.0000 0.13949  0.07415  0.15850  Biso   1.000  O
  O14      1.0000 0.14810  0.24901  0.19300  Biso   1.000  O
  O15      1.0000 0.14188  0.21725  0.04890  Biso   1.000  O
  Co4      1.0000 0.85907  0.89933  0.03067  Biso   1.000  Co
  C46      1.0000 0.87450  0.05070  0.09740  Biso   1.000  C
  C47      1.0000 0.85410  0.00450  0.17760  Biso   1.000  C
  H37      1.0000 0.89020  0.01760  0.22650  Biso   1.000  H
  C48      1.0000 0.77360  0.02660  0.20540  Biso   1.000  C
  H38      1.0000 0.75980  0.99900  0.25950  Biso   1.000  H
  H39      1.0000 0.77140  0.08170  0.21650  Biso   1.000  H
  H40      1.0000 0.73770  0.01340  0.15820  Biso   1.000  H
  C49      1.0000 0.85900  0.73540  0.11120  Biso   1.000  C
  C50      1.0000 0.86900  0.65250  0.08910  Biso   1.000  C
  C51      1.0000 0.87900  0.63070  0.00280  Biso   1.000  C
  H41      1.0000 0.87850  0.66800  0.95730  Biso   1.000  H
  C52      1.0000 0.88990  0.55460  0.98180  Biso   1.000  C
  H42      1.0000 0.89940  0.54040  0.92220  Biso   1.000  H
  C53      1.0000 0.88700  0.49810  0.04790  Biso   1.000  C
  C54      1.0000 0.87590  0.52120  0.13470  Biso   1.000  C
  H43      1.0000 0.87420  0.48400  0.18030  Biso   1.000  H
  C55      1.0000 0.86720  0.59790  0.15580  Biso   1.000  C
  H44      1.0000 0.86000  0.61300  0.21560  Biso   1.000  H
  C56      1.0000 0.89450  0.41600  0.02520  Biso   1.000  C
  C57      1.0000 0.93030  0.36560  0.08190  Biso   1.000  C
  H45      1.0000 0.95370  0.38360  0.13460  Biso   1.000  H
  C58      1.0000 0.93190  0.28850  0.06130  Biso   1.000  C
  H46      1.0000 0.95490  0.25440  0.10220  Biso   1.000  H
  C59      1.0000 0.87000  0.30920  0.93130  Biso   1.000  C
  H47      1.0000 0.84900  0.29010  0.87780  Biso   1.000  H
  C60      1.0000 0.86530  0.38660  0.94800  Biso   1.000  C
  H48      1.0000 0.84190  0.41950  0.90610  Biso   1.000  H
  N4       1.0000 0.90290  0.26000  0.98720  Biso   1.000  N
  O16      1.0000 0.88650  0.12163  0.10360  Biso   1.000  O
  O17      1.0000 0.87777  0.01782  0.02280  Biso   1.000  O
  O18      1.0000 0.86051  0.92585  0.15850  Biso   1.000  O
  O19      1.0000 0.85190  0.75099  0.19300  Biso   1.000  O
  O20      1.0000 0.85812  0.78275  0.04890  Biso   1.000  O
  Co5      1.0000 0.89933  0.85907  0.46933  Biso   1.000  Co
  C61      1.0000 0.05070  0.87450  0.40260  Biso   1.000  C
  C62      1.0000 0.00450  0.85410  0.32240  Biso   1.000  C
  H49      1.0000 0.01760  0.89020  0.27350  Biso   1.000  H
  C63      1.0000 0.02660  0.77360  0.29460  Biso   1.000  C
  H50      1.0000 0.99900  0.75980  0.24050  Biso   1.000  H
  H51      1.0000 0.08170  0.77140  0.28350  Biso   1.000  H
  H52      1.0000 0.01340  0.73770  0.34180  Biso   1.000  H
  C64      1.0000 0.73540  0.85900  0.38880  Biso   1.000  C
  C65      1.0000 0.65250  0.86900  0.41090  Biso   1.000  C
  C66      1.0000 0.63070  0.87900  0.49720  Biso   1.000  C
  H53      1.0000 0.66800  0.87850  0.54270  Biso   1.000  H
  C67      1.0000 0.55460  0.88990  0.51820  Biso   1.000  C
  H54      1.0000 0.54040  0.89940  0.57780  Biso   1.000  H
  C68      1.0000 0.49810  0.88700  0.45210  Biso   1.000  C
  C69      1.0000 0.52120  0.87590  0.36530  Biso   1.000  C
  H55      1.0000 0.48400  0.87420  0.31970  Biso   1.000  H
  C70      1.0000 0.59790  0.86720  0.34420  Biso   1.000  C
  H56      1.0000 0.61300  0.86000  0.28440  Biso   1.000  H
  C71      1.0000 0.41600  0.89450  0.47480  Biso   1.000  C
  C72      1.0000 0.36560  0.93030  0.41810  Biso   1.000  C
  H57      1.0000 0.38360  0.95370  0.36540  Biso   1.000  H
  C73      1.0000 0.28850  0.93190  0.43870  Biso   1.000  C
  H58      1.0000 0.25440  0.95490  0.39780  Biso   1.000  H
  C74      1.0000 0.30920  0.87000  0.56870  Biso   1.000  C
  H59      1.0000 0.29010  0.84900  0.62220  Biso   1.000  H
  C75      1.0000 0.38660  0.86530  0.55200  Biso   1.000  C
  H60      1.0000 0.41950  0.84190  0.59390  Biso   1.000  H
  N5       1.0000 0.26000  0.90290  0.51280  Biso   1.000  N
  O21      1.0000 0.12163  0.88650  0.39640  Biso   1.000  O
  O22      1.0000 0.01782  0.87777  0.47720  Biso   1.000  O
  O23      1.0000 0.92585  0.86051  0.34150  Biso   1.000  O
  O24      1.0000 0.75099  0.85190  0.30700  Biso   1.000  O
  O25      1.0000 0.78275  0.85812  0.45110  Biso   1.000  O
  Co6      1.0000 0.10067  0.14093  0.46933  Biso   1.000  Co
  C76      1.0000 0.94930  0.12550  0.40260  Biso   1.000  C
  C77      1.0000 0.99550  0.14590  0.32240  Biso   1.000  C
  H61      1.0000 0.98240  0.10980  0.27350  Biso   1.000  H
  C78      1.0000 0.97340  0.22640  0.29460  Biso   1.000  C
  H62      1.0000 0.00100  0.24020  0.24050  Biso   1.000  H
  H63      1.0000 0.91830  0.22860  0.28350  Biso   1.000  H
  H64      1.0000 0.98660  0.26230  0.34180  Biso   1.000  H
  C79      1.0000 0.26460  0.14100  0.38880  Biso   1.000  C
  C80      1.0000 0.34750  0.13100  0.41090  Biso   1.000  C
  C81      1.0000 0.36930  0.12100  0.49720  Biso   1.000  C
  H65      1.0000 0.33200  0.12150  0.54270  Biso   1.000  H
  C82      1.0000 0.44540  0.11010  0.51820  Biso   1.000  C
  H66      1.0000 0.45960  0.10060  0.57780  Biso   1.000  H
  C83      1.0000 0.50190  0.11300  0.45210  Biso   1.000  C
  C84      1.0000 0.47880  0.12410  0.36530  Biso   1.000  C
  H67      1.0000 0.51600  0.12580  0.31970  Biso   1.000  H
  C85      1.0000 0.40210  0.13280  0.34420  Biso   1.000  C
  H68      1.0000 0.38700  0.14000  0.28440  Biso   1.000  H
  C86      1.0000 0.58400  0.10550  0.47480  Biso   1.000  C
  C87      1.0000 0.63440  0.06970  0.41810  Biso   1.000  C
  H69      1.0000 0.61640  0.04630  0.36540  Biso   1.000  H
  C88      1.0000 0.71150  0.06810  0.43870  Biso   1.000  C
  H70      1.0000 0.74560  0.04510  0.39780  Biso   1.000  H
  C89      1.0000 0.69080  0.13000  0.56870  Biso   1.000  C
  H71      1.0000 0.70990  0.15100  0.62220  Biso   1.000  H
  C90      1.0000 0.61340  0.13470  0.55200  Biso   1.000  C
  H72      1.0000 0.58050  0.15810  0.59390  Biso   1.000  H
  N6       1.0000 0.74000  0.09710  0.51280  Biso   1.000  N
  O26      1.0000 0.87837  0.11350  0.39640  Biso   1.000  O
  O27      1.0000 0.98218  0.12223  0.47720  Biso   1.000  O
  O28      1.0000 0.07415  0.13949  0.34150  Biso   1.000  O
  O29      1.0000 0.24901  0.14810  0.30700  Biso   1.000  O
  O30      1.0000 0.21725  0.14188  0.45110  Biso   1.000  O
  Co7      1.0000 0.14093  0.89933  0.53067  Biso   1.000  Co
  C91      1.0000 0.12550  0.05070  0.59740  Biso   1.000  C
  C92      1.0000 0.14590  0.00450  0.67760  Biso   1.000  C
  H73      1.0000 0.10980  0.01760  0.72650  Biso   1.000  H
  C93      1.0000 0.22640  0.02660  0.70540  Biso   1.000  C
  H74      1.0000 0.24020  0.99900  0.75950  Biso   1.000  H
  H75      1.0000 0.22860  0.08170  0.71650  Biso   1.000  H
  H76      1.0000 0.26230  0.01340  0.65820  Biso   1.000  H
  C94      1.0000 0.14100  0.73540  0.61120  Biso   1.000  C
  C95      1.0000 0.13100  0.65250  0.58910  Biso   1.000  C
  C96      1.0000 0.12100  0.63070  0.50280  Biso   1.000  C
  H77      1.0000 0.12150  0.66800  0.45730  Biso   1.000  H
  C97      1.0000 0.11010  0.55460  0.48180  Biso   1.000  C
  H78      1.0000 0.10060  0.54040  0.42220  Biso   1.000  H
  C98      1.0000 0.11300  0.49810  0.54790  Biso   1.000  C
  C99      1.0000 0.12410  0.52120  0.63470  Biso   1.000  C
  H79      1.0000 0.12580  0.48400  0.68030  Biso   1.000  H
  C100     1.0000 0.13280  0.59790  0.65580  Biso   1.000  C
  H80      1.0000 0.14000  0.61300  0.71560  Biso   1.000  H
  C101     1.0000 0.10550  0.41600  0.52520  Biso   1.000  C
  C102     1.0000 0.06970  0.36560  0.58190  Biso   1.000  C
  H81      1.0000 0.04630  0.38360  0.63460  Biso   1.000  H
  C103     1.0000 0.06810  0.28850  0.56130  Biso   1.000  C
  H82      1.0000 0.04510  0.25440  0.60220  Biso   1.000  H
  C104     1.0000 0.13000  0.30920  0.43130  Biso   1.000  C
  H83      1.0000 0.15100  0.29010  0.37780  Biso   1.000  H
  C105     1.0000 0.13470  0.38660  0.44800  Biso   1.000  C
  H84      1.0000 0.15810  0.41950  0.40610  Biso   1.000  H
  N7       1.0000 0.09710  0.26000  0.48720  Biso   1.000  N
  O31      1.0000 0.11350  0.12163  0.60360  Biso   1.000  O
  O32      1.0000 0.12223  0.01782  0.52280  Biso   1.000  O
  O33      1.0000 0.13949  0.92585  0.65850  Biso   1.000  O
  O34      1.0000 0.14810  0.75099  0.69300  Biso   1.000  O
  O35      1.0000 0.14188  0.78275  0.54890  Biso   1.000  O
  Co8      1.0000 0.85907  0.10067  0.53067  Biso   1.000  Co
  C106     1.0000 0.87450  0.94930  0.59740  Biso   1.000  C
  C107     1.0000 0.85410  0.99550  0.67760  Biso   1.000  C
  H85      1.0000 0.89020  0.98240  0.72650  Biso   1.000  H
  C108     1.0000 0.77360  0.97340  0.70540  Biso   1.000  C
  H86      1.0000 0.75980  0.00100  0.75950  Biso   1.000  H
  H87      1.0000 0.77140  0.91830  0.71650  Biso   1.000  H
  H88      1.0000 0.73770  0.98660  0.65820  Biso   1.000  H
  C109     1.0000 0.85900  0.26460  0.61120  Biso   1.000  C
  C110     1.0000 0.86900  0.34750  0.58910  Biso   1.000  C
  C111     1.0000 0.87900  0.36930  0.50280  Biso   1.000  C
  H89      1.0000 0.87850  0.33200  0.45730  Biso   1.000  H
  C112     1.0000 0.88990  0.44540  0.48180  Biso   1.000  C
  H90      1.0000 0.89940  0.45960  0.42220  Biso   1.000  H
  C113     1.0000 0.88700  0.50190  0.54790  Biso   1.000  C
  C114     1.0000 0.87590  0.47880  0.63470  Biso   1.000  C
  H91      1.0000 0.87420  0.51600  0.68030  Biso   1.000  H
  C115     1.0000 0.86720  0.40210  0.65580  Biso   1.000  C
  H92      1.0000 0.86000  0.38700  0.71560  Biso   1.000  H
  C116     1.0000 0.89450  0.58400  0.52520  Biso   1.000  C
  C117     1.0000 0.93030  0.63440  0.58190  Biso   1.000  C
  H93      1.0000 0.95370  0.61640  0.63460  Biso   1.000  H
  C118     1.0000 0.93190  0.71150  0.56130  Biso   1.000  C
  H94      1.0000 0.95490  0.74560  0.60220  Biso   1.000  H
  C119     1.0000 0.87000  0.69080  0.43130  Biso   1.000  C
  H95      1.0000 0.84900  0.70990  0.37780  Biso   1.000  H
  C120     1.0000 0.86530  0.61340  0.44800  Biso   1.000  C
  H96      1.0000 0.84190  0.58050  0.40610  Biso   1.000  H
  N8       1.0000 0.90290  0.74000  0.48720  Biso   1.000  N
  O36      1.0000 0.88650  0.87837  0.60360  Biso   1.000  O
  O37      1.0000 0.87777  0.98218  0.52280  Biso   1.000  O
  O38      1.0000 0.86051  0.07415  0.65850  Biso   1.000  O
  O39      1.0000 0.85190  0.24901  0.69300  Biso   1.000  O
  O40      1.0000 0.85812  0.21725  0.54890  Biso   1.000  O
  Co9      1.0000 0.85164  0.14836  0.75000  Biso   1.000  Co
  Co10     1.0000 0.14836  0.85164  0.75000  Biso   1.000  Co
  Co11     1.0000 0.14836  0.14836  0.25000  Biso   1.000  Co
  Co12     1.0000 0.85164  0.85164  0.25000  Biso   1.000  Co
