data_image0
_cell_length_a       13.2246
_cell_length_b       17.8923
_cell_length_c       11.0836
_cell_angle_alpha    90
_cell_angle_beta     89.801
_cell_angle_gamma    90

_symmetry_space_group_name_H-M    "P 1"
_symmetry_int_tables_number       1

loop_
  _symmetry_equiv_pos_as_xyz
  'x, y, z'

loop_
  _atom_site_label
  _atom_site_occupancy
  _atom_site_fract_x
  _atom_site_fract_y
  _atom_site_fract_z
  _atom_site_thermal_displace_type
  _atom_site_B_iso_or_equiv
  _atom_site_type_symbol
  Al1      1.0000 0.11620  0.23720  0.24160  Biso   1.000  Al
  O1       1.0000 0.94270  0.68350  0.61880  Biso   1.000  O
  O2       1.0000 0.16390  0.16180  0.13650  Biso   1.000  O
  O3       1.0000 0.10000  0.33310  0.32620  Biso   1.000  O
  O4       1.0000 0.32730  0.79460  0.88760  Biso   1.000  O
  Al2      1.0000 0.13100  0.73380  0.75440  Biso   1.000  Al
  O5       1.0000 0.00670  0.72200  0.83340  Biso   1.000  O
  O6       1.0000 0.25590  0.73900  0.68120  Biso   1.000  O
  O7       1.0000 0.16400  0.81080  0.86660  Biso   1.000  O
  O8       1.0000 0.94410  0.29630  0.35050  Biso   1.000  O
  O9       1.0000 0.09600  0.66090  0.62770  Biso   1.000  O
  O10      1.0000 0.33040  0.16190  0.14320  Biso   1.000  O
  C1       1.0000 0.15190  0.93229  0.02421  Biso   1.000  C
  C2       1.0000 0.16401  0.99873  0.10900  Biso   1.000  C
  C3       1.0000 0.34420  0.01490  0.04815  Biso   1.000  C
  C4       1.0000 0.33296  0.94865  0.96308  Biso   1.000  C
  C5       1.0000 0.25383  0.89276  0.00731  Biso   1.000  C
  C6       1.0000 0.24167  0.05369  0.06078  Biso   1.000  C
  C7       1.0000 0.24575  0.82762  0.92199  Biso   1.000  C
  C8       1.0000 0.24678  0.12458  0.13319  Biso   1.000  C
  C9       1.0000 0.92416  0.51503  0.54113  Biso   1.000  C
  C10      1.0000 0.91688  0.45108  0.45121  Biso   1.000  C
  C11      1.0000 0.10064  0.46684  0.40521  Biso   1.000  C
  C12      1.0000 0.10823  0.53197  0.49350  Biso   1.000  C
  C13      1.0000 0.00553  0.57167  0.50606  Biso   1.000  C
  C14      1.0000 0.01932  0.41135  0.44369  Biso   1.000  C
  C15      1.0000 0.01041  0.63439  0.59662  Biso   1.000  C
  C16      1.0000 0.01567  0.34285  0.36494  Biso   1.000  C
  O11      1.0000 0.17600  0.27720  0.09700  Biso   1.000  O
  Al3      1.0000 0.37460  0.72730  0.76090  Biso   1.000  Al
  O12      1.0000 0.56060  0.16300  0.35840  Biso   1.000  O
  O13      1.0000 0.32950  0.64860  0.85970  Biso   1.000  O
  O14      1.0000 0.40610  0.79790  0.64700  Biso   1.000  O
  O15      1.0000 0.15720  0.64740  0.86160  Biso   1.000  O
  Al4      1.0000 0.37220  0.23400  0.26490  Biso   1.000  Al
  O16      1.0000 0.49310  0.23250  0.18940  Biso   1.000  O
  O17      1.0000 0.24180  0.25470  0.31150  Biso   1.000  O
  O18      1.0000 0.33070  0.30520  0.14090  Biso   1.000  O
  O19      1.0000 0.56840  0.81750  0.63950  Biso   1.000  O
  O20      1.0000 0.39350  0.16200  0.38090  Biso   1.000  O
  C17      1.0000 0.33633  0.42983  0.00755  Biso   1.000  C
  C18      1.0000 0.32464  0.49364  0.91755  Biso   1.000  C
  C19      1.0000 0.14473  0.51255  0.97751  Biso   1.000  C
  C20      1.0000 0.15557  0.44896  0.06778  Biso   1.000  C
  C21      1.0000 0.23408  0.39138  0.02789  Biso   1.000  C
  C22      1.0000 0.24759  0.55040  0.96150  Biso   1.000  C
  C23      1.0000 0.24177  0.32891  0.11832  Biso   1.000  C
  C24      1.0000 0.24297  0.61899  0.88348  Biso   1.000  C
  C25      1.0000 0.56905  0.01841  0.46434  Biso   1.000  C
  C26      1.0000 0.57581  0.95475  0.55486  Biso   1.000  C
  C27      1.0000 0.39042  0.96738  0.59336  Biso   1.000  C
  C28      1.0000 0.38327  0.03220  0.50445  Biso   1.000  C
  C29      1.0000 0.48496  0.07367  0.49581  Biso   1.000  C
  C30      1.0000 0.47452  0.91326  0.55847  Biso   1.000  C
  C31      1.0000 0.48066  0.13614  0.40475  Biso   1.000  C
  C32      1.0000 0.47810  0.84497  0.63771  Biso   1.000  C
  Al5      1.0000 0.88380  0.73720  0.75840  Biso   1.000  Al
  O21      1.0000 0.05730  0.18350  0.38120  Biso   1.000  O
  O22      1.0000 0.83610  0.66180  0.86350  Biso   1.000  O
  O23      1.0000 0.90000  0.83310  0.67380  Biso   1.000  O
  O24      1.0000 0.67270  0.29460  0.11240  Biso   1.000  O
  Al6      1.0000 0.86900  0.23380  0.24560  Biso   1.000  Al
  O25      1.0000 0.99330  0.22200  0.16660  Biso   1.000  O
  O26      1.0000 0.74410  0.23900  0.31880  Biso   1.000  O
  O27      1.0000 0.83600  0.31080  0.13340  Biso   1.000  O
  O28      1.0000 0.05590  0.79630  0.64950  Biso   1.000  O
  O29      1.0000 0.90400  0.16090  0.37230  Biso   1.000  O
  O30      1.0000 0.66960  0.66190  0.85680  Biso   1.000  O
  C33      1.0000 0.84810  0.43229  0.97579  Biso   1.000  C
  C34      1.0000 0.83599  0.49873  0.89100  Biso   1.000  C
  C35      1.0000 0.65580  0.51490  0.95185  Biso   1.000  C
  C36      1.0000 0.66704  0.44865  0.03692  Biso   1.000  C
  C37      1.0000 0.74617  0.39276  0.99269  Biso   1.000  C
  C38      1.0000 0.75833  0.55369  0.93922  Biso   1.000  C
  C39      1.0000 0.75425  0.32762  0.07801  Biso   1.000  C
  C40      1.0000 0.75322  0.62458  0.86681  Biso   1.000  C
  C41      1.0000 0.07584  0.01503  0.45887  Biso   1.000  C
  C42      1.0000 0.08312  0.95108  0.54879  Biso   1.000  C
  C43      1.0000 0.89936  0.96684  0.59479  Biso   1.000  C
  C44      1.0000 0.89177  0.03197  0.50650  Biso   1.000  C
  C45      1.0000 0.99447  0.07167  0.49394  Biso   1.000  C
  C46      1.0000 0.98068  0.91135  0.55631  Biso   1.000  C
  C47      1.0000 0.98959  0.13439  0.40338  Biso   1.000  C
  C48      1.0000 0.98433  0.84285  0.63506  Biso   1.000  C
  O31      1.0000 0.82400  0.77720  0.90300  Biso   1.000  O
  Al7      1.0000 0.62540  0.22730  0.23910  Biso   1.000  Al
  O32      1.0000 0.43940  0.66300  0.64160  Biso   1.000  O
  O33      1.0000 0.67050  0.14860  0.14030  Biso   1.000  O
  O34      1.0000 0.59390  0.29790  0.35300  Biso   1.000  O
  O35      1.0000 0.84280  0.14740  0.13840  Biso   1.000  O
  Al8      1.0000 0.62780  0.73400  0.73510  Biso   1.000  Al
  O36      1.0000 0.50690  0.73250  0.81060  Biso   1.000  O
  O37      1.0000 0.75820  0.75470  0.68850  Biso   1.000  O
  O38      1.0000 0.66930  0.80520  0.85910  Biso   1.000  O
  O39      1.0000 0.43160  0.31750  0.36050  Biso   1.000  O
  O40      1.0000 0.60650  0.66200  0.61910  Biso   1.000  O
  C49      1.0000 0.66367  0.92983  0.99245  Biso   1.000  C
  C50      1.0000 0.67536  0.99364  0.08245  Biso   1.000  C
  C51      1.0000 0.85527  0.01255  0.02249  Biso   1.000  C
  C52      1.0000 0.84443  0.94896  0.93222  Biso   1.000  C
  C53      1.0000 0.76592  0.89138  0.97211  Biso   1.000  C
  C54      1.0000 0.75241  0.05040  0.03850  Biso   1.000  C
  C55      1.0000 0.75823  0.82891  0.88168  Biso   1.000  C
  C56      1.0000 0.75703  0.11899  0.11652  Biso   1.000  C
  C57      1.0000 0.43095  0.51841  0.53566  Biso   1.000  C
  C58      1.0000 0.42419  0.45475  0.44514  Biso   1.000  C
  C59      1.0000 0.60958  0.46738  0.40664  Biso   1.000  C
  C60      1.0000 0.61673  0.53220  0.49555  Biso   1.000  C
  C61      1.0000 0.51504  0.57367  0.50419  Biso   1.000  C
  C62      1.0000 0.52548  0.41326  0.44153  Biso   1.000  C
  C63      1.0000 0.51934  0.63614  0.59525  Biso   1.000  C
  C64      1.0000 0.52190  0.34497  0.36229  Biso   1.000  C
