data_image0
_cell_length_a       6.6031
_cell_length_b       18.0599
_cell_length_c       10.8579
_cell_angle_alpha    90
_cell_angle_beta     90.3736
_cell_angle_gamma    90

_symmetry_space_group_name_H-M    "P 1"
_symmetry_int_tables_number       1

loop_
  _symmetry_equiv_pos_as_xyz
  'x, y, z'

loop_
  _atom_site_label
  _atom_site_occupancy
  _atom_site_fract_x
  _atom_site_fract_y
  _atom_site_fract_z
  _atom_site_thermal_displace_type
  _atom_site_B_iso_or_equiv
  _atom_site_type_symbol
  Al1      1.0000 0.23660  0.23460  0.24400  Biso   1.000  Al
  O1       1.0000 0.98910  0.23210  0.15980  Biso   1.000  O
  O2       1.0000 0.83540  0.66110  0.63590  Biso   1.000  O
  O3       1.0000 0.32350  0.15840  0.13350  Biso   1.000  O
  O4       1.0000 0.16180  0.30790  0.35480  Biso   1.000  O
  O5       1.0000 0.68120  0.80480  0.88030  Biso   1.000  O
  Al2      1.0000 0.25460  0.73650  0.75510  Biso   1.000  Al
  O6       1.0000 0.50750  0.73050  0.68300  Biso   1.000  O
  O7       1.0000 0.36510  0.80220  0.87300  Biso   1.000  O
  O8       1.0000 0.85020  0.29990  0.36570  Biso   1.000  O
  O9       1.0000 0.67540  0.14450  0.16620  Biso   1.000  O
  O10      1.0000 0.15940  0.65010  0.65700  Biso   1.000  O
  C1       1.0000 0.81605  0.51082  0.53472  Biso   1.000  C
  C2       1.0000 0.83051  0.43997  0.45969  Biso   1.000  C
  C3       1.0000 0.20423  0.43876  0.47907  Biso   1.000  C
  C4       1.0000 0.19948  0.51212  0.55077  Biso   1.000  C
  C5       1.0000 0.00581  0.55652  0.53137  Biso   1.000  C
  C6       1.0000 0.01323  0.39260  0.49139  Biso   1.000  C
  C7       1.0000 0.99297  0.62640  0.60648  Biso   1.000  C
  C8       1.0000 0.01834  0.32484  0.41053  Biso   1.000  C
  C9       1.0000 0.32210  0.95536  0.94692  Biso   1.000  C
  C10      1.0000 0.31436  0.02639  0.02474  Biso   1.000  C
  C11      1.0000 0.68266  0.01781  0.06629  Biso   1.000  C
  C12      1.0000 0.70091  0.94921  0.98600  Biso   1.000  C
  C13      1.0000 0.50607  0.90697  0.97362  Biso   1.000  C
  C14      1.0000 0.51198  0.06935  0.02833  Biso   1.000  C
  C15      1.0000 0.52285  0.83936  0.89322  Biso   1.000  C
  C16      1.0000 0.50168  0.13451  0.11469  Biso   1.000  C
  Al3      1.0000 0.76340  0.73460  0.75600  Biso   1.000  Al
  O11      1.0000 0.01090  0.73210  0.84020  Biso   1.000  O
  O12      1.0000 0.16460  0.16110  0.36410  Biso   1.000  O
  O13      1.0000 0.67650  0.65840  0.86650  Biso   1.000  O
  O14      1.0000 0.83820  0.80790  0.64520  Biso   1.000  O
  O15      1.0000 0.31880  0.30480  0.11970  Biso   1.000  O
  Al4      1.0000 0.74540  0.23650  0.24490  Biso   1.000  Al
  O16      1.0000 0.49250  0.23050  0.31700  Biso   1.000  O
  O17      1.0000 0.63490  0.30220  0.12700  Biso   1.000  O
  O18      1.0000 0.14980  0.79990  0.63430  Biso   1.000  O
  O19      1.0000 0.32460  0.64450  0.83380  Biso   1.000  O
  O20      1.0000 0.84060  0.15010  0.34300  Biso   1.000  O
  C17      1.0000 0.18395  0.01082  0.46528  Biso   1.000  C
  C18      1.0000 0.16949  0.93997  0.54031  Biso   1.000  C
  C19      1.0000 0.79577  0.93876  0.52093  Biso   1.000  C
  C20      1.0000 0.80052  0.01212  0.44923  Biso   1.000  C
  C21      1.0000 0.99419  0.05652  0.46863  Biso   1.000  C
  C22      1.0000 0.98677  0.89260  0.50861  Biso   1.000  C
  C23      1.0000 0.00703  0.12640  0.39352  Biso   1.000  C
  C24      1.0000 0.98166  0.82484  0.58947  Biso   1.000  C
  C25      1.0000 0.67790  0.45536  0.05308  Biso   1.000  C
  C26      1.0000 0.68564  0.52639  0.97526  Biso   1.000  C
  C27      1.0000 0.31734  0.51781  0.93371  Biso   1.000  C
  C28      1.0000 0.29909  0.44921  0.01400  Biso   1.000  C
  C29      1.0000 0.49393  0.40697  0.02638  Biso   1.000  C
  C30      1.0000 0.48802  0.56935  0.97167  Biso   1.000  C
  C31      1.0000 0.47715  0.33936  0.10678  Biso   1.000  C
  C32      1.0000 0.49832  0.63451  0.88531  Biso   1.000  C
