data_image0
_cell_length_a       10.001
_cell_length_b       15.5508
_cell_length_c       15.5508
_cell_angle_alpha    84.065
_cell_angle_beta     71.2428
_cell_angle_gamma    71.2427

_symmetry_space_group_name_H-M    P 1
_symmetry_int_tables_number       1

loop_
  _symmetry_equiv_pos_as_xyz
  'x, y, z'

loop_
  _atom_site_label
  _atom_site_occupancy
  _atom_site_fract_x
  _atom_site_fract_y
  _atom_site_fract_z
  _atom_site_thermal_displace_type
  _atom_site_B_iso_or_equiv
  _atom_site_type_symbol
  Cu1      1.0000 0.12874  0.26113  0.99859  Biso   1.000  Cu
  Cu2      1.0000 0.38846  0.73887  0.00141  Biso   1.000  Cu
  Cu3      1.0000 0.37733  0.50141  0.76113  Biso   1.000  Cu
  Cu4      1.0000 0.63987  0.49859  0.23887  Biso   1.000  Cu
  Cu5      1.0000 0.38846  0.00141  0.73887  Biso   1.000  Cu
  Cu6      1.0000 0.12874  0.99859  0.26113  Biso   1.000  Cu
  Cu7      1.0000 0.63987  0.23887  0.49859  Biso   1.000  Cu
  Cu8      1.0000 0.37733  0.76113  0.50141  Biso   1.000  Cu
  H1       1.0000 0.85010  0.20550  0.01550  Biso   1.000  H
  H2       1.0000 0.94710  0.33130  0.85950  Biso   1.000  H
  H3       1.0000 0.89780  0.48160  0.30760  Biso   1.000  H
  H4       1.0000 0.24860  0.31340  0.14100  Biso   1.000  H
  H5       1.0000 0.07110  0.79450  0.98450  Biso   1.000  H
  H6       1.0000 0.13790  0.66870  0.14050  Biso   1.000  H
  H7       1.0000 0.68700  0.51840  0.69240  Biso   1.000  H
  H8       1.0000 0.70300  0.68660  0.85900  Biso   1.000  H
  H9       1.0000 0.11560  0.48450  0.70550  Biso   1.000  H
  H10      1.0000 0.05660  0.64050  0.83130  Biso   1.000  H
  H11      1.0000 0.45540  0.19240  0.98160  Biso   1.000  H
  H12      1.0000 0.63960  0.35900  0.81340  Biso   1.000  H
  H13      1.0000 0.30560  0.51550  0.29450  Biso   1.000  H
  H14      1.0000 0.52840  0.35950  0.16870  Biso   1.000  H
  H15      1.0000 0.62940  0.80760  0.01840  Biso   1.000  H
  H16      1.0000 0.81200  0.64100  0.18660  Biso   1.000  H
  H17      1.0000 0.07110  0.98450  0.79450  Biso   1.000  H
  H18      1.0000 0.13790  0.14050  0.66870  Biso   1.000  H
  H19      1.0000 0.68700  0.69240  0.51840  Biso   1.000  H
  H20      1.0000 0.70300  0.85900  0.68660  Biso   1.000  H
  H21      1.0000 0.85010  0.01550  0.20550  Biso   1.000  H
  H22      1.0000 0.94710  0.85950  0.33130  Biso   1.000  H
  H23      1.0000 0.89780  0.30760  0.48160  Biso   1.000  H
  H24      1.0000 0.24860  0.14100  0.31340  Biso   1.000  H
  H25      1.0000 0.30560  0.29450  0.51550  Biso   1.000  H
  H26      1.0000 0.52840  0.16870  0.35950  Biso   1.000  H
  H27      1.0000 0.62940  0.01840  0.80760  Biso   1.000  H
  H28      1.0000 0.81200  0.18660  0.64100  Biso   1.000  H
  H29      1.0000 0.11560  0.70550  0.48450  Biso   1.000  H
  H30      1.0000 0.05660  0.83130  0.64050  Biso   1.000  H
  H31      1.0000 0.45540  0.98160  0.19240  Biso   1.000  H
  H32      1.0000 0.63960  0.81340  0.35900  Biso   1.000  H
  C1       1.0000 0.89432  0.16893  0.05623  Biso   1.000  C
  C2       1.0000 0.01804  0.27664  0.83668  Biso   1.000  C
  C3       1.0000 0.91949  0.38922  0.12820  Biso   1.000  C
  C4       1.0000 0.94086  0.44668  0.25500  Biso   1.000  C
  C5       1.0000 0.08770  0.40220  0.22880  Biso   1.000  C
  C6       1.0000 0.14850  0.34670  0.15630  Biso   1.000  C
  C7       1.0000 0.11948  0.83107  0.94377  Biso   1.000  C
  C8       1.0000 0.13136  0.72336  0.16332  Biso   1.000  C
  C9       1.0000 0.43691  0.61078  0.87180  Biso   1.000  C
  C10      1.0000 0.64254  0.55332  0.74500  Biso   1.000  C
  C11      1.0000 0.71870  0.59780  0.77120  Biso   1.000  C
  C12      1.0000 0.65150  0.65330  0.84370  Biso   1.000  C
  C13      1.0000 0.20055  0.44377  0.66893  Biso   1.000  C
  C14      1.0000 0.10472  0.66332  0.77664  Biso   1.000  C
  C15      1.0000 0.29769  0.37180  0.88922  Biso   1.000  C
  C16      1.0000 0.44586  0.24500  0.94668  Biso   1.000  C
  C17      1.0000 0.56650  0.27120  0.90220  Biso   1.000  C
  C18      1.0000 0.55480  0.34370  0.84670  Biso   1.000  C
  C19      1.0000 0.31325  0.55623  0.33107  Biso   1.000  C
  C20      1.0000 0.54468  0.33668  0.22336  Biso   1.000  C
  C21      1.0000 0.55871  0.62820  0.11078  Biso   1.000  C
  C22      1.0000 0.63754  0.75500  0.05332  Biso   1.000  C
  C23      1.0000 0.73990  0.72880  0.09780  Biso   1.000  C
  C24      1.0000 0.74520  0.65630  0.15330  Biso   1.000  C
  C25      1.0000 0.11948  0.94377  0.83107  Biso   1.000  C
  C26      1.0000 0.13136  0.16332  0.72336  Biso   1.000  C
  C27      1.0000 0.43691  0.87180  0.61078  Biso   1.000  C
  C28      1.0000 0.64254  0.74500  0.55332  Biso   1.000  C
  C29      1.0000 0.71870  0.77120  0.59780  Biso   1.000  C
  C30      1.0000 0.65150  0.84370  0.65330  Biso   1.000  C
  C31      1.0000 0.89432  0.05623  0.16893  Biso   1.000  C
  C32      1.0000 0.01804  0.83668  0.27664  Biso   1.000  C
  C33      1.0000 0.91949  0.12820  0.38922  Biso   1.000  C
  C34      1.0000 0.94086  0.25500  0.44668  Biso   1.000  C
  C35      1.0000 0.08770  0.22880  0.40220  Biso   1.000  C
  C36      1.0000 0.14850  0.15630  0.34670  Biso   1.000  C
  C37      1.0000 0.31325  0.33107  0.55623  Biso   1.000  C
  C38      1.0000 0.54468  0.22336  0.33668  Biso   1.000  C
  C39      1.0000 0.55871  0.11078  0.62820  Biso   1.000  C
  C40      1.0000 0.63754  0.05332  0.75500  Biso   1.000  C
  C41      1.0000 0.73990  0.09780  0.72880  Biso   1.000  C
  C42      1.0000 0.74520  0.15330  0.65630  Biso   1.000  C
  C43      1.0000 0.20055  0.66893  0.44377  Biso   1.000  C
  C44      1.0000 0.10472  0.77664  0.66332  Biso   1.000  C
  C45      1.0000 0.29769  0.88922  0.37180  Biso   1.000  C
  C46      1.0000 0.44586  0.94668  0.24500  Biso   1.000  C
  C47      1.0000 0.56650  0.90220  0.27120  Biso   1.000  C
  C48      1.0000 0.55480  0.84670  0.34370  Biso   1.000  C
  C49      1.0000 0.08340  0.12400  0.12400  Biso   1.000  C
  C50      1.0000 0.83360  0.10570  0.10570  Biso   1.000  C
  C51      1.0000 0.33140  0.87600  0.87600  Biso   1.000  C
  C52      1.0000 0.04500  0.89430  0.89430  Biso   1.000  C
  C53      1.0000 0.45740  0.37600  0.62400  Biso   1.000  C
  C54      1.0000 0.18930  0.39430  0.60570  Biso   1.000  C
  C55      1.0000 0.45740  0.62400  0.37600  Biso   1.000  C
  C56      1.0000 0.18930  0.60570  0.39430  Biso   1.000  C
  C57      1.0000 0.21650  0.15230  0.84770  Biso   1.000  C
  C58      1.0000 0.02250  0.24250  0.75750  Biso   1.000  C
  C59      1.0000 0.21650  0.84770  0.15230  Biso   1.000  C
  C60      1.0000 0.02250  0.75750  0.24250  Biso   1.000  C
  C61      1.0000 0.31420  0.65230  0.65230  Biso   1.000  C
  C62      1.0000 0.03000  0.74250  0.74250  Biso   1.000  C
  C63      1.0000 0.61880  0.34770  0.34770  Biso   1.000  C
  C64      1.0000 0.51500  0.25750  0.25750  Biso   1.000  C
  N1       1.0000 0.01626  0.17905  0.06543  Biso   1.000  N
  N2       1.0000 0.11253  0.23317  0.88077  Biso   1.000  N
  N3       1.0000 0.06758  0.33850  0.10614  Biso   1.000  N
  N4       1.0000 0.85673  0.44044  0.20490  Biso   1.000  N
  N5       1.0000 0.26074  0.82095  0.93457  Biso   1.000  N
  N6       1.0000 0.22647  0.76683  0.11923  Biso   1.000  N
  N7       1.0000 0.51222  0.66150  0.89386  Biso   1.000  N
  N8       1.0000 0.50207  0.55956  0.79510  Biso   1.000  N
  N9       1.0000 0.33169  0.43457  0.67905  Biso   1.000  N
  N10      1.0000 0.24330  0.61923  0.73317  Biso   1.000  N
  N11      1.0000 0.42372  0.39386  0.83850  Biso   1.000  N
  N12      1.0000 0.31163  0.29510  0.94044  Biso   1.000  N
  N13      1.0000 0.44531  0.56543  0.32095  Biso   1.000  N
  N14      1.0000 0.59570  0.38077  0.26683  Biso   1.000  N
  N15      1.0000 0.65608  0.60614  0.16150  Biso   1.000  N
  N16      1.0000 0.54717  0.70490  0.05956  Biso   1.000  N
  N17      1.0000 0.26074  0.93457  0.82095  Biso   1.000  N
  N18      1.0000 0.22647  0.11923  0.76683  Biso   1.000  N
  N19      1.0000 0.51222  0.89386  0.66150  Biso   1.000  N
  N20      1.0000 0.50207  0.79510  0.55956  Biso   1.000  N
  N21      1.0000 0.01626  0.06543  0.17905  Biso   1.000  N
  N22      1.0000 0.11253  0.88077  0.23317  Biso   1.000  N
  N23      1.0000 0.06758  0.10614  0.33850  Biso   1.000  N
  N24      1.0000 0.85673  0.20490  0.44044  Biso   1.000  N
  N25      1.0000 0.44531  0.32095  0.56543  Biso   1.000  N
  N26      1.0000 0.59570  0.26683  0.38077  Biso   1.000  N
  N27      1.0000 0.65608  0.16150  0.60614  Biso   1.000  N
  N28      1.0000 0.54717  0.05956  0.70490  Biso   1.000  N
  N29      1.0000 0.33169  0.67905  0.43457  Biso   1.000  N
  N30      1.0000 0.24330  0.73317  0.61923  Biso   1.000  N
  N31      1.0000 0.42372  0.83850  0.39386  Biso   1.000  N
  N32      1.0000 0.31163  0.94044  0.29510  Biso   1.000  N
  O1       1.0000 0.84646  0.38470  0.07898  Biso   1.000  O
  O2       1.0000 0.31014  0.61530  0.92102  Biso   1.000  O
  O3       1.0000 0.17544  0.42102  0.88470  Biso   1.000  O
  O4       1.0000 0.48116  0.57898  0.11530  Biso   1.000  O
  O5       1.0000 0.31014  0.92102  0.61530  Biso   1.000  O
  O6       1.0000 0.84646  0.07898  0.38470  Biso   1.000  O
  O7       1.0000 0.48116  0.11530  0.57898  Biso   1.000  O
  O8       1.0000 0.17544  0.88470  0.42102  Biso   1.000  O
  O9       1.0000 0.20249  0.12891  0.12891  Biso   1.000  O
  O10      1.0000 0.46031  0.87109  0.87109  Biso   1.000  O
  O11      1.0000 0.58140  0.37109  0.62891  Biso   1.000  O
  O12      1.0000 0.58140  0.62891  0.37109  Biso   1.000  O
  O13      1.0000 0.30090  0.10890  0.89110  Biso   1.000  O
  O14      1.0000 0.30090  0.89110  0.10890  Biso   1.000  O
  O15      1.0000 0.44200  0.60890  0.60890  Biso   1.000  O
  O16      1.0000 0.65980  0.39110  0.39110  Biso   1.000  O
  F1       1.0000 0.17200  0.41166  0.27754  Biso   1.000  F
  F2       1.0000 0.86120  0.58834  0.72246  Biso   1.000  F
  F3       1.0000 0.69954  0.22246  0.91166  Biso   1.000  F
  F4       1.0000 0.83366  0.77754  0.08834  Biso   1.000  F
  F5       1.0000 0.86120  0.72246  0.58834  Biso   1.000  F
  F6       1.0000 0.17200  0.27754  0.41166  Biso   1.000  F
  F7       1.0000 0.83366  0.08834  0.77754  Biso   1.000  F
  F8       1.0000 0.69954  0.91166  0.22246  Biso   1.000  F
  F9       1.0000 0.71140  0.09520  0.09520  Biso   1.000  F
  F10      1.0000 0.90180  0.90480  0.90480  Biso   1.000  F
  F11      1.0000 0.05660  0.40480  0.59520  Biso   1.000  F
  F12      1.0000 0.05660  0.59520  0.40480  Biso   1.000  F
  F13      1.0000 0.92350  0.28602  0.71398  Biso   1.000  F
  F14      1.0000 0.92350  0.71398  0.28602  Biso   1.000  F
  F15      1.0000 0.88748  0.78602  0.78602  Biso   1.000  F
  F16      1.0000 0.45952  0.21398  0.21398  Biso   1.000  F
