data_image0
_cell_length_a       21.1373
_cell_length_b       21.1373
_cell_length_c       21.1373
_cell_angle_alpha    90
_cell_angle_beta     90
_cell_angle_gamma    90

_symmetry_space_group_name_H-M    "P 1"
_symmetry_int_tables_number       1

loop_
  _symmetry_equiv_pos_as_xyz
  'x, y, z'

loop_
  _atom_site_label
  _atom_site_occupancy
  _atom_site_fract_x
  _atom_site_fract_y
  _atom_site_fract_z
  _atom_site_thermal_displace_type
  _atom_site_B_iso_or_equiv
  _atom_site_type_symbol
  N1       1.0000 0.13138  0.30890  0.26276  Biso   1.000  N
  C1       1.0000 0.08220  0.34540  0.27350  Biso   1.000  C
  H1       1.0000 0.06980  0.37950  0.24860  Biso   1.000  H
  H2       1.0000 0.99210  0.39630  0.34380  Biso   1.000  H
  H3       1.0000 0.14240  0.24750  0.09630  Biso   1.000  H
  N2       1.0000 0.63138  0.80890  0.76276  Biso   1.000  N
  C2       1.0000 0.58220  0.84540  0.77350  Biso   1.000  C
  H4       1.0000 0.56980  0.87950  0.74860  Biso   1.000  H
  H5       1.0000 0.49210  0.89630  0.84380  Biso   1.000  H
  H6       1.0000 0.64240  0.74750  0.59630  Biso   1.000  H
  N3       1.0000 0.86862  0.69110  0.26276  Biso   1.000  N
  C3       1.0000 0.91780  0.65460  0.27350  Biso   1.000  C
  H7       1.0000 0.93020  0.62050  0.24860  Biso   1.000  H
  H8       1.0000 0.00790  0.60370  0.34380  Biso   1.000  H
  H9       1.0000 0.85760  0.75250  0.09630  Biso   1.000  H
  N4       1.0000 0.36862  0.19110  0.76276  Biso   1.000  N
  C4       1.0000 0.41780  0.15460  0.77350  Biso   1.000  C
  H10      1.0000 0.43020  0.12050  0.74860  Biso   1.000  H
  H11      1.0000 0.50790  0.10370  0.84380  Biso   1.000  H
  H12      1.0000 0.35760  0.25250  0.59630  Biso   1.000  H
  N5       1.0000 0.86862  0.30890  0.73724  Biso   1.000  N
  C5       1.0000 0.91780  0.34540  0.72650  Biso   1.000  C
  H13      1.0000 0.93020  0.37950  0.75140  Biso   1.000  H
  H14      1.0000 0.00790  0.39630  0.65620  Biso   1.000  H
  H15      1.0000 0.85760  0.24750  0.90370  Biso   1.000  H
  N6       1.0000 0.36862  0.80890  0.23724  Biso   1.000  N
  C6       1.0000 0.41780  0.84540  0.22650  Biso   1.000  C
  H16      1.0000 0.43020  0.87950  0.25140  Biso   1.000  H
  H17      1.0000 0.50790  0.89630  0.15620  Biso   1.000  H
  H18      1.0000 0.35760  0.74750  0.40370  Biso   1.000  H
  N7       1.0000 0.13138  0.69110  0.73724  Biso   1.000  N
  C7       1.0000 0.08220  0.65460  0.72650  Biso   1.000  C
  H19      1.0000 0.06980  0.62050  0.75140  Biso   1.000  H
  H20      1.0000 0.99210  0.60370  0.65620  Biso   1.000  H
  H21      1.0000 0.14240  0.75250  0.90370  Biso   1.000  H
  N8       1.0000 0.63138  0.19110  0.23724  Biso   1.000  N
  C8       1.0000 0.58220  0.15460  0.22650  Biso   1.000  C
  H22      1.0000 0.56980  0.12050  0.25140  Biso   1.000  H
  H23      1.0000 0.49210  0.10370  0.15620  Biso   1.000  H
  H24      1.0000 0.64240  0.25250  0.40370  Biso   1.000  H
  N9       1.0000 0.26276  0.13138  0.30890  Biso   1.000  N
  C9       1.0000 0.27350  0.08220  0.34540  Biso   1.000  C
  H25      1.0000 0.24860  0.06980  0.37950  Biso   1.000  H
  H26      1.0000 0.34380  0.99210  0.39630  Biso   1.000  H
  H27      1.0000 0.09630  0.14240  0.24750  Biso   1.000  H
  N10      1.0000 0.76276  0.63138  0.80890  Biso   1.000  N
  C10      1.0000 0.77350  0.58220  0.84540  Biso   1.000  C
  H28      1.0000 0.74860  0.56980  0.87950  Biso   1.000  H
  H29      1.0000 0.84380  0.49210  0.89630  Biso   1.000  H
  H30      1.0000 0.59630  0.64240  0.74750  Biso   1.000  H
  N11      1.0000 0.26276  0.86862  0.69110  Biso   1.000  N
  C11      1.0000 0.27350  0.91780  0.65460  Biso   1.000  C
  H31      1.0000 0.24860  0.93020  0.62050  Biso   1.000  H
  H32      1.0000 0.34380  0.00790  0.60370  Biso   1.000  H
  H33      1.0000 0.09630  0.85760  0.75250  Biso   1.000  H
  N12      1.0000 0.76276  0.36862  0.19110  Biso   1.000  N
  C12      1.0000 0.77350  0.41780  0.15460  Biso   1.000  C
  H34      1.0000 0.74860  0.43020  0.12050  Biso   1.000  H
  H35      1.0000 0.84380  0.50790  0.10370  Biso   1.000  H
  H36      1.0000 0.59630  0.35760  0.25250  Biso   1.000  H
  N13      1.0000 0.73724  0.86862  0.30890  Biso   1.000  N
  C13      1.0000 0.72650  0.91780  0.34540  Biso   1.000  C
  H37      1.0000 0.75140  0.93020  0.37950  Biso   1.000  H
  H38      1.0000 0.65620  0.00790  0.39630  Biso   1.000  H
  H39      1.0000 0.90370  0.85760  0.24750  Biso   1.000  H
  N14      1.0000 0.23724  0.36862  0.80890  Biso   1.000  N
  C14      1.0000 0.22650  0.41780  0.84540  Biso   1.000  C
  H40      1.0000 0.25140  0.43020  0.87950  Biso   1.000  H
  H41      1.0000 0.15620  0.50790  0.89630  Biso   1.000  H
  H42      1.0000 0.40370  0.35760  0.74750  Biso   1.000  H
  N15      1.0000 0.73724  0.13138  0.69110  Biso   1.000  N
  C15      1.0000 0.72650  0.08220  0.65460  Biso   1.000  C
  H43      1.0000 0.75140  0.06980  0.62050  Biso   1.000  H
  H44      1.0000 0.65620  0.99210  0.60370  Biso   1.000  H
  H45      1.0000 0.90370  0.14240  0.75250  Biso   1.000  H
  N16      1.0000 0.23724  0.63138  0.19110  Biso   1.000  N
  C16      1.0000 0.22650  0.58220  0.15460  Biso   1.000  C
  H46      1.0000 0.25140  0.56980  0.12050  Biso   1.000  H
  H47      1.0000 0.15620  0.49210  0.10370  Biso   1.000  H
  H48      1.0000 0.40370  0.64240  0.25250  Biso   1.000  H
  N17      1.0000 0.30890  0.26276  0.13138  Biso   1.000  N
  C17      1.0000 0.34540  0.27350  0.08220  Biso   1.000  C
  H49      1.0000 0.37950  0.24860  0.06980  Biso   1.000  H
  H50      1.0000 0.39630  0.34380  0.99210  Biso   1.000  H
  H51      1.0000 0.24750  0.09630  0.14240  Biso   1.000  H
  N18      1.0000 0.80890  0.76276  0.63138  Biso   1.000  N
  C18      1.0000 0.84540  0.77350  0.58220  Biso   1.000  C
  H52      1.0000 0.87950  0.74860  0.56980  Biso   1.000  H
  H53      1.0000 0.89630  0.84380  0.49210  Biso   1.000  H
  H54      1.0000 0.74750  0.59630  0.64240  Biso   1.000  H
  N19      1.0000 0.69110  0.26276  0.86862  Biso   1.000  N
  C19      1.0000 0.65460  0.27350  0.91780  Biso   1.000  C
  H55      1.0000 0.62050  0.24860  0.93020  Biso   1.000  H
  H56      1.0000 0.60370  0.34380  0.00790  Biso   1.000  H
  H57      1.0000 0.75250  0.09630  0.85760  Biso   1.000  H
  N20      1.0000 0.19110  0.76276  0.36862  Biso   1.000  N
  C20      1.0000 0.15460  0.77350  0.41780  Biso   1.000  C
  H58      1.0000 0.12050  0.74860  0.43020  Biso   1.000  H
  H59      1.0000 0.10370  0.84380  0.50790  Biso   1.000  H
  H60      1.0000 0.25250  0.59630  0.35760  Biso   1.000  H
  N21      1.0000 0.30890  0.73724  0.86862  Biso   1.000  N
  C21      1.0000 0.34540  0.72650  0.91780  Biso   1.000  C
  H61      1.0000 0.37950  0.75140  0.93020  Biso   1.000  H
  H62      1.0000 0.39630  0.65620  0.00790  Biso   1.000  H
  H63      1.0000 0.24750  0.90370  0.85760  Biso   1.000  H
  N22      1.0000 0.80890  0.23724  0.36862  Biso   1.000  N
  C22      1.0000 0.84540  0.22650  0.41780  Biso   1.000  C
  H64      1.0000 0.87950  0.25140  0.43020  Biso   1.000  H
  H65      1.0000 0.89630  0.15620  0.50790  Biso   1.000  H
  H66      1.0000 0.74750  0.40370  0.35760  Biso   1.000  H
  N23      1.0000 0.69110  0.73724  0.13138  Biso   1.000  N
  C23      1.0000 0.65460  0.72650  0.08220  Biso   1.000  C
  H67      1.0000 0.62050  0.75140  0.06980  Biso   1.000  H
  H68      1.0000 0.60370  0.65620  0.99210  Biso   1.000  H
  H69      1.0000 0.75250  0.90370  0.14240  Biso   1.000  H
  N24      1.0000 0.19110  0.23724  0.63138  Biso   1.000  N
  C24      1.0000 0.15460  0.22650  0.58220  Biso   1.000  C
  H70      1.0000 0.12050  0.25140  0.56980  Biso   1.000  H
  H71      1.0000 0.10370  0.15620  0.49210  Biso   1.000  H
  H72      1.0000 0.25250  0.40370  0.64240  Biso   1.000  H
  N25      1.0000 0.30890  0.13138  0.26276  Biso   1.000  N
  C25      1.0000 0.34540  0.08220  0.27350  Biso   1.000  C
  H73      1.0000 0.37950  0.06980  0.24860  Biso   1.000  H
  H74      1.0000 0.39630  0.99210  0.34380  Biso   1.000  H
  H75      1.0000 0.24750  0.14240  0.09630  Biso   1.000  H
  N26      1.0000 0.80890  0.63138  0.76276  Biso   1.000  N
  C26      1.0000 0.84540  0.58220  0.77350  Biso   1.000  C
  H76      1.0000 0.87950  0.56980  0.74860  Biso   1.000  H
  H77      1.0000 0.89630  0.49210  0.84380  Biso   1.000  H
  H78      1.0000 0.74750  0.64240  0.59630  Biso   1.000  H
  N27      1.0000 0.69110  0.86862  0.26276  Biso   1.000  N
  C27      1.0000 0.65460  0.91780  0.27350  Biso   1.000  C
  H79      1.0000 0.62050  0.93020  0.24860  Biso   1.000  H
  H80      1.0000 0.60370  0.00790  0.34380  Biso   1.000  H
  H81      1.0000 0.75250  0.85760  0.09630  Biso   1.000  H
  N28      1.0000 0.19110  0.36862  0.76276  Biso   1.000  N
  C28      1.0000 0.15460  0.41780  0.77350  Biso   1.000  C
  H82      1.0000 0.12050  0.43020  0.74860  Biso   1.000  H
  H83      1.0000 0.10370  0.50790  0.84380  Biso   1.000  H
  H84      1.0000 0.25250  0.35760  0.59630  Biso   1.000  H
  N29      1.0000 0.30890  0.86862  0.73724  Biso   1.000  N
  C29      1.0000 0.34540  0.91780  0.72650  Biso   1.000  C
  H85      1.0000 0.37950  0.93020  0.75140  Biso   1.000  H
  H86      1.0000 0.39630  0.00790  0.65620  Biso   1.000  H
  H87      1.0000 0.24750  0.85760  0.90370  Biso   1.000  H
  N30      1.0000 0.80890  0.36862  0.23724  Biso   1.000  N
  C30      1.0000 0.84540  0.41780  0.22650  Biso   1.000  C
  H88      1.0000 0.87950  0.43020  0.25140  Biso   1.000  H
  H89      1.0000 0.89630  0.50790  0.15620  Biso   1.000  H
  H90      1.0000 0.74750  0.35760  0.40370  Biso   1.000  H
  N31      1.0000 0.69110  0.13138  0.73724  Biso   1.000  N
  C31      1.0000 0.65460  0.08220  0.72650  Biso   1.000  C
  H91      1.0000 0.62050  0.06980  0.75140  Biso   1.000  H
  H92      1.0000 0.60370  0.99210  0.65620  Biso   1.000  H
  H93      1.0000 0.75250  0.14240  0.90370  Biso   1.000  H
  N32      1.0000 0.19110  0.63138  0.23724  Biso   1.000  N
  C32      1.0000 0.15460  0.58220  0.22650  Biso   1.000  C
  H94      1.0000 0.12050  0.56980  0.25140  Biso   1.000  H
  H95      1.0000 0.10370  0.49210  0.15620  Biso   1.000  H
  H96      1.0000 0.25250  0.64240  0.40370  Biso   1.000  H
  N33      1.0000 0.13138  0.26276  0.30890  Biso   1.000  N
  C33      1.0000 0.08220  0.27350  0.34540  Biso   1.000  C
  H97      1.0000 0.06980  0.24860  0.37950  Biso   1.000  H
  H98      1.0000 0.99210  0.34380  0.39630  Biso   1.000  H
  H99      1.0000 0.14240  0.09630  0.24750  Biso   1.000  H
  N34      1.0000 0.63138  0.76276  0.80890  Biso   1.000  N
  C34      1.0000 0.58220  0.77350  0.84540  Biso   1.000  C
  H100     1.0000 0.56980  0.74860  0.87950  Biso   1.000  H
  H101     1.0000 0.49210  0.84380  0.89630  Biso   1.000  H
  H102     1.0000 0.64240  0.59630  0.74750  Biso   1.000  H
  N35      1.0000 0.86862  0.26276  0.69110  Biso   1.000  N
  C35      1.0000 0.91780  0.27350  0.65460  Biso   1.000  C
  H103     1.0000 0.93020  0.24860  0.62050  Biso   1.000  H
  H104     1.0000 0.00790  0.34380  0.60370  Biso   1.000  H
  H105     1.0000 0.85760  0.09630  0.75250  Biso   1.000  H
  N36      1.0000 0.36862  0.76276  0.19110  Biso   1.000  N
  C36      1.0000 0.41780  0.77350  0.15460  Biso   1.000  C
  H106     1.0000 0.43020  0.74860  0.12050  Biso   1.000  H
  H107     1.0000 0.50790  0.84380  0.10370  Biso   1.000  H
  H108     1.0000 0.35760  0.59630  0.25250  Biso   1.000  H
  N37      1.0000 0.86862  0.73724  0.30890  Biso   1.000  N
  C37      1.0000 0.91780  0.72650  0.34540  Biso   1.000  C
  H109     1.0000 0.93020  0.75140  0.37950  Biso   1.000  H
  H110     1.0000 0.00790  0.65620  0.39630  Biso   1.000  H
  H111     1.0000 0.85760  0.90370  0.24750  Biso   1.000  H
  N38      1.0000 0.36862  0.23724  0.80890  Biso   1.000  N
  C38      1.0000 0.41780  0.22650  0.84540  Biso   1.000  C
  H112     1.0000 0.43020  0.25140  0.87950  Biso   1.000  H
  H113     1.0000 0.50790  0.15620  0.89630  Biso   1.000  H
  H114     1.0000 0.35760  0.40370  0.74750  Biso   1.000  H
  N39      1.0000 0.13138  0.73724  0.69110  Biso   1.000  N
  C39      1.0000 0.08220  0.72650  0.65460  Biso   1.000  C
  H115     1.0000 0.06980  0.75140  0.62050  Biso   1.000  H
  H116     1.0000 0.99210  0.65620  0.60370  Biso   1.000  H
  H117     1.0000 0.14240  0.90370  0.75250  Biso   1.000  H
  N40      1.0000 0.63138  0.23724  0.19110  Biso   1.000  N
  C40      1.0000 0.58220  0.22650  0.15460  Biso   1.000  C
  H118     1.0000 0.56980  0.25140  0.12050  Biso   1.000  H
  H119     1.0000 0.49210  0.15620  0.10370  Biso   1.000  H
  H120     1.0000 0.64240  0.40370  0.25250  Biso   1.000  H
  N41      1.0000 0.26276  0.30890  0.13138  Biso   1.000  N
  C41      1.0000 0.27350  0.34540  0.08220  Biso   1.000  C
  H121     1.0000 0.24860  0.37950  0.06980  Biso   1.000  H
  H122     1.0000 0.34380  0.39630  0.99210  Biso   1.000  H
  H123     1.0000 0.09630  0.24750  0.14240  Biso   1.000  H
  N42      1.0000 0.76276  0.80890  0.63138  Biso   1.000  N
  C42      1.0000 0.77350  0.84540  0.58220  Biso   1.000  C
  H124     1.0000 0.74860  0.87950  0.56980  Biso   1.000  H
  H125     1.0000 0.84380  0.89630  0.49210  Biso   1.000  H
  H126     1.0000 0.59630  0.74750  0.64240  Biso   1.000  H
  N43      1.0000 0.26276  0.69110  0.86862  Biso   1.000  N
  C43      1.0000 0.27350  0.65460  0.91780  Biso   1.000  C
  H127     1.0000 0.24860  0.62050  0.93020  Biso   1.000  H
  H128     1.0000 0.34380  0.60370  0.00790  Biso   1.000  H
  H129     1.0000 0.09630  0.75250  0.85760  Biso   1.000  H
  N44      1.0000 0.76276  0.19110  0.36862  Biso   1.000  N
  C44      1.0000 0.77350  0.15460  0.41780  Biso   1.000  C
  H130     1.0000 0.74860  0.12050  0.43020  Biso   1.000  H
  H131     1.0000 0.84380  0.10370  0.50790  Biso   1.000  H
  H132     1.0000 0.59630  0.25250  0.35760  Biso   1.000  H
  N45      1.0000 0.73724  0.30890  0.86862  Biso   1.000  N
  C45      1.0000 0.72650  0.34540  0.91780  Biso   1.000  C
  H133     1.0000 0.75140  0.37950  0.93020  Biso   1.000  H
  H134     1.0000 0.65620  0.39630  0.00790  Biso   1.000  H
  H135     1.0000 0.90370  0.24750  0.85760  Biso   1.000  H
  N46      1.0000 0.23724  0.80890  0.36862  Biso   1.000  N
  C46      1.0000 0.22650  0.84540  0.41780  Biso   1.000  C
  H136     1.0000 0.25140  0.87950  0.43020  Biso   1.000  H
  H137     1.0000 0.15620  0.89630  0.50790  Biso   1.000  H
  H138     1.0000 0.40370  0.74750  0.35760  Biso   1.000  H
  N47      1.0000 0.73724  0.69110  0.13138  Biso   1.000  N
  C47      1.0000 0.72650  0.65460  0.08220  Biso   1.000  C
  H139     1.0000 0.75140  0.62050  0.06980  Biso   1.000  H
  H140     1.0000 0.65620  0.60370  0.99210  Biso   1.000  H
  H141     1.0000 0.90370  0.75250  0.14240  Biso   1.000  H
  N48      1.0000 0.23724  0.19110  0.63138  Biso   1.000  N
  C48      1.0000 0.22650  0.15460  0.58220  Biso   1.000  C
  H142     1.0000 0.25140  0.12050  0.56980  Biso   1.000  H
  H143     1.0000 0.15620  0.10370  0.49210  Biso   1.000  H
  H144     1.0000 0.40370  0.25250  0.64240  Biso   1.000  H
  Cu1      1.0000 0.19330  0.30688  0.19330  Biso   1.000  Cu
  O1       1.0000 0.13520  0.23980  0.13520  Biso   1.000  O
  Cu2      1.0000 0.69330  0.80688  0.69330  Biso   1.000  Cu
  O2       1.0000 0.63520  0.73980  0.63520  Biso   1.000  O
  Cu3      1.0000 0.80670  0.69312  0.19330  Biso   1.000  Cu
  O3       1.0000 0.86480  0.76020  0.13520  Biso   1.000  O
  Cu4      1.0000 0.30670  0.19312  0.69330  Biso   1.000  Cu
  O4       1.0000 0.36480  0.26020  0.63520  Biso   1.000  O
  Cu5      1.0000 0.80670  0.30688  0.80670  Biso   1.000  Cu
  O5       1.0000 0.86480  0.23980  0.86480  Biso   1.000  O
  Cu6      1.0000 0.30670  0.80688  0.30670  Biso   1.000  Cu
  O6       1.0000 0.36480  0.73980  0.36480  Biso   1.000  O
  Cu7      1.0000 0.19330  0.69312  0.80670  Biso   1.000  Cu
  O7       1.0000 0.13520  0.76020  0.86480  Biso   1.000  O
  Cu8      1.0000 0.69330  0.19312  0.30670  Biso   1.000  Cu
  O8       1.0000 0.63520  0.26020  0.36480  Biso   1.000  O
  Cu9      1.0000 0.19330  0.19330  0.30688  Biso   1.000  Cu
  O9       1.0000 0.13520  0.13520  0.23980  Biso   1.000  O
  Cu10     1.0000 0.69330  0.69330  0.80688  Biso   1.000  Cu
  O10      1.0000 0.63520  0.63520  0.73980  Biso   1.000  O
  Cu11     1.0000 0.19330  0.80670  0.69312  Biso   1.000  Cu
  O11      1.0000 0.13520  0.86480  0.76020  Biso   1.000  O
  Cu12     1.0000 0.69330  0.30670  0.19312  Biso   1.000  Cu
  O12      1.0000 0.63520  0.36480  0.26020  Biso   1.000  O
  Cu13     1.0000 0.80670  0.80670  0.30688  Biso   1.000  Cu
  O13      1.0000 0.86480  0.86480  0.23980  Biso   1.000  O
  Cu14     1.0000 0.30670  0.30670  0.80688  Biso   1.000  Cu
  O14      1.0000 0.36480  0.36480  0.73980  Biso   1.000  O
  Cu15     1.0000 0.80670  0.19330  0.69312  Biso   1.000  Cu
  O15      1.0000 0.86480  0.13520  0.76020  Biso   1.000  O
  Cu16     1.0000 0.30670  0.69330  0.19312  Biso   1.000  Cu
  O16      1.0000 0.36480  0.63520  0.26020  Biso   1.000  O
  Cu17     1.0000 0.30688  0.19330  0.19330  Biso   1.000  Cu
  O17      1.0000 0.23980  0.13520  0.13520  Biso   1.000  O
  Cu18     1.0000 0.80688  0.69330  0.69330  Biso   1.000  Cu
  O18      1.0000 0.73980  0.63520  0.63520  Biso   1.000  O
  Cu19     1.0000 0.69312  0.19330  0.80670  Biso   1.000  Cu
  O19      1.0000 0.76020  0.13520  0.86480  Biso   1.000  O
  Cu20     1.0000 0.19312  0.69330  0.30670  Biso   1.000  Cu
  O20      1.0000 0.26020  0.63520  0.36480  Biso   1.000  O
  Cu21     1.0000 0.30688  0.80670  0.80670  Biso   1.000  Cu
  O21      1.0000 0.23980  0.86480  0.86480  Biso   1.000  O
  Cu22     1.0000 0.80688  0.30670  0.30670  Biso   1.000  Cu
  O22      1.0000 0.73980  0.36480  0.36480  Biso   1.000  O
  Cu23     1.0000 0.69312  0.80670  0.19330  Biso   1.000  Cu
  O23      1.0000 0.76020  0.86480  0.13520  Biso   1.000  O
  Cu24     1.0000 0.19312  0.30670  0.69330  Biso   1.000  Cu
  O24      1.0000 0.26020  0.36480  0.63520  Biso   1.000  O
  N49      1.0000 0.05300  0.32554  0.32554  Biso   1.000  N
  O25      1.0000 0.94040  0.28035  0.28035  Biso   1.000  O
  O26      1.0000 0.88420  0.34333  0.34333  Biso   1.000  O
  C49      1.0000 0.99320  0.35150  0.35150  Biso   1.000  C
  C50      1.0000 0.93560  0.32170  0.32170  Biso   1.000  C
  N50      1.0000 0.55300  0.82554  0.82554  Biso   1.000  N
  O27      1.0000 0.44040  0.78035  0.78035  Biso   1.000  O
  O28      1.0000 0.38420  0.84333  0.84333  Biso   1.000  O
  C51      1.0000 0.49320  0.85150  0.85150  Biso   1.000  C
  C52      1.0000 0.43560  0.82170  0.82170  Biso   1.000  C
  N51      1.0000 0.94700  0.67446  0.32554  Biso   1.000  N
  O29      1.0000 0.05960  0.71965  0.28035  Biso   1.000  O
  O30      1.0000 0.11580  0.65667  0.34333  Biso   1.000  O
  C53      1.0000 0.00680  0.64850  0.35150  Biso   1.000  C
  C54      1.0000 0.06440  0.67830  0.32170  Biso   1.000  C
  N52      1.0000 0.44700  0.17446  0.82554  Biso   1.000  N
  O31      1.0000 0.55960  0.21965  0.78035  Biso   1.000  O
  O32      1.0000 0.61580  0.15667  0.84333  Biso   1.000  O
  C55      1.0000 0.50680  0.14850  0.85150  Biso   1.000  C
  C56      1.0000 0.56440  0.17830  0.82170  Biso   1.000  C
  N53      1.0000 0.94700  0.32554  0.67446  Biso   1.000  N
  O33      1.0000 0.05960  0.28035  0.71965  Biso   1.000  O
  O34      1.0000 0.11580  0.34333  0.65667  Biso   1.000  O
  C57      1.0000 0.00680  0.35150  0.64850  Biso   1.000  C
  C58      1.0000 0.06440  0.32170  0.67830  Biso   1.000  C
  N54      1.0000 0.44700  0.82554  0.17446  Biso   1.000  N
  O35      1.0000 0.55960  0.78035  0.21965  Biso   1.000  O
  O36      1.0000 0.61580  0.84333  0.15667  Biso   1.000  O
  C59      1.0000 0.50680  0.85150  0.14850  Biso   1.000  C
  C60      1.0000 0.56440  0.82170  0.17830  Biso   1.000  C
  N55      1.0000 0.05300  0.67446  0.67446  Biso   1.000  N
  O37      1.0000 0.94040  0.71965  0.71965  Biso   1.000  O
  O38      1.0000 0.88420  0.65667  0.65667  Biso   1.000  O
  C61      1.0000 0.99320  0.64850  0.64850  Biso   1.000  C
  C62      1.0000 0.93560  0.67830  0.67830  Biso   1.000  C
  N56      1.0000 0.55300  0.17446  0.17446  Biso   1.000  N
  O39      1.0000 0.44040  0.21965  0.21965  Biso   1.000  O
  O40      1.0000 0.38420  0.15667  0.15667  Biso   1.000  O
  C63      1.0000 0.49320  0.14850  0.14850  Biso   1.000  C
  C64      1.0000 0.43560  0.17830  0.17830  Biso   1.000  C
  N57      1.0000 0.32554  0.05300  0.32554  Biso   1.000  N
  O41      1.0000 0.28035  0.94040  0.28035  Biso   1.000  O
  O42      1.0000 0.34333  0.88420  0.34333  Biso   1.000  O
  C65      1.0000 0.35150  0.99320  0.35150  Biso   1.000  C
  C66      1.0000 0.32170  0.93560  0.32170  Biso   1.000  C
  N58      1.0000 0.82554  0.55300  0.82554  Biso   1.000  N
  O43      1.0000 0.78035  0.44040  0.78035  Biso   1.000  O
  O44      1.0000 0.84333  0.38420  0.84333  Biso   1.000  O
  C67      1.0000 0.85150  0.49320  0.85150  Biso   1.000  C
  C68      1.0000 0.82170  0.43560  0.82170  Biso   1.000  C
  N59      1.0000 0.32554  0.94700  0.67446  Biso   1.000  N
  O45      1.0000 0.28035  0.05960  0.71965  Biso   1.000  O
  O46      1.0000 0.34333  0.11580  0.65667  Biso   1.000  O
  C69      1.0000 0.35150  0.00680  0.64850  Biso   1.000  C
  C70      1.0000 0.32170  0.06440  0.67830  Biso   1.000  C
  N60      1.0000 0.82554  0.44700  0.17446  Biso   1.000  N
  O47      1.0000 0.78035  0.55960  0.21965  Biso   1.000  O
  O48      1.0000 0.84333  0.61580  0.15667  Biso   1.000  O
  C71      1.0000 0.85150  0.50680  0.14850  Biso   1.000  C
  C72      1.0000 0.82170  0.56440  0.17830  Biso   1.000  C
  N61      1.0000 0.67446  0.94700  0.32554  Biso   1.000  N
  O49      1.0000 0.71965  0.05960  0.28035  Biso   1.000  O
  O50      1.0000 0.65667  0.11580  0.34333  Biso   1.000  O
  C73      1.0000 0.64850  0.00680  0.35150  Biso   1.000  C
  C74      1.0000 0.67830  0.06440  0.32170  Biso   1.000  C
  N62      1.0000 0.17446  0.44700  0.82554  Biso   1.000  N
  O51      1.0000 0.21965  0.55960  0.78035  Biso   1.000  O
  O52      1.0000 0.15667  0.61580  0.84333  Biso   1.000  O
  C75      1.0000 0.14850  0.50680  0.85150  Biso   1.000  C
  C76      1.0000 0.17830  0.56440  0.82170  Biso   1.000  C
  N63      1.0000 0.67446  0.05300  0.67446  Biso   1.000  N
  O53      1.0000 0.71965  0.94040  0.71965  Biso   1.000  O
  O54      1.0000 0.65667  0.88420  0.65667  Biso   1.000  O
  C77      1.0000 0.64850  0.99320  0.64850  Biso   1.000  C
  C78      1.0000 0.67830  0.93560  0.67830  Biso   1.000  C
  N64      1.0000 0.17446  0.55300  0.17446  Biso   1.000  N
  O55      1.0000 0.21965  0.44040  0.21965  Biso   1.000  O
  O56      1.0000 0.15667  0.38420  0.15667  Biso   1.000  O
  C79      1.0000 0.14850  0.49320  0.14850  Biso   1.000  C
  C80      1.0000 0.17830  0.43560  0.17830  Biso   1.000  C
  N65      1.0000 0.32554  0.32554  0.05300  Biso   1.000  N
  O57      1.0000 0.28035  0.28035  0.94040  Biso   1.000  O
  O58      1.0000 0.34333  0.34333  0.88420  Biso   1.000  O
  C81      1.0000 0.35150  0.35150  0.99320  Biso   1.000  C
  C82      1.0000 0.32170  0.32170  0.93560  Biso   1.000  C
  N66      1.0000 0.82554  0.82554  0.55300  Biso   1.000  N
  O59      1.0000 0.78035  0.78035  0.44040  Biso   1.000  O
  O60      1.0000 0.84333  0.84333  0.38420  Biso   1.000  O
  C83      1.0000 0.85150  0.85150  0.49320  Biso   1.000  C
  C84      1.0000 0.82170  0.82170  0.43560  Biso   1.000  C
  N67      1.0000 0.67446  0.32554  0.94700  Biso   1.000  N
  O61      1.0000 0.71965  0.28035  0.05960  Biso   1.000  O
  O62      1.0000 0.65667  0.34333  0.11580  Biso   1.000  O
  C85      1.0000 0.64850  0.35150  0.00680  Biso   1.000  C
  C86      1.0000 0.67830  0.32170  0.06440  Biso   1.000  C
  N68      1.0000 0.17446  0.82554  0.44700  Biso   1.000  N
  O63      1.0000 0.21965  0.78035  0.55960  Biso   1.000  O
  O64      1.0000 0.15667  0.84333  0.61580  Biso   1.000  O
  C87      1.0000 0.14850  0.85150  0.50680  Biso   1.000  C
  C88      1.0000 0.17830  0.82170  0.56440  Biso   1.000  C
  N69      1.0000 0.32554  0.67446  0.94700  Biso   1.000  N
  O65      1.0000 0.28035  0.71965  0.05960  Biso   1.000  O
  O66      1.0000 0.34333  0.65667  0.11580  Biso   1.000  O
  C89      1.0000 0.35150  0.64850  0.00680  Biso   1.000  C
  C90      1.0000 0.32170  0.67830  0.06440  Biso   1.000  C
  N70      1.0000 0.82554  0.17446  0.44700  Biso   1.000  N
  O67      1.0000 0.78035  0.21965  0.55960  Biso   1.000  O
  O68      1.0000 0.84333  0.15667  0.61580  Biso   1.000  O
  C91      1.0000 0.85150  0.14850  0.50680  Biso   1.000  C
  C92      1.0000 0.82170  0.17830  0.56440  Biso   1.000  C
  N71      1.0000 0.67446  0.67446  0.05300  Biso   1.000  N
  O69      1.0000 0.71965  0.71965  0.94040  Biso   1.000  O
  O70      1.0000 0.65667  0.65667  0.88420  Biso   1.000  O
  C93      1.0000 0.64850  0.64850  0.99320  Biso   1.000  C
  C94      1.0000 0.67830  0.67830  0.93560  Biso   1.000  C
  N72      1.0000 0.17446  0.17446  0.55300  Biso   1.000  N
  O71      1.0000 0.21965  0.21965  0.44040  Biso   1.000  O
  O72      1.0000 0.15667  0.15667  0.38420  Biso   1.000  O
  C95      1.0000 0.14850  0.14850  0.49320  Biso   1.000  C
  C96      1.0000 0.17830  0.17830  0.43560  Biso   1.000  C
  O73      1.0000 0.24320  0.24320  0.24320  Biso   1.000  O
  H145     1.0000 0.26700  0.26700  0.26700  Biso   1.000  H
  O74      1.0000 0.74320  0.74320  0.74320  Biso   1.000  O
  H146     1.0000 0.76700  0.76700  0.76700  Biso   1.000  H
  O75      1.0000 0.75680  0.75680  0.24320  Biso   1.000  O
  H147     1.0000 0.73300  0.73300  0.26700  Biso   1.000  H
  O76      1.0000 0.25680  0.25680  0.74320  Biso   1.000  O
  H148     1.0000 0.23300  0.23300  0.76700  Biso   1.000  H
  O77      1.0000 0.75680  0.24320  0.75680  Biso   1.000  O
  H149     1.0000 0.73300  0.26700  0.73300  Biso   1.000  H
  O78      1.0000 0.25680  0.74320  0.25680  Biso   1.000  O
  H150     1.0000 0.23300  0.76700  0.23300  Biso   1.000  H
  O79      1.0000 0.24320  0.75680  0.75680  Biso   1.000  O
  H151     1.0000 0.26700  0.73300  0.73300  Biso   1.000  H
  O80      1.0000 0.74320  0.25680  0.25680  Biso   1.000  O
  H152     1.0000 0.76700  0.23300  0.23300  Biso   1.000  H
