data_image0
_cell_length_a       15.0721
_cell_length_b       24.7694
_cell_length_c       15.1707
_cell_angle_alpha    90
_cell_angle_beta     110.541
_cell_angle_gamma    90

_symmetry_space_group_name_H-M    "P 1"
_symmetry_int_tables_number       1

loop_
  _symmetry_equiv_pos_as_xyz
  'x, y, z'

loop_
  _atom_site_label
  _atom_site_occupancy
  _atom_site_fract_x
  _atom_site_fract_y
  _atom_site_fract_z
  _atom_site_thermal_displace_type
  _atom_site_B_iso_or_equiv
  _atom_site_type_symbol
  Ni1      1.0000 0.39621  0.52227  0.10812  Biso   1.000  Ni
  C1       1.0000 0.20950  0.49590  0.13010  Biso   1.000  C
  H1       1.0000 0.24830  0.48430  0.18940  Biso   1.000  H
  C2       1.0000 0.11070  0.49040  0.10400  Biso   1.000  C
  H2       1.0000 0.08480  0.47780  0.14740  Biso   1.000  H
  C3       1.0000 0.05270  0.50350  0.01440  Biso   1.000  C
  C4       1.0000 0.09450  0.52250  0.95600  Biso   1.000  C
  H3       1.0000 0.05710  0.53170  0.89480  Biso   1.000  H
  C5       1.0000 0.19270  0.52890  0.98420  Biso   1.000  C
  H4       1.0000 0.21960  0.54130  0.94140  Biso   1.000  H
  C6       1.0000 0.32270  0.63630  0.08070  Biso   1.000  C
  C7       1.0000 0.32230  0.69180  0.08190  Biso   1.000  C
  H5       1.0000 0.26520  0.71010  0.05620  Biso   1.000  H
  C8       1.0000 0.40400  0.72020  0.11980  Biso   1.000  C
  C9       1.0000 0.47970  0.69170  0.15050  Biso   1.000  C
  H6       1.0000 0.53810  0.70910  0.17280  Biso   1.000  H
  C10      1.0000 0.47680  0.63320  0.15150  Biso   1.000  C
  H7       1.0000 0.53230  0.61410  0.18210  Biso   1.000  H
  C11      1.0000 0.54650  0.49830  0.04400  Biso   1.000  C
  C12      1.0000 0.49530  0.47960  0.29830  Biso   1.000  C
  H8       1.0000 0.51720  0.45560  0.26340  Biso   1.000  H
  C13      1.0000 0.52070  0.47280  0.39420  Biso   1.000  C
  H9       1.0000 0.56160  0.44470  0.42260  Biso   1.000  H
  C14      1.0000 0.48900  0.50540  0.44990  Biso   1.000  C
  C15      1.0000 0.43340  0.54870  0.40190  Biso   1.000  C
  H10      1.0000 0.41050  0.57350  0.43480  Biso   1.000  H
  C16      1.0000 0.41230  0.55500  0.30700  Biso   1.000  C
  H11      1.0000 0.37740  0.58520  0.27820  Biso   1.000  H
  N1       1.0000 0.43800  0.52130  0.25470  Biso   1.000  N
  N2       1.0000 0.24850  0.51720  0.07300  Biso   1.000  N
  N3       1.0000 0.39850  0.60660  0.11070  Biso   1.000  N
  O1       1.0000 0.62040  0.48270  0.03480  Biso   1.000  O
  O2       1.0000 0.53660  0.51260  0.12010  Biso   1.000  O
  O3       1.0000 0.38890  0.43700  0.10520  Biso   1.000  O
  H12      1.0000 0.36930  0.42060  0.14390  Biso   1.000  H
  H13      1.0000 0.42570  0.41260  0.09850  Biso   1.000  H
  Ni2      1.0000 0.60379  0.02227  0.89188  Biso   1.000  Ni
  C17      1.0000 0.79050  0.99590  0.86990  Biso   1.000  C
  H14      1.0000 0.75170  0.98430  0.81060  Biso   1.000  H
  C18      1.0000 0.88930  0.99040  0.89600  Biso   1.000  C
  H15      1.0000 0.91520  0.97780  0.85260  Biso   1.000  H
  C19      1.0000 0.94730  0.00350  0.98560  Biso   1.000  C
  C20      1.0000 0.90550  0.02250  0.04400  Biso   1.000  C
  H16      1.0000 0.94290  0.03170  0.10520  Biso   1.000  H
  C21      1.0000 0.80730  0.02890  0.01580  Biso   1.000  C
  H17      1.0000 0.78040  0.04130  0.05860  Biso   1.000  H
  C22      1.0000 0.67730  0.13630  0.91930  Biso   1.000  C
  C23      1.0000 0.67770  0.19180  0.91810  Biso   1.000  C
  H18      1.0000 0.73480  0.21010  0.94380  Biso   1.000  H
  C24      1.0000 0.59600  0.22020  0.88020  Biso   1.000  C
  C25      1.0000 0.52030  0.19170  0.84950  Biso   1.000  C
  H19      1.0000 0.46190  0.20910  0.82720  Biso   1.000  H
  C26      1.0000 0.52320  0.13320  0.84850  Biso   1.000  C
  H20      1.0000 0.46770  0.11410  0.81790  Biso   1.000  H
  C27      1.0000 0.45350  0.99830  0.95600  Biso   1.000  C
  C28      1.0000 0.50470  0.97960  0.70170  Biso   1.000  C
  H21      1.0000 0.48280  0.95560  0.73660  Biso   1.000  H
  C29      1.0000 0.47930  0.97280  0.60580  Biso   1.000  C
  H22      1.0000 0.43840  0.94470  0.57740  Biso   1.000  H
  C30      1.0000 0.51100  0.00540  0.55010  Biso   1.000  C
  C31      1.0000 0.56660  0.04870  0.59810  Biso   1.000  C
  H23      1.0000 0.58950  0.07350  0.56520  Biso   1.000  H
  C32      1.0000 0.58770  0.05500  0.69300  Biso   1.000  C
  H24      1.0000 0.62260  0.08520  0.72180  Biso   1.000  H
  N4       1.0000 0.56200  0.02130  0.74530  Biso   1.000  N
  N5       1.0000 0.75150  0.01720  0.92700  Biso   1.000  N
  N6       1.0000 0.60150  0.10660  0.88930  Biso   1.000  N
  O4       1.0000 0.37960  0.98270  0.96520  Biso   1.000  O
  O5       1.0000 0.46340  0.01260  0.87990  Biso   1.000  O
  O6       1.0000 0.61110  0.93700  0.89480  Biso   1.000  O
  H25      1.0000 0.63070  0.92060  0.85610  Biso   1.000  H
  H26      1.0000 0.57430  0.91260  0.90150  Biso   1.000  H
  Ni3      1.0000 0.60379  0.47773  0.89188  Biso   1.000  Ni
  C33      1.0000 0.79050  0.50410  0.86990  Biso   1.000  C
  H27      1.0000 0.75170  0.51570  0.81060  Biso   1.000  H
  C34      1.0000 0.88930  0.50960  0.89600  Biso   1.000  C
  H28      1.0000 0.91520  0.52220  0.85260  Biso   1.000  H
  C35      1.0000 0.94730  0.49650  0.98560  Biso   1.000  C
  C36      1.0000 0.90550  0.47750  0.04400  Biso   1.000  C
  H29      1.0000 0.94290  0.46830  0.10520  Biso   1.000  H
  C37      1.0000 0.80730  0.47110  0.01580  Biso   1.000  C
  H30      1.0000 0.78040  0.45870  0.05860  Biso   1.000  H
  C38      1.0000 0.67730  0.36370  0.91930  Biso   1.000  C
  C39      1.0000 0.67770  0.30820  0.91810  Biso   1.000  C
  H31      1.0000 0.73480  0.28990  0.94380  Biso   1.000  H
  C40      1.0000 0.59600  0.27980  0.88020  Biso   1.000  C
  C41      1.0000 0.52030  0.30830  0.84950  Biso   1.000  C
  H32      1.0000 0.46190  0.29090  0.82720  Biso   1.000  H
  C42      1.0000 0.52320  0.36680  0.84850  Biso   1.000  C
  H33      1.0000 0.46770  0.38590  0.81790  Biso   1.000  H
  C43      1.0000 0.45350  0.50170  0.95600  Biso   1.000  C
  C44      1.0000 0.50470  0.52040  0.70170  Biso   1.000  C
  H34      1.0000 0.48280  0.54440  0.73660  Biso   1.000  H
  C45      1.0000 0.47930  0.52720  0.60580  Biso   1.000  C
  H35      1.0000 0.43840  0.55530  0.57740  Biso   1.000  H
  C46      1.0000 0.51100  0.49460  0.55010  Biso   1.000  C
  C47      1.0000 0.56660  0.45130  0.59810  Biso   1.000  C
  H36      1.0000 0.58950  0.42650  0.56520  Biso   1.000  H
  C48      1.0000 0.58770  0.44500  0.69300  Biso   1.000  C
  H37      1.0000 0.62260  0.41480  0.72180  Biso   1.000  H
  N7       1.0000 0.56200  0.47870  0.74530  Biso   1.000  N
  N8       1.0000 0.75150  0.48280  0.92700  Biso   1.000  N
  N9       1.0000 0.60150  0.39340  0.88930  Biso   1.000  N
  O7       1.0000 0.37960  0.51730  0.96520  Biso   1.000  O
  O8       1.0000 0.46340  0.48740  0.87990  Biso   1.000  O
  O9       1.0000 0.61110  0.56300  0.89480  Biso   1.000  O
  H38      1.0000 0.63070  0.57940  0.85610  Biso   1.000  H
  H39      1.0000 0.57430  0.58740  0.90150  Biso   1.000  H
  Ni4      1.0000 0.39621  0.97773  0.10812  Biso   1.000  Ni
  C49      1.0000 0.20950  0.00410  0.13010  Biso   1.000  C
  H40      1.0000 0.24830  0.01570  0.18940  Biso   1.000  H
  C50      1.0000 0.11070  0.00960  0.10400  Biso   1.000  C
  H41      1.0000 0.08480  0.02220  0.14740  Biso   1.000  H
  C51      1.0000 0.05270  0.99650  0.01440  Biso   1.000  C
  C52      1.0000 0.09450  0.97750  0.95600  Biso   1.000  C
  H42      1.0000 0.05710  0.96830  0.89480  Biso   1.000  H
  C53      1.0000 0.19270  0.97110  0.98420  Biso   1.000  C
  H43      1.0000 0.21960  0.95870  0.94140  Biso   1.000  H
  C54      1.0000 0.32270  0.86370  0.08070  Biso   1.000  C
  C55      1.0000 0.32230  0.80820  0.08190  Biso   1.000  C
  H44      1.0000 0.26520  0.78990  0.05620  Biso   1.000  H
  C56      1.0000 0.40400  0.77980  0.11980  Biso   1.000  C
  C57      1.0000 0.47970  0.80830  0.15050  Biso   1.000  C
  H45      1.0000 0.53810  0.79090  0.17280  Biso   1.000  H
  C58      1.0000 0.47680  0.86680  0.15150  Biso   1.000  C
  H46      1.0000 0.53230  0.88590  0.18210  Biso   1.000  H
  C59      1.0000 0.54650  0.00170  0.04400  Biso   1.000  C
  C60      1.0000 0.49530  0.02040  0.29830  Biso   1.000  C
  H47      1.0000 0.51720  0.04440  0.26340  Biso   1.000  H
  C61      1.0000 0.52070  0.02720  0.39420  Biso   1.000  C
  H48      1.0000 0.56160  0.05530  0.42260  Biso   1.000  H
  C62      1.0000 0.48900  0.99460  0.44990  Biso   1.000  C
  C63      1.0000 0.43340  0.95130  0.40190  Biso   1.000  C
  H49      1.0000 0.41050  0.92650  0.43480  Biso   1.000  H
  C64      1.0000 0.41230  0.94500  0.30700  Biso   1.000  C
  H50      1.0000 0.37740  0.91480  0.27820  Biso   1.000  H
  N10      1.0000 0.43800  0.97870  0.25470  Biso   1.000  N
  N11      1.0000 0.24850  0.98280  0.07300  Biso   1.000  N
  N12      1.0000 0.39850  0.89340  0.11070  Biso   1.000  N
  O10      1.0000 0.62040  0.01730  0.03480  Biso   1.000  O
  O11      1.0000 0.53660  0.98740  0.12010  Biso   1.000  O
  O12      1.0000 0.38890  0.06300  0.10520  Biso   1.000  O
  H51      1.0000 0.36930  0.07940  0.14390  Biso   1.000  H
  H52      1.0000 0.42570  0.08740  0.09850  Biso   1.000  H
  W1       1.0000 0.00316  0.39247  0.31425  Biso   1.000  W
  W2       1.0000 0.26698  0.39229  0.37189  Biso   1.000  W
  W3       1.0000 0.23487  0.31799  0.15398  Biso   1.000  W
  W4       1.0000 0.97161  0.31780  0.09569  Biso   1.000  W
  W5       1.0000 0.03013  0.32422  0.51272  Biso   1.000  W
  W6       1.0000 0.46971  0.31818  0.34490  Biso   1.000  W
  W7       1.0000 0.29438  0.32442  0.57069  Biso   1.000  W
  W8       1.0000 0.77976  0.31830  0.19557  Biso   1.000  W
  O13      1.0000 0.00210  0.38880  0.43840  Biso   1.000  O
  O14      1.0000 0.10080  0.31060  0.11010  Biso   1.000  O
  O15      1.0000 0.13710  0.39630  0.36080  Biso   1.000  O
  O16      1.0000 0.38860  0.36640  0.37950  Biso   1.000  O
  O17      1.0000 0.16130  0.33520  0.53710  Biso   1.000  O
  O18      1.0000 0.03270  0.30090  0.36250  Biso   1.000  O
  O19      1.0000 0.97740  0.45950  0.29000  Biso   1.000  O
  O20      1.0000 0.30250  0.38870  0.50320  Biso   1.000  O
  O21      1.0000 0.00820  0.36660  0.19780  Biso   1.000  O
  O22      1.0000 0.41650  0.30160  0.56970  Biso   1.000  O
  O23      1.0000 0.36680  0.31390  0.22700  Biso   1.000  O
  O24      1.0000 0.28310  0.45920  0.35670  Biso   1.000  O
  O25      1.0000 0.87380  0.36580  0.26990  Biso   1.000  O
  O26      1.0000 0.90050  0.30190  0.45550  Biso   1.000  O
  O27      1.0000 0.02390  0.34810  0.61500  Biso   1.000  O
  O28      1.0000 0.53510  0.30480  0.47390  Biso   1.000  O
  O29      1.0000 0.24270  0.36120  0.06990  Biso   1.000  O
  O30      1.0000 0.85220  0.31340  0.11610  Biso   1.000  O
  O31      1.0000 0.32880  0.34930  0.68210  Biso   1.000  O
  O32      1.0000 0.69310  0.36260  0.13750  Biso   1.000  O
  O33      1.0000 0.93530  0.35950  0.99950  Biso   1.000  O
  O34      1.0000 0.74520  0.30410  0.30390  Biso   1.000  O
  O35      1.0000 0.22500  0.36560  0.24690  Biso   1.000  O
  O36      1.0000 0.24810  0.30130  0.40940  Biso   1.000  O
  O37      1.0000 0.54760  0.35920  0.32080  Biso   1.000  O
  W9       1.0000 0.00316  0.10753  0.31425  Biso   1.000  W
  W10      1.0000 0.26698  0.10771  0.37189  Biso   1.000  W
  W11      1.0000 0.23487  0.18201  0.15398  Biso   1.000  W
  W12      1.0000 0.97161  0.18220  0.09569  Biso   1.000  W
  W13      1.0000 0.03013  0.17578  0.51272  Biso   1.000  W
  W14      1.0000 0.46971  0.18182  0.34490  Biso   1.000  W
  W15      1.0000 0.29438  0.17558  0.57069  Biso   1.000  W
  W16      1.0000 0.77976  0.18170  0.19557  Biso   1.000  W
  O38      1.0000 0.00210  0.11120  0.43840  Biso   1.000  O
  O39      1.0000 0.10080  0.18940  0.11010  Biso   1.000  O
  O40      1.0000 0.13710  0.10370  0.36080  Biso   1.000  O
  O41      1.0000 0.38860  0.13360  0.37950  Biso   1.000  O
  O42      1.0000 0.16130  0.16480  0.53710  Biso   1.000  O
  O43      1.0000 0.03270  0.19910  0.36250  Biso   1.000  O
  O44      1.0000 0.97740  0.04050  0.29000  Biso   1.000  O
  O45      1.0000 0.30250  0.11130  0.50320  Biso   1.000  O
  O46      1.0000 0.00820  0.13340  0.19780  Biso   1.000  O
  O47      1.0000 0.41650  0.19840  0.56970  Biso   1.000  O
  O48      1.0000 0.36680  0.18610  0.22700  Biso   1.000  O
  O49      1.0000 0.28310  0.04080  0.35670  Biso   1.000  O
  O50      1.0000 0.87380  0.13420  0.26990  Biso   1.000  O
  O51      1.0000 0.90050  0.19810  0.45550  Biso   1.000  O
  O52      1.0000 0.02390  0.15190  0.61500  Biso   1.000  O
  O53      1.0000 0.53510  0.19520  0.47390  Biso   1.000  O
  O54      1.0000 0.24270  0.13880  0.06990  Biso   1.000  O
  O55      1.0000 0.85220  0.18660  0.11610  Biso   1.000  O
  O56      1.0000 0.32880  0.15070  0.68210  Biso   1.000  O
  O57      1.0000 0.69310  0.13740  0.13750  Biso   1.000  O
  O58      1.0000 0.93530  0.14050  0.99950  Biso   1.000  O
  O59      1.0000 0.74520  0.19590  0.30390  Biso   1.000  O
  O60      1.0000 0.22500  0.13440  0.24690  Biso   1.000  O
  O61      1.0000 0.24810  0.19870  0.40940  Biso   1.000  O
  O62      1.0000 0.54760  0.14080  0.32080  Biso   1.000  O
  P1       1.0000 0.99370  0.25000  0.30500  Biso   1.000  P
  P2       1.0000 0.27260  0.25000  0.36580  Biso   1.000  P
  W17      1.0000 0.49788  0.25000  0.54668  Biso   1.000  W
  W18      1.0000 0.80613  0.25000  0.39535  Biso   1.000  W
  O63      1.0000 0.22600  0.25000  0.26130  Biso   1.000  O
  O64      1.0000 0.01110  0.25000  0.21210  Biso   1.000  O
  O65      1.0000 0.24260  0.25000  0.09670  Biso   1.000  O
  O66      1.0000 0.27390  0.25000  0.58740  Biso   1.000  O
  O67      1.0000 0.05980  0.25000  0.54190  Biso   1.000  O
  O68      1.0000 0.88390  0.25000  0.28260  Biso   1.000  O
  O69      1.0000 0.59270  0.25000  0.64870  Biso   1.000  O
  O70      1.0000 0.51220  0.25000  0.31500  Biso   1.000  O
  O71      1.0000 0.72220  0.25000  0.14750  Biso   1.000  O
  O72      1.0000 0.73930  0.25000  0.46460  Biso   1.000  O
  O73      1.0000 0.38320  0.25000  0.39200  Biso   1.000  O
  O74      1.0000 0.94350  0.25000  0.03120  Biso   1.000  O
  W19      1.0000 0.99684  0.89247  0.68575  Biso   1.000  W
  W20      1.0000 0.73302  0.89229  0.62811  Biso   1.000  W
  W21      1.0000 0.76513  0.81799  0.84602  Biso   1.000  W
  W22      1.0000 0.02839  0.81780  0.90431  Biso   1.000  W
  W23      1.0000 0.96987  0.82422  0.48728  Biso   1.000  W
  W24      1.0000 0.53029  0.81818  0.65510  Biso   1.000  W
  W25      1.0000 0.70562  0.82442  0.42931  Biso   1.000  W
  W26      1.0000 0.22024  0.81830  0.80443  Biso   1.000  W
  O75      1.0000 0.99790  0.88880  0.56160  Biso   1.000  O
  O76      1.0000 0.89920  0.81060  0.88990  Biso   1.000  O
  O77      1.0000 0.86290  0.89630  0.63920  Biso   1.000  O
  O78      1.0000 0.61140  0.86640  0.62050  Biso   1.000  O
  O79      1.0000 0.83870  0.83520  0.46290  Biso   1.000  O
  O80      1.0000 0.96730  0.80090  0.63750  Biso   1.000  O
  O81      1.0000 0.02260  0.95950  0.71000  Biso   1.000  O
  O82      1.0000 0.69750  0.88870  0.49680  Biso   1.000  O
  O83      1.0000 0.99180  0.86660  0.80220  Biso   1.000  O
  O84      1.0000 0.58350  0.80160  0.43030  Biso   1.000  O
  O85      1.0000 0.63320  0.81390  0.77300  Biso   1.000  O
  O86      1.0000 0.71690  0.95920  0.64330  Biso   1.000  O
  O87      1.0000 0.12620  0.86580  0.73010  Biso   1.000  O
  O88      1.0000 0.09950  0.80190  0.54450  Biso   1.000  O
  O89      1.0000 0.97610  0.84810  0.38500  Biso   1.000  O
  O90      1.0000 0.46490  0.80480  0.52610  Biso   1.000  O
  O91      1.0000 0.75730  0.86120  0.93010  Biso   1.000  O
  O92      1.0000 0.14780  0.81340  0.88390  Biso   1.000  O
  O93      1.0000 0.67120  0.84930  0.31790  Biso   1.000  O
  O94      1.0000 0.30690  0.86260  0.86250  Biso   1.000  O
  O95      1.0000 0.06470  0.85950  0.00050  Biso   1.000  O
  O96      1.0000 0.25480  0.80410  0.69610  Biso   1.000  O
  O97      1.0000 0.77500  0.86560  0.75310  Biso   1.000  O
  O98      1.0000 0.75190  0.80130  0.59060  Biso   1.000  O
  O99      1.0000 0.45240  0.85920  0.67920  Biso   1.000  O
  W27      1.0000 0.99684  0.60753  0.68575  Biso   1.000  W
  W28      1.0000 0.73302  0.60771  0.62811  Biso   1.000  W
  W29      1.0000 0.76513  0.68201  0.84602  Biso   1.000  W
  W30      1.0000 0.02839  0.68220  0.90431  Biso   1.000  W
  W31      1.0000 0.96987  0.67578  0.48728  Biso   1.000  W
  W32      1.0000 0.53029  0.68182  0.65510  Biso   1.000  W
  W33      1.0000 0.70562  0.67558  0.42931  Biso   1.000  W
  W34      1.0000 0.22024  0.68170  0.80443  Biso   1.000  W
  O100     1.0000 0.99790  0.61120  0.56160  Biso   1.000  O
  O101     1.0000 0.89920  0.68940  0.88990  Biso   1.000  O
  O102     1.0000 0.86290  0.60370  0.63920  Biso   1.000  O
  O103     1.0000 0.61140  0.63360  0.62050  Biso   1.000  O
  O104     1.0000 0.83870  0.66480  0.46290  Biso   1.000  O
  O105     1.0000 0.96730  0.69910  0.63750  Biso   1.000  O
  O106     1.0000 0.02260  0.54050  0.71000  Biso   1.000  O
  O107     1.0000 0.69750  0.61130  0.49680  Biso   1.000  O
  O108     1.0000 0.99180  0.63340  0.80220  Biso   1.000  O
  O109     1.0000 0.58350  0.69840  0.43030  Biso   1.000  O
  O110     1.0000 0.63320  0.68610  0.77300  Biso   1.000  O
  O111     1.0000 0.71690  0.54080  0.64330  Biso   1.000  O
  O112     1.0000 0.12620  0.63420  0.73010  Biso   1.000  O
  O113     1.0000 0.09950  0.69810  0.54450  Biso   1.000  O
  O114     1.0000 0.97610  0.65190  0.38500  Biso   1.000  O
  O115     1.0000 0.46490  0.69520  0.52610  Biso   1.000  O
  O116     1.0000 0.75730  0.63880  0.93010  Biso   1.000  O
  O117     1.0000 0.14780  0.68660  0.88390  Biso   1.000  O
  O118     1.0000 0.67120  0.65070  0.31790  Biso   1.000  O
  O119     1.0000 0.30690  0.63740  0.86250  Biso   1.000  O
  O120     1.0000 0.06470  0.64050  0.00050  Biso   1.000  O
  O121     1.0000 0.25480  0.69590  0.69610  Biso   1.000  O
  O122     1.0000 0.77500  0.63440  0.75310  Biso   1.000  O
  O123     1.0000 0.75190  0.69870  0.59060  Biso   1.000  O
  O124     1.0000 0.45240  0.64080  0.67920  Biso   1.000  O
  P3       1.0000 0.00630  0.75000  0.69500  Biso   1.000  P
  P4       1.0000 0.72740  0.75000  0.63420  Biso   1.000  P
  W35      1.0000 0.50212  0.75000  0.45332  Biso   1.000  W
  W36      1.0000 0.19387  0.75000  0.60465  Biso   1.000  W
  O125     1.0000 0.77400  0.75000  0.73870  Biso   1.000  O
  O126     1.0000 0.98890  0.75000  0.78790  Biso   1.000  O
  O127     1.0000 0.75740  0.75000  0.90330  Biso   1.000  O
  O128     1.0000 0.72610  0.75000  0.41260  Biso   1.000  O
  O129     1.0000 0.94020  0.75000  0.45810  Biso   1.000  O
  O130     1.0000 0.11610  0.75000  0.71740  Biso   1.000  O
  O131     1.0000 0.40730  0.75000  0.35130  Biso   1.000  O
  O132     1.0000 0.48780  0.75000  0.68500  Biso   1.000  O
  O133     1.0000 0.27780  0.75000  0.85250  Biso   1.000  O
  O134     1.0000 0.26070  0.75000  0.53540  Biso   1.000  O
  O135     1.0000 0.61680  0.75000  0.60800  Biso   1.000  O
  O136     1.0000 0.05650  0.75000  0.96880  Biso   1.000  O
