data_image0
_cell_length_a       6.6602
_cell_length_b       11.6941
_cell_length_c       22.788
_cell_angle_alpha    90
_cell_angle_beta     90
_cell_angle_gamma    90

_symmetry_space_group_name_H-M    P 1
_symmetry_int_tables_number       1

loop_
  _symmetry_equiv_pos_as_xyz
  'x, y, z'

loop_
  _atom_site_label
  _atom_site_occupancy
  _atom_site_fract_x
  _atom_site_fract_y
  _atom_site_fract_z
  _atom_site_thermal_displace_type
  _atom_site_B_iso_or_equiv
  _atom_site_type_symbol
  Th1      1.0000 0.76700  0.40413  0.86201  Biso   1.000  Th
  Th2      1.0000 0.73300  0.59587  0.36201  Biso   1.000  Th
  Th3      1.0000 0.23300  0.90413  0.63799  Biso   1.000  Th
  Th4      1.0000 0.26700  0.09587  0.13799  Biso   1.000  Th
  H1       1.0000 0.75160  0.97050  0.03060  Biso   1.000  H
  H2       1.0000 0.74290  0.09790  0.86890  Biso   1.000  H
  H3       1.0000 0.21080  0.46920  0.77520  Biso   1.000  H
  H4       1.0000 0.39870  0.41740  0.69610  Biso   1.000  H
  H5       1.0000 0.73810  0.94280  0.92880  Biso   1.000  H
  H6       1.0000 0.28940  0.27970  0.63470  Biso   1.000  H
  H7       1.0000 0.74840  0.02950  0.53060  Biso   1.000  H
  H8       1.0000 0.75710  0.90210  0.36890  Biso   1.000  H
  H9       1.0000 0.28920  0.53080  0.27520  Biso   1.000  H
  H10      1.0000 0.10130  0.58260  0.19610  Biso   1.000  H
  H11      1.0000 0.76190  0.05720  0.42880  Biso   1.000  H
  H12      1.0000 0.21060  0.72030  0.13470  Biso   1.000  H
  H13      1.0000 0.24840  0.47050  0.46940  Biso   1.000  H
  H14      1.0000 0.25710  0.59790  0.63110  Biso   1.000  H
  H15      1.0000 0.78920  0.96920  0.72480  Biso   1.000  H
  H16      1.0000 0.60130  0.91740  0.80390  Biso   1.000  H
  H17      1.0000 0.26190  0.44280  0.57120  Biso   1.000  H
  H18      1.0000 0.71060  0.77970  0.86530  Biso   1.000  H
  H19      1.0000 0.25160  0.52950  0.96940  Biso   1.000  H
  H20      1.0000 0.24290  0.40210  0.13110  Biso   1.000  H
  H21      1.0000 0.71080  0.03080  0.22480  Biso   1.000  H
  H22      1.0000 0.89870  0.08260  0.30390  Biso   1.000  H
  H23      1.0000 0.23810  0.55720  0.07120  Biso   1.000  H
  H24      1.0000 0.78940  0.22030  0.36530  Biso   1.000  H
  C1       1.0000 0.75400  0.23180  0.98690  Biso   1.000  C
  C2       1.0000 0.76600  0.35430  0.00540  Biso   1.000  C
  C3       1.0000 0.76100  0.14200  0.02690  Biso   1.000  C
  C4       1.0000 0.76000  0.15550  0.09200  Biso   1.000  C
  C5       1.0000 0.75200  0.03270  0.00530  Biso   1.000  C
  C6       1.0000 0.74500  0.10940  0.90930  Biso   1.000  C
  C7       1.0000 0.16370  0.41120  0.75100  Biso   1.000  C
  C8       1.0000 0.27700  0.38120  0.70310  Biso   1.000  C
  C9       1.0000 0.74400  0.01610  0.94460  Biso   1.000  C
  C10      1.0000 0.72300  0.22450  0.74610  Biso   1.000  C
  C11      1.0000 0.91700  0.28120  0.72720  Biso   1.000  C
  C12      1.0000 0.02300  0.24690  0.67790  Biso   1.000  C
  C13      1.0000 0.21300  0.30090  0.66690  Biso   1.000  C
  C14      1.0000 0.94670  0.15970  0.63500  Biso   1.000  C
  C15      1.0000 0.74600  0.76820  0.48690  Biso   1.000  C
  C16      1.0000 0.73400  0.64570  0.50540  Biso   1.000  C
  C17      1.0000 0.73900  0.85800  0.52690  Biso   1.000  C
  C18      1.0000 0.74000  0.84450  0.59200  Biso   1.000  C
  C19      1.0000 0.74800  0.96730  0.50530  Biso   1.000  C
  C20      1.0000 0.75500  0.89060  0.40930  Biso   1.000  C
  C21      1.0000 0.33630  0.58880  0.25100  Biso   1.000  C
  C22      1.0000 0.22300  0.61880  0.20310  Biso   1.000  C
  C23      1.0000 0.75600  0.98390  0.44460  Biso   1.000  C
  C24      1.0000 0.77700  0.77550  0.24610  Biso   1.000  C
  C25      1.0000 0.58300  0.71880  0.22720  Biso   1.000  C
  C26      1.0000 0.47700  0.75310  0.17790  Biso   1.000  C
  C27      1.0000 0.28700  0.69910  0.16690  Biso   1.000  C
  C28      1.0000 0.55330  0.84030  0.13500  Biso   1.000  C
  C29      1.0000 0.24600  0.73180  0.51310  Biso   1.000  C
  C30      1.0000 0.23400  0.85430  0.49460  Biso   1.000  C
  C31      1.0000 0.23900  0.64200  0.47310  Biso   1.000  C
  C32      1.0000 0.24000  0.65550  0.40800  Biso   1.000  C
  C33      1.0000 0.24800  0.53270  0.49470  Biso   1.000  C
  C34      1.0000 0.25500  0.60940  0.59070  Biso   1.000  C
  C35      1.0000 0.83630  0.91120  0.74900  Biso   1.000  C
  C36      1.0000 0.72300  0.88120  0.79690  Biso   1.000  C
  C37      1.0000 0.25600  0.51610  0.55540  Biso   1.000  C
  C38      1.0000 0.27700  0.72450  0.75390  Biso   1.000  C
  C39      1.0000 0.08300  0.78120  0.77280  Biso   1.000  C
  C40      1.0000 0.97700  0.74690  0.82210  Biso   1.000  C
  C41      1.0000 0.78700  0.80090  0.83310  Biso   1.000  C
  C42      1.0000 0.05330  0.65970  0.86500  Biso   1.000  C
  C43      1.0000 0.25400  0.26820  0.01310  Biso   1.000  C
  C44      1.0000 0.26600  0.14570  0.99460  Biso   1.000  C
  C45      1.0000 0.26100  0.35800  0.97310  Biso   1.000  C
  C46      1.0000 0.26000  0.34450  0.90800  Biso   1.000  C
  C47      1.0000 0.25200  0.46730  0.99470  Biso   1.000  C
  C48      1.0000 0.24500  0.39060  0.09070  Biso   1.000  C
  C49      1.0000 0.66370  0.08880  0.24900  Biso   1.000  C
  C50      1.0000 0.77700  0.11880  0.29690  Biso   1.000  C
  C51      1.0000 0.24400  0.48390  0.05540  Biso   1.000  C
  C52      1.0000 0.22300  0.27550  0.25390  Biso   1.000  C
  C53      1.0000 0.41700  0.21880  0.27280  Biso   1.000  C
  C54      1.0000 0.52300  0.25310  0.32210  Biso   1.000  C
  C55      1.0000 0.71300  0.19910  0.33310  Biso   1.000  C
  C56      1.0000 0.44670  0.34030  0.36500  Biso   1.000  C
  N1       1.0000 0.74900  0.21650  0.92900  Biso   1.000  N
  N2       1.0000 0.98950  0.36140  0.76460  Biso   1.000  N
  N3       1.0000 0.75100  0.78350  0.42900  Biso   1.000  N
  N4       1.0000 0.51050  0.63860  0.26460  Biso   1.000  N
  N5       1.0000 0.25100  0.71650  0.57100  Biso   1.000  N
  N6       1.0000 0.01050  0.86140  0.73540  Biso   1.000  N
  N7       1.0000 0.24900  0.28350  0.07100  Biso   1.000  N
  N8       1.0000 0.48950  0.13860  0.23540  Biso   1.000  N
  O1       1.0000 0.77040  0.42790  0.96390  Biso   1.000  O
  O2       1.0000 0.77390  0.37810  0.05780  Biso   1.000  O
  O3       1.0000 0.63940  0.15980  0.71280  Biso   1.000  O
  O4       1.0000 0.66970  0.25130  0.79920  Biso   1.000  O
  O5       1.0000 0.58910  0.16860  0.11670  Biso   1.000  O
  O6       1.0000 0.00610  0.05780  0.63900  Biso   1.000  O
  O7       1.0000 0.91770  0.14430  0.11970  Biso   1.000  O
  O8       1.0000 0.57040  0.58340  0.89400  Biso   1.000  O
  O9       1.0000 0.64770  0.51160  0.77490  Biso   1.000  O
  O10      1.0000 0.82860  0.19340  0.59490  Biso   1.000  O
  O11      1.0000 0.72960  0.57210  0.46390  Biso   1.000  O
  O12      1.0000 0.72610  0.62190  0.55780  Biso   1.000  O
  O13      1.0000 0.86060  0.84020  0.21280  Biso   1.000  O
  O14      1.0000 0.83030  0.74870  0.29920  Biso   1.000  O
  O15      1.0000 0.91090  0.83140  0.61670  Biso   1.000  O
  O16      1.0000 0.49390  0.94220  0.13900  Biso   1.000  O
  O17      1.0000 0.58230  0.85570  0.61970  Biso   1.000  O
  O18      1.0000 0.92960  0.41660  0.39400  Biso   1.000  O
  O19      1.0000 0.85230  0.48840  0.27490  Biso   1.000  O
  O20      1.0000 0.67140  0.80660  0.09490  Biso   1.000  O
  O21      1.0000 0.22960  0.92790  0.53610  Biso   1.000  O
  O22      1.0000 0.22610  0.87810  0.44220  Biso   1.000  O
  O23      1.0000 0.36060  0.65980  0.78720  Biso   1.000  O
  O24      1.0000 0.33030  0.75130  0.70080  Biso   1.000  O
  O25      1.0000 0.41090  0.66860  0.38330  Biso   1.000  O
  O26      1.0000 0.99390  0.55780  0.86100  Biso   1.000  O
  O27      1.0000 0.08230  0.64430  0.38030  Biso   1.000  O
  O28      1.0000 0.42960  0.08340  0.60600  Biso   1.000  O
  O29      1.0000 0.35230  0.01160  0.72510  Biso   1.000  O
  O30      1.0000 0.17140  0.69340  0.90510  Biso   1.000  O
  O31      1.0000 0.27040  0.07210  0.03610  Biso   1.000  O
  O32      1.0000 0.27390  0.12190  0.94220  Biso   1.000  O
  O33      1.0000 0.13940  0.34020  0.28720  Biso   1.000  O
  O34      1.0000 0.16970  0.24870  0.20080  Biso   1.000  O
  O35      1.0000 0.08910  0.33140  0.88330  Biso   1.000  O
  O36      1.0000 0.50610  0.44220  0.36100  Biso   1.000  O
  O37      1.0000 0.41770  0.35570  0.88030  Biso   1.000  O
  O38      1.0000 0.07040  0.91660  0.10600  Biso   1.000  O
  O39      1.0000 0.14770  0.98840  0.22510  Biso   1.000  O
  O40      1.0000 0.32860  0.30660  0.40510  Biso   1.000  O
