data_image0
_cell_length_a       14.061
_cell_length_b       27.192
_cell_length_c       7.59
_cell_angle_alpha    90
_cell_angle_beta     90
_cell_angle_gamma    90

_symmetry_space_group_name_H-M    "P 1"
_symmetry_int_tables_number       1

loop_
  _symmetry_equiv_pos_as_xyz
  'x, y, z'

loop_
  _atom_site_label
  _atom_site_occupancy
  _atom_site_fract_x
  _atom_site_fract_y
  _atom_site_fract_z
  _atom_site_thermal_displace_type
  _atom_site_B_iso_or_equiv
  _atom_site_type_symbol
  Cd1      1.0000 0.21473  0.11592  0.12150  Biso   1.000  Cd
  N1       1.0000 0.24000  0.17200  0.89300  Biso   1.000  N
  N2       1.0000 0.24700  0.17240  0.32900  Biso   1.000  N
  N3       1.0000 0.16000  0.05670  0.33900  Biso   1.000  N
  N4       1.0000 0.36100  0.07690  0.11600  Biso   1.000  N
  N5       1.0000 0.17200  0.05690  0.90000  Biso   1.000  N
  N6       1.0000 0.05100  0.12710  0.07500  Biso   1.000  N
  C1       1.0000 0.24300  0.20190  0.78600  Biso   1.000  C
  C2       1.0000 0.25100  0.20140  0.43600  Biso   1.000  C
  C3       1.0000 0.10100  0.03550  0.40300  Biso   1.000  C
  C4       1.0000 0.41500  0.04850  0.07200  Biso   1.000  C
  C5       1.0000 0.07300  0.05700  0.88000  Biso   1.000  C
  C6       1.0000 0.01600  0.09100  0.94100  Biso   1.000  C
  C7       1.0000 0.91000  0.09220  0.90900  Biso   1.000  C
  Cd2      1.0000 0.28527  0.88408  0.62150  Biso   1.000  Cd
  N7       1.0000 0.26000  0.82800  0.39300  Biso   1.000  N
  N8       1.0000 0.25300  0.82760  0.82900  Biso   1.000  N
  N9       1.0000 0.34000  0.94330  0.83900  Biso   1.000  N
  N10      1.0000 0.13900  0.92310  0.61600  Biso   1.000  N
  N11      1.0000 0.32800  0.94310  0.40000  Biso   1.000  N
  N12      1.0000 0.44900  0.87290  0.57500  Biso   1.000  N
  C8       1.0000 0.25700  0.79810  0.28600  Biso   1.000  C
  C9       1.0000 0.24900  0.79860  0.93600  Biso   1.000  C
  C10      1.0000 0.39900  0.96450  0.90300  Biso   1.000  C
  C11      1.0000 0.08500  0.95150  0.57200  Biso   1.000  C
  C12      1.0000 0.42700  0.94300  0.38000  Biso   1.000  C
  C13      1.0000 0.48400  0.90900  0.44100  Biso   1.000  C
  C14      1.0000 0.59000  0.90780  0.40900  Biso   1.000  C
  Cd3      1.0000 0.78527  0.61592  0.87850  Biso   1.000  Cd
  N13      1.0000 0.76000  0.67200  0.10700  Biso   1.000  N
  N14      1.0000 0.75300  0.67240  0.67100  Biso   1.000  N
  N15      1.0000 0.84000  0.55670  0.66100  Biso   1.000  N
  N16      1.0000 0.63900  0.57690  0.88400  Biso   1.000  N
  N17      1.0000 0.82800  0.55690  0.10000  Biso   1.000  N
  N18      1.0000 0.94900  0.62710  0.92500  Biso   1.000  N
  C15      1.0000 0.75700  0.70190  0.21400  Biso   1.000  C
  C16      1.0000 0.74900  0.70140  0.56400  Biso   1.000  C
  C17      1.0000 0.89900  0.53550  0.59700  Biso   1.000  C
  C18      1.0000 0.58500  0.54850  0.92800  Biso   1.000  C
  C19      1.0000 0.92700  0.55700  0.12000  Biso   1.000  C
  C20      1.0000 0.98400  0.59100  0.05900  Biso   1.000  C
  C21      1.0000 0.09000  0.59220  0.09100  Biso   1.000  C
  Cd4      1.0000 0.71473  0.38408  0.37850  Biso   1.000  Cd
  N19      1.0000 0.74000  0.32800  0.60700  Biso   1.000  N
  N20      1.0000 0.74700  0.32760  0.17100  Biso   1.000  N
  N21      1.0000 0.66000  0.44330  0.16100  Biso   1.000  N
  N22      1.0000 0.86100  0.42310  0.38400  Biso   1.000  N
  N23      1.0000 0.67200  0.44310  0.60000  Biso   1.000  N
  N24      1.0000 0.55100  0.37290  0.42500  Biso   1.000  N
  C22      1.0000 0.74300  0.29810  0.71400  Biso   1.000  C
  C23      1.0000 0.75100  0.29860  0.06400  Biso   1.000  C
  C24      1.0000 0.60100  0.46450  0.09700  Biso   1.000  C
  C25      1.0000 0.91500  0.45150  0.42800  Biso   1.000  C
  C26      1.0000 0.57300  0.44300  0.62000  Biso   1.000  C
  C27      1.0000 0.51600  0.40900  0.55900  Biso   1.000  C
  C28      1.0000 0.41000  0.40780  0.59100  Biso   1.000  C
  Cd5      1.0000 0.78527  0.88408  0.87850  Biso   1.000  Cd
  N25      1.0000 0.76000  0.82800  0.10700  Biso   1.000  N
  N26      1.0000 0.75300  0.82760  0.67100  Biso   1.000  N
  N27      1.0000 0.84000  0.94330  0.66100  Biso   1.000  N
  N28      1.0000 0.63900  0.92310  0.88400  Biso   1.000  N
  N29      1.0000 0.82800  0.94310  0.10000  Biso   1.000  N
  N30      1.0000 0.94900  0.87290  0.92500  Biso   1.000  N
  C29      1.0000 0.75700  0.79810  0.21400  Biso   1.000  C
  C30      1.0000 0.74900  0.79860  0.56400  Biso   1.000  C
  C31      1.0000 0.89900  0.96450  0.59700  Biso   1.000  C
  C32      1.0000 0.58500  0.95150  0.92800  Biso   1.000  C
  C33      1.0000 0.92700  0.94300  0.12000  Biso   1.000  C
  C34      1.0000 0.98400  0.90900  0.05900  Biso   1.000  C
  C35      1.0000 0.09000  0.90780  0.09100  Biso   1.000  C
  Cd6      1.0000 0.71473  0.11592  0.37850  Biso   1.000  Cd
  N31      1.0000 0.74000  0.17200  0.60700  Biso   1.000  N
  N32      1.0000 0.74700  0.17240  0.17100  Biso   1.000  N
  N33      1.0000 0.66000  0.05670  0.16100  Biso   1.000  N
  N34      1.0000 0.86100  0.07690  0.38400  Biso   1.000  N
  N35      1.0000 0.67200  0.05690  0.60000  Biso   1.000  N
  N36      1.0000 0.55100  0.12710  0.42500  Biso   1.000  N
  C36      1.0000 0.74300  0.20190  0.71400  Biso   1.000  C
  C37      1.0000 0.75100  0.20140  0.06400  Biso   1.000  C
  C38      1.0000 0.60100  0.03550  0.09700  Biso   1.000  C
  C39      1.0000 0.91500  0.04850  0.42800  Biso   1.000  C
  C40      1.0000 0.57300  0.05700  0.62000  Biso   1.000  C
  C41      1.0000 0.51600  0.09100  0.55900  Biso   1.000  C
  C42      1.0000 0.41000  0.09220  0.59100  Biso   1.000  C
  Cd7      1.0000 0.21473  0.38408  0.12150  Biso   1.000  Cd
  N37      1.0000 0.24000  0.32800  0.89300  Biso   1.000  N
  N38      1.0000 0.24700  0.32760  0.32900  Biso   1.000  N
  N39      1.0000 0.16000  0.44330  0.33900  Biso   1.000  N
  N40      1.0000 0.36100  0.42310  0.11600  Biso   1.000  N
  N41      1.0000 0.17200  0.44310  0.90000  Biso   1.000  N
  N42      1.0000 0.05100  0.37290  0.07500  Biso   1.000  N
  C43      1.0000 0.24300  0.29810  0.78600  Biso   1.000  C
  C44      1.0000 0.25100  0.29860  0.43600  Biso   1.000  C
  C45      1.0000 0.10100  0.46450  0.40300  Biso   1.000  C
  C46      1.0000 0.41500  0.45150  0.07200  Biso   1.000  C
  C47      1.0000 0.07300  0.44300  0.88000  Biso   1.000  C
  C48      1.0000 0.01600  0.40900  0.94100  Biso   1.000  C
  C49      1.0000 0.91000  0.40780  0.90900  Biso   1.000  C
  Cd8      1.0000 0.28527  0.61592  0.62150  Biso   1.000  Cd
  N43      1.0000 0.26000  0.67200  0.39300  Biso   1.000  N
  N44      1.0000 0.25300  0.67240  0.82900  Biso   1.000  N
  N45      1.0000 0.34000  0.55670  0.83900  Biso   1.000  N
  N46      1.0000 0.13900  0.57690  0.61600  Biso   1.000  N
  N47      1.0000 0.32800  0.55690  0.40000  Biso   1.000  N
  N48      1.0000 0.44900  0.62710  0.57500  Biso   1.000  N
  C50      1.0000 0.25700  0.70190  0.28600  Biso   1.000  C
  C51      1.0000 0.24900  0.70140  0.93600  Biso   1.000  C
  C52      1.0000 0.39900  0.53550  0.90300  Biso   1.000  C
  C53      1.0000 0.08500  0.54850  0.57200  Biso   1.000  C
  C54      1.0000 0.42700  0.55700  0.38000  Biso   1.000  C
  C55      1.0000 0.48400  0.59100  0.44100  Biso   1.000  C
  C56      1.0000 0.59000  0.59220  0.40900  Biso   1.000  C
  Ni1      1.0000 0.25010  0.25000  0.61040  Biso   1.000  Ni
  Ni2      1.0000 0.24990  0.75000  0.11040  Biso   1.000  Ni
  Ni3      1.0000 0.74990  0.75000  0.38960  Biso   1.000  Ni
  Ni4      1.0000 0.75010  0.25000  0.88960  Biso   1.000  Ni
  Ni5      1.0000 0.00000  0.00000  0.50000  Biso   1.000  Ni
  Ni6      1.0000 0.50000  0.00000  0.00000  Biso   1.000  Ni
  Ni7      1.0000 0.00000  0.50000  0.50000  Biso   1.000  Ni
  Ni8      1.0000 0.50000  0.50000  0.00000  Biso   1.000  Ni
