data_image0
_cell_length_a       14.061
_cell_length_b       27.192
_cell_length_c       7.59
_cell_angle_alpha    90
_cell_angle_beta     90
_cell_angle_gamma    90

_symmetry_space_group_name_H-M    "P 1"
_symmetry_int_tables_number       1

loop_
  _symmetry_equiv_pos_as_xyz
  'x, y, z'

loop_
  _atom_site_label
  _atom_site_occupancy
  _atom_site_fract_x
  _atom_site_fract_y
  _atom_site_fract_z
  _atom_site_thermal_displace_type
  _atom_site_B_iso_or_equiv
  _atom_site_type_symbol
  Cd1      1.0000 0.21473  0.11592  0.12140  Biso   1.000  Cd
  N1       1.0000 0.24000  0.17200  0.89300  Biso   1.000  N
  N2       1.0000 0.24700  0.17250  0.32800  Biso   1.000  N
  N3       1.0000 0.16000  0.05670  0.33800  Biso   1.000  N
  N4       1.0000 0.36100  0.07700  0.11700  Biso   1.000  N
  N5       1.0000 0.17200  0.05700  0.89900  Biso   1.000  N
  N6       1.0000 0.05100  0.12720  0.07500  Biso   1.000  N
  C1       1.0000 0.24300  0.20180  0.78600  Biso   1.000  C
  C2       1.0000 0.25200  0.20130  0.43500  Biso   1.000  C
  C3       1.0000 0.10100  0.03560  0.40300  Biso   1.000  C
  C4       1.0000 0.41400  0.04860  0.07200  Biso   1.000  C
  C5       1.0000 0.07300  0.05800  0.87800  Biso   1.000  C
  C6       1.0000 0.01600  0.09200  0.93900  Biso   1.000  C
  C7       1.0000 0.91000  0.09260  0.90900  Biso   1.000  C
  Cd2      1.0000 0.28527  0.88408  0.62140  Biso   1.000  Cd
  N7       1.0000 0.26000  0.82800  0.39300  Biso   1.000  N
  N8       1.0000 0.25300  0.82750  0.82800  Biso   1.000  N
  N9       1.0000 0.34000  0.94330  0.83800  Biso   1.000  N
  N10      1.0000 0.13900  0.92300  0.61700  Biso   1.000  N
  N11      1.0000 0.32800  0.94300  0.39900  Biso   1.000  N
  N12      1.0000 0.44900  0.87280  0.57500  Biso   1.000  N
  C8       1.0000 0.25700  0.79820  0.28600  Biso   1.000  C
  C9       1.0000 0.24800  0.79870  0.93500  Biso   1.000  C
  C10      1.0000 0.39900  0.96440  0.90300  Biso   1.000  C
  C11      1.0000 0.08600  0.95140  0.57200  Biso   1.000  C
  C12      1.0000 0.42700  0.94200  0.37800  Biso   1.000  C
  C13      1.0000 0.48400  0.90800  0.43900  Biso   1.000  C
  C14      1.0000 0.59000  0.90740  0.40900  Biso   1.000  C
  Cd3      1.0000 0.78527  0.61592  0.87860  Biso   1.000  Cd
  N13      1.0000 0.76000  0.67200  0.10700  Biso   1.000  N
  N14      1.0000 0.75300  0.67250  0.67200  Biso   1.000  N
  N15      1.0000 0.84000  0.55670  0.66200  Biso   1.000  N
  N16      1.0000 0.63900  0.57700  0.88300  Biso   1.000  N
  N17      1.0000 0.82800  0.55700  0.10100  Biso   1.000  N
  N18      1.0000 0.94900  0.62720  0.92500  Biso   1.000  N
  C15      1.0000 0.75700  0.70180  0.21400  Biso   1.000  C
  C16      1.0000 0.74800  0.70130  0.56500  Biso   1.000  C
  C17      1.0000 0.89900  0.53560  0.59700  Biso   1.000  C
  C18      1.0000 0.58600  0.54860  0.92800  Biso   1.000  C
  C19      1.0000 0.92700  0.55800  0.12200  Biso   1.000  C
  C20      1.0000 0.98400  0.59200  0.06100  Biso   1.000  C
  C21      1.0000 0.09000  0.59260  0.09100  Biso   1.000  C
  Cd4      1.0000 0.71473  0.38408  0.37860  Biso   1.000  Cd
  N19      1.0000 0.74000  0.32800  0.60700  Biso   1.000  N
  N20      1.0000 0.74700  0.32750  0.17200  Biso   1.000  N
  N21      1.0000 0.66000  0.44330  0.16200  Biso   1.000  N
  N22      1.0000 0.86100  0.42300  0.38300  Biso   1.000  N
  N23      1.0000 0.67200  0.44300  0.60100  Biso   1.000  N
  N24      1.0000 0.55100  0.37280  0.42500  Biso   1.000  N
  C22      1.0000 0.74300  0.29820  0.71400  Biso   1.000  C
  C23      1.0000 0.75200  0.29870  0.06500  Biso   1.000  C
  C24      1.0000 0.60100  0.46440  0.09700  Biso   1.000  C
  C25      1.0000 0.91400  0.45140  0.42800  Biso   1.000  C
  C26      1.0000 0.57300  0.44200  0.62200  Biso   1.000  C
  C27      1.0000 0.51600  0.40800  0.56100  Biso   1.000  C
  C28      1.0000 0.41000  0.40740  0.59100  Biso   1.000  C
  Cd5      1.0000 0.78527  0.88408  0.87860  Biso   1.000  Cd
  N25      1.0000 0.76000  0.82800  0.10700  Biso   1.000  N
  N26      1.0000 0.75300  0.82750  0.67200  Biso   1.000  N
  N27      1.0000 0.84000  0.94330  0.66200  Biso   1.000  N
  N28      1.0000 0.63900  0.92300  0.88300  Biso   1.000  N
  N29      1.0000 0.82800  0.94300  0.10100  Biso   1.000  N
  N30      1.0000 0.94900  0.87280  0.92500  Biso   1.000  N
  C29      1.0000 0.75700  0.79820  0.21400  Biso   1.000  C
  C30      1.0000 0.74800  0.79870  0.56500  Biso   1.000  C
  C31      1.0000 0.89900  0.96440  0.59700  Biso   1.000  C
  C32      1.0000 0.58600  0.95140  0.92800  Biso   1.000  C
  C33      1.0000 0.92700  0.94200  0.12200  Biso   1.000  C
  C34      1.0000 0.98400  0.90800  0.06100  Biso   1.000  C
  C35      1.0000 0.09000  0.90740  0.09100  Biso   1.000  C
  Cd6      1.0000 0.71473  0.11592  0.37860  Biso   1.000  Cd
  N31      1.0000 0.74000  0.17200  0.60700  Biso   1.000  N
  N32      1.0000 0.74700  0.17250  0.17200  Biso   1.000  N
  N33      1.0000 0.66000  0.05670  0.16200  Biso   1.000  N
  N34      1.0000 0.86100  0.07700  0.38300  Biso   1.000  N
  N35      1.0000 0.67200  0.05700  0.60100  Biso   1.000  N
  N36      1.0000 0.55100  0.12720  0.42500  Biso   1.000  N
  C36      1.0000 0.74300  0.20180  0.71400  Biso   1.000  C
  C37      1.0000 0.75200  0.20130  0.06500  Biso   1.000  C
  C38      1.0000 0.60100  0.03560  0.09700  Biso   1.000  C
  C39      1.0000 0.91400  0.04860  0.42800  Biso   1.000  C
  C40      1.0000 0.57300  0.05800  0.62200  Biso   1.000  C
  C41      1.0000 0.51600  0.09200  0.56100  Biso   1.000  C
  C42      1.0000 0.41000  0.09260  0.59100  Biso   1.000  C
  Cd7      1.0000 0.21473  0.38408  0.12140  Biso   1.000  Cd
  N37      1.0000 0.24000  0.32800  0.89300  Biso   1.000  N
  N38      1.0000 0.24700  0.32750  0.32800  Biso   1.000  N
  N39      1.0000 0.16000  0.44330  0.33800  Biso   1.000  N
  N40      1.0000 0.36100  0.42300  0.11700  Biso   1.000  N
  N41      1.0000 0.17200  0.44300  0.89900  Biso   1.000  N
  N42      1.0000 0.05100  0.37280  0.07500  Biso   1.000  N
  C43      1.0000 0.24300  0.29820  0.78600  Biso   1.000  C
  C44      1.0000 0.25200  0.29870  0.43500  Biso   1.000  C
  C45      1.0000 0.10100  0.46440  0.40300  Biso   1.000  C
  C46      1.0000 0.41400  0.45140  0.07200  Biso   1.000  C
  C47      1.0000 0.07300  0.44200  0.87800  Biso   1.000  C
  C48      1.0000 0.01600  0.40800  0.93900  Biso   1.000  C
  C49      1.0000 0.91000  0.40740  0.90900  Biso   1.000  C
  Cd8      1.0000 0.28527  0.61592  0.62140  Biso   1.000  Cd
  N43      1.0000 0.26000  0.67200  0.39300  Biso   1.000  N
  N44      1.0000 0.25300  0.67250  0.82800  Biso   1.000  N
  N45      1.0000 0.34000  0.55670  0.83800  Biso   1.000  N
  N46      1.0000 0.13900  0.57700  0.61700  Biso   1.000  N
  N47      1.0000 0.32800  0.55700  0.39900  Biso   1.000  N
  N48      1.0000 0.44900  0.62720  0.57500  Biso   1.000  N
  C50      1.0000 0.25700  0.70180  0.28600  Biso   1.000  C
  C51      1.0000 0.24800  0.70130  0.93500  Biso   1.000  C
  C52      1.0000 0.39900  0.53560  0.90300  Biso   1.000  C
  C53      1.0000 0.08600  0.54860  0.57200  Biso   1.000  C
  C54      1.0000 0.42700  0.55800  0.37800  Biso   1.000  C
  C55      1.0000 0.48400  0.59200  0.43900  Biso   1.000  C
  C56      1.0000 0.59000  0.59260  0.40900  Biso   1.000  C
  Ni1      1.0000 0.25010  0.25000  0.61040  Biso   1.000  Ni
  C57      1.0000 0.13000  0.25000  0.56000  Biso   1.000  C
  Ni2      1.0000 0.24990  0.75000  0.11040  Biso   1.000  Ni
  C58      1.0000 0.37000  0.75000  0.06000  Biso   1.000  C
  Ni3      1.0000 0.74990  0.75000  0.38960  Biso   1.000  Ni
  C59      1.0000 0.87000  0.75000  0.44000  Biso   1.000  C
  Ni4      1.0000 0.75010  0.25000  0.88960  Biso   1.000  Ni
  C60      1.0000 0.63000  0.25000  0.94000  Biso   1.000  C
  Ni5      1.0000 0.00000  0.00000  0.50000  Biso   1.000  Ni
  Ni6      1.0000 0.50000  0.00000  0.00000  Biso   1.000  Ni
  Ni7      1.0000 0.00000  0.50000  0.50000  Biso   1.000  Ni
  Ni8      1.0000 0.50000  0.50000  0.00000  Biso   1.000  Ni
