data_image0
_cell_length_a       14.157
_cell_length_b       26.699
_cell_length_c       7.586
_cell_angle_alpha    90
_cell_angle_beta     90
_cell_angle_gamma    90

_symmetry_space_group_name_H-M    "P 1"
_symmetry_int_tables_number       1

loop_
  _symmetry_equiv_pos_as_xyz
  'x, y, z'

loop_
  _atom_site_label
  _atom_site_occupancy
  _atom_site_fract_x
  _atom_site_fract_y
  _atom_site_fract_z
  _atom_site_thermal_displace_type
  _atom_site_B_iso_or_equiv
  _atom_site_type_symbol
  Cd1      1.0000 0.21894  0.11414  0.13075  Biso   1.000  Cd
  N1       1.0000 0.24900  0.17140  0.90500  Biso   1.000  N
  N2       1.0000 0.24210  0.17070  0.34520  Biso   1.000  N
  N3       1.0000 0.16700  0.05150  0.33800  Biso   1.000  N
  N4       1.0000 0.36960  0.08000  0.12600  Biso   1.000  N
  N5       1.0000 0.17650  0.05700  0.90100  Biso   1.000  N
  N6       1.0000 0.05630  0.12950  0.08000  Biso   1.000  N
  C1       1.0000 0.24900  0.20140  0.79800  Biso   1.000  C
  C2       1.0000 0.24650  0.20080  0.45130  Biso   1.000  C
  C3       1.0000 0.10430  0.03160  0.40100  Biso   1.000  C
  C4       1.0000 0.42010  0.05020  0.08070  Biso   1.000  C
  C5       1.0000 0.07530  0.06040  0.87700  Biso   1.000  C
  C6       1.0000 0.02550  0.09860  0.93600  Biso   1.000  C
  C7       1.0000 0.92040  0.10050  0.98960  Biso   1.000  C
  Cd2      1.0000 0.28106  0.88586  0.63075  Biso   1.000  Cd
  N7       1.0000 0.25100  0.82860  0.40500  Biso   1.000  N
  N8       1.0000 0.25790  0.82930  0.84520  Biso   1.000  N
  N9       1.0000 0.33300  0.94850  0.83800  Biso   1.000  N
  N10      1.0000 0.13040  0.92000  0.62600  Biso   1.000  N
  N11      1.0000 0.32350  0.94300  0.40100  Biso   1.000  N
  N12      1.0000 0.44370  0.87050  0.58000  Biso   1.000  N
  C8       1.0000 0.25100  0.79860  0.29800  Biso   1.000  C
  C9       1.0000 0.25350  0.79920  0.95130  Biso   1.000  C
  C10      1.0000 0.39570  0.96840  0.90100  Biso   1.000  C
  C11      1.0000 0.07990  0.94980  0.58070  Biso   1.000  C
  C12      1.0000 0.42470  0.93960  0.37700  Biso   1.000  C
  C13      1.0000 0.47450  0.90140  0.43600  Biso   1.000  C
  C14      1.0000 0.57960  0.89950  0.48960  Biso   1.000  C
  Cd3      1.0000 0.78106  0.61414  0.86925  Biso   1.000  Cd
  N13      1.0000 0.75100  0.67140  0.09500  Biso   1.000  N
  N14      1.0000 0.75790  0.67070  0.65480  Biso   1.000  N
  N15      1.0000 0.83300  0.55150  0.66200  Biso   1.000  N
  N16      1.0000 0.63040  0.58000  0.87400  Biso   1.000  N
  N17      1.0000 0.82350  0.55700  0.09900  Biso   1.000  N
  N18      1.0000 0.94370  0.62950  0.92000  Biso   1.000  N
  C15      1.0000 0.75100  0.70140  0.20200  Biso   1.000  C
  C16      1.0000 0.75350  0.70080  0.54870  Biso   1.000  C
  C17      1.0000 0.89570  0.53160  0.59900  Biso   1.000  C
  C18      1.0000 0.57990  0.55020  0.91930  Biso   1.000  C
  C19      1.0000 0.92470  0.56040  0.12300  Biso   1.000  C
  C20      1.0000 0.97450  0.59860  0.06400  Biso   1.000  C
  C21      1.0000 0.07960  0.60050  0.01040  Biso   1.000  C
  Cd4      1.0000 0.71894  0.38586  0.36925  Biso   1.000  Cd
  N19      1.0000 0.74900  0.32860  0.59500  Biso   1.000  N
  N20      1.0000 0.74210  0.32930  0.15480  Biso   1.000  N
  N21      1.0000 0.66700  0.44850  0.16200  Biso   1.000  N
  N22      1.0000 0.86960  0.42000  0.37400  Biso   1.000  N
  N23      1.0000 0.67650  0.44300  0.59900  Biso   1.000  N
  N24      1.0000 0.55630  0.37050  0.42000  Biso   1.000  N
  C22      1.0000 0.74900  0.29860  0.70200  Biso   1.000  C
  C23      1.0000 0.74650  0.29920  0.04870  Biso   1.000  C
  C24      1.0000 0.60430  0.46840  0.09900  Biso   1.000  C
  C25      1.0000 0.92010  0.44980  0.41930  Biso   1.000  C
  C26      1.0000 0.57530  0.43960  0.62300  Biso   1.000  C
  C27      1.0000 0.52550  0.40140  0.56400  Biso   1.000  C
  C28      1.0000 0.42040  0.39950  0.51040  Biso   1.000  C
  Cd5      1.0000 0.78106  0.88586  0.86925  Biso   1.000  Cd
  N25      1.0000 0.75100  0.82860  0.09500  Biso   1.000  N
  N26      1.0000 0.75790  0.82930  0.65480  Biso   1.000  N
  N27      1.0000 0.83300  0.94850  0.66200  Biso   1.000  N
  N28      1.0000 0.63040  0.92000  0.87400  Biso   1.000  N
  N29      1.0000 0.82350  0.94300  0.09900  Biso   1.000  N
  N30      1.0000 0.94370  0.87050  0.92000  Biso   1.000  N
  C29      1.0000 0.75100  0.79860  0.20200  Biso   1.000  C
  C30      1.0000 0.75350  0.79920  0.54870  Biso   1.000  C
  C31      1.0000 0.89570  0.96840  0.59900  Biso   1.000  C
  C32      1.0000 0.57990  0.94980  0.91930  Biso   1.000  C
  C33      1.0000 0.92470  0.93960  0.12300  Biso   1.000  C
  C34      1.0000 0.97450  0.90140  0.06400  Biso   1.000  C
  C35      1.0000 0.07960  0.89950  0.01040  Biso   1.000  C
  Cd6      1.0000 0.71894  0.11414  0.36925  Biso   1.000  Cd
  N31      1.0000 0.74900  0.17140  0.59500  Biso   1.000  N
  N32      1.0000 0.74210  0.17070  0.15480  Biso   1.000  N
  N33      1.0000 0.66700  0.05150  0.16200  Biso   1.000  N
  N34      1.0000 0.86960  0.08000  0.37400  Biso   1.000  N
  N35      1.0000 0.67650  0.05700  0.59900  Biso   1.000  N
  N36      1.0000 0.55630  0.12950  0.42000  Biso   1.000  N
  C36      1.0000 0.74900  0.20140  0.70200  Biso   1.000  C
  C37      1.0000 0.74650  0.20080  0.04870  Biso   1.000  C
  C38      1.0000 0.60430  0.03160  0.09900  Biso   1.000  C
  C39      1.0000 0.92010  0.05020  0.41930  Biso   1.000  C
  C40      1.0000 0.57530  0.06040  0.62300  Biso   1.000  C
  C41      1.0000 0.52550  0.09860  0.56400  Biso   1.000  C
  C42      1.0000 0.42040  0.10050  0.51040  Biso   1.000  C
  Cd7      1.0000 0.21894  0.38586  0.13075  Biso   1.000  Cd
  N37      1.0000 0.24900  0.32860  0.90500  Biso   1.000  N
  N38      1.0000 0.24210  0.32930  0.34520  Biso   1.000  N
  N39      1.0000 0.16700  0.44850  0.33800  Biso   1.000  N
  N40      1.0000 0.36960  0.42000  0.12600  Biso   1.000  N
  N41      1.0000 0.17650  0.44300  0.90100  Biso   1.000  N
  N42      1.0000 0.05630  0.37050  0.08000  Biso   1.000  N
  C43      1.0000 0.24900  0.29860  0.79800  Biso   1.000  C
  C44      1.0000 0.24650  0.29920  0.45130  Biso   1.000  C
  C45      1.0000 0.10430  0.46840  0.40100  Biso   1.000  C
  C46      1.0000 0.42010  0.44980  0.08070  Biso   1.000  C
  C47      1.0000 0.07530  0.43960  0.87700  Biso   1.000  C
  C48      1.0000 0.02550  0.40140  0.93600  Biso   1.000  C
  C49      1.0000 0.92040  0.39950  0.98960  Biso   1.000  C
  Cd8      1.0000 0.28106  0.61414  0.63075  Biso   1.000  Cd
  N43      1.0000 0.25100  0.67140  0.40500  Biso   1.000  N
  N44      1.0000 0.25790  0.67070  0.84520  Biso   1.000  N
  N45      1.0000 0.33300  0.55150  0.83800  Biso   1.000  N
  N46      1.0000 0.13040  0.58000  0.62600  Biso   1.000  N
  N47      1.0000 0.32350  0.55700  0.40100  Biso   1.000  N
  N48      1.0000 0.44370  0.62950  0.58000  Biso   1.000  N
  C50      1.0000 0.25100  0.70140  0.29800  Biso   1.000  C
  C51      1.0000 0.25350  0.70080  0.95130  Biso   1.000  C
  C52      1.0000 0.39570  0.53160  0.90100  Biso   1.000  C
  C53      1.0000 0.07990  0.55020  0.58070  Biso   1.000  C
  C54      1.0000 0.42470  0.56040  0.37700  Biso   1.000  C
  C55      1.0000 0.47450  0.59860  0.43600  Biso   1.000  C
  C56      1.0000 0.57960  0.60050  0.48960  Biso   1.000  C
  Ni1      1.0000 0.24890  0.25000  0.62410  Biso   1.000  Ni
  Ni2      1.0000 0.25110  0.75000  0.12410  Biso   1.000  Ni
  Ni3      1.0000 0.75110  0.75000  0.37590  Biso   1.000  Ni
  Ni4      1.0000 0.74890  0.25000  0.87590  Biso   1.000  Ni
  Ni5      1.0000 0.00000  0.00000  0.50000  Biso   1.000  Ni
  Ni6      1.0000 0.50000  0.00000  0.00000  Biso   1.000  Ni
  Ni7      1.0000 0.00000  0.50000  0.50000  Biso   1.000  Ni
  Ni8      1.0000 0.50000  0.50000  0.00000  Biso   1.000  Ni
