data_image0
_cell_length_a       9.249
_cell_length_b       9.807
_cell_length_c       10.73
_cell_angle_alpha    68
_cell_angle_beta     84.47
_cell_angle_gamma    62.05

_symmetry_space_group_name_H-M    P 1
_symmetry_int_tables_number       1

loop_
  _symmetry_equiv_pos_as_xyz
  'x, y, z'

loop_
  _atom_site_label
  _atom_site_occupancy
  _atom_site_fract_x
  _atom_site_fract_y
  _atom_site_fract_z
  _atom_site_thermal_displace_type
  _atom_site_B_iso_or_equiv
  _atom_site_type_symbol
  La1      1.0000 0.22478  0.04374  0.98423  Biso   1.000  La
  La2      1.0000 0.77522  0.95626  0.01577  Biso   1.000  La
  H1       1.0000 0.36230  0.12590  0.37180  Biso   1.000  H
  H2       1.0000 0.53380  0.97560  0.37730  Biso   1.000  H
  H3       1.0000 0.63280  0.16210  0.24610  Biso   1.000  H
  H4       1.0000 0.57640  0.18910  0.38120  Biso   1.000  H
  H5       1.0000 0.32890  0.42470  0.26480  Biso   1.000  H
  H6       1.0000 0.38220  0.39670  0.12920  Biso   1.000  H
  H7       1.0000 0.60090  0.45030  0.13370  Biso   1.000  H
  H8       1.0000 0.56560  0.46030  0.27640  Biso   1.000  H
  H9       1.0000 0.83180  0.09610  0.65100  Biso   1.000  H
  H10      1.0000 0.88600  0.22920  0.56050  Biso   1.000  H
  H11      1.0000 0.08660  0.88170  0.62690  Biso   1.000  H
  H12      1.0000 0.13370  0.01780  0.53120  Biso   1.000  H
  H13      1.0000 0.18220  0.38600  0.82150  Biso   1.000  H
  H14      1.0000 0.32530  0.32720  0.81290  Biso   1.000  H
  H15      1.0000 0.87930  0.29950  0.97950  Biso   1.000  H
  H16      1.0000 0.94570  0.39580  0.90860  Biso   1.000  H
  H17      1.0000 0.63770  0.87410  0.62820  Biso   1.000  H
  H18      1.0000 0.46620  0.02440  0.62270  Biso   1.000  H
  H19      1.0000 0.36720  0.83790  0.75390  Biso   1.000  H
  H20      1.0000 0.42360  0.81090  0.61880  Biso   1.000  H
  H21      1.0000 0.67110  0.57530  0.73520  Biso   1.000  H
  H22      1.0000 0.61780  0.60330  0.87080  Biso   1.000  H
  H23      1.0000 0.39910  0.54970  0.86630  Biso   1.000  H
  H24      1.0000 0.43440  0.53970  0.72360  Biso   1.000  H
  H25      1.0000 0.16820  0.90390  0.34900  Biso   1.000  H
  H26      1.0000 0.11400  0.77080  0.43950  Biso   1.000  H
  H27      1.0000 0.91340  0.11830  0.37310  Biso   1.000  H
  H28      1.0000 0.86630  0.98220  0.46880  Biso   1.000  H
  H29      1.0000 0.81780  0.61400  0.17850  Biso   1.000  H
  H30      1.0000 0.67470  0.67280  0.18710  Biso   1.000  H
  H31      1.0000 0.12070  0.70050  0.02050  Biso   1.000  H
  H32      1.0000 0.05430  0.60420  0.09140  Biso   1.000  H
  C1       1.0000 0.40040  0.08780  0.19500  Biso   1.000  C
  C2       1.0000 0.45640  0.08860  0.32150  Biso   1.000  C
  C3       1.0000 0.53780  0.20020  0.29530  Biso   1.000  C
  C4       1.0000 0.42260  0.38410  0.21510  Biso   1.000  C
  C5       1.0000 0.51410  0.48540  0.19060  Biso   1.000  C
  C6       1.0000 0.40790  0.67140  0.12530  Biso   1.000  C
  C7       1.0000 0.01370  0.09380  0.74860  Biso   1.000  C
  C8       1.0000 0.92580  0.11590  0.62520  Biso   1.000  C
  C9       1.0000 0.04240  0.99430  0.56020  Biso   1.000  C
  C10      1.0000 0.59960  0.91220  0.80500  Biso   1.000  C
  C11      1.0000 0.54360  0.91140  0.67850  Biso   1.000  C
  C12      1.0000 0.46220  0.79980  0.70470  Biso   1.000  C
  C13      1.0000 0.57740  0.61590  0.78490  Biso   1.000  C
  C14      1.0000 0.48590  0.51460  0.80940  Biso   1.000  C
  C15      1.0000 0.59210  0.32860  0.87470  Biso   1.000  C
  C16      1.0000 0.98630  0.90620  0.25140  Biso   1.000  C
  C17      1.0000 0.07420  0.88410  0.37480  Biso   1.000  C
  C18      1.0000 0.95760  0.00570  0.43980  Biso   1.000  C
  O1       1.0000 0.25190  0.12230  0.17640  Biso   1.000  O
  O2       1.0000 0.50050  0.05100  0.10990  Biso   1.000  O
  O3       1.0000 0.42170  0.76590  0.17270  Biso   1.000  O
  O4       1.0000 0.30810  0.73370  0.02250  Biso   1.000  O
  O5       1.0000 0.12740  0.13360  0.73380  Biso   1.000  O
  O6       1.0000 0.97770  0.03170  0.86550  Biso   1.000  O
  O7       1.0000 0.25520  0.30030  0.85060  Biso   1.000  O
  O8       1.0000 0.96260  0.31140  0.96230  Biso   1.000  O
  O9       1.0000 0.74810  0.87770  0.82360  Biso   1.000  O
  O10      1.0000 0.49950  0.94900  0.89010  Biso   1.000  O
  O11      1.0000 0.57830  0.23410  0.82730  Biso   1.000  O
  O12      1.0000 0.69190  0.26630  0.97750  Biso   1.000  O
  O13      1.0000 0.87260  0.86640  0.26620  Biso   1.000  O
  O14      1.0000 0.02230  0.96830  0.13450  Biso   1.000  O
  O15      1.0000 0.74480  0.69970  0.14940  Biso   1.000  O
  O16      1.0000 0.03740  0.68860  0.03770  Biso   1.000  O
