data_image0
_cell_length_a       9.239
_cell_length_b       9.79
_cell_length_c       10.709
_cell_angle_alpha    68.04
_cell_angle_beta     84.49
_cell_angle_gamma    62.01

_symmetry_space_group_name_H-M    P 1
_symmetry_int_tables_number       1

loop_
  _symmetry_equiv_pos_as_xyz
  'x, y, z'

loop_
  _atom_site_label
  _atom_site_occupancy
  _atom_site_fract_x
  _atom_site_fract_y
  _atom_site_fract_z
  _atom_site_thermal_displace_type
  _atom_site_B_iso_or_equiv
  _atom_site_type_symbol
  La1      1.0000 0.77530  0.45620  0.01590  Biso   1.000  La
  La2      1.0000 0.22470  0.54380  0.98410  Biso   1.000  La
  H1       1.0000 0.11300  0.26800  0.43600  Biso   1.000  H
  H2       1.0000 0.17000  0.40200  0.34800  Biso   1.000  H
  H3       1.0000 0.86700  0.48300  0.46800  Biso   1.000  H
  H4       1.0000 0.91500  0.61900  0.37100  Biso   1.000  H
  H5       1.0000 0.36100  0.61900  0.37400  Biso   1.000  H
  H6       1.0000 0.53800  0.47300  0.37400  Biso   1.000  H
  H7       1.0000 0.63400  0.66100  0.24800  Biso   1.000  H
  H8       1.0000 0.57700  0.68700  0.38600  Biso   1.000  H
  H9       1.0000 0.38100  0.89800  0.12800  Biso   1.000  H
  H10      1.0000 0.32500  0.92400  0.26300  Biso   1.000  H
  H11      1.0000 0.56700  0.95800  0.27600  Biso   1.000  H
  H12      1.0000 0.59800  0.95700  0.12500  Biso   1.000  H
  H13      1.0000 0.12200  0.18600  0.03200  Biso   1.000  H
  H14      1.0000 0.05700  0.09400  0.09500  Biso   1.000  H
  H15      1.0000 0.81400  0.10000  0.18700  Biso   1.000  H
  H16      1.0000 0.66100  0.20400  0.16400  Biso   1.000  H
  H17      1.0000 0.88700  0.73200  0.56400  Biso   1.000  H
  H18      1.0000 0.83000  0.59800  0.65200  Biso   1.000  H
  H19      1.0000 0.13300  0.51700  0.53200  Biso   1.000  H
  H20      1.0000 0.08500  0.38100  0.62900  Biso   1.000  H
  H21      1.0000 0.63900  0.38100  0.62600  Biso   1.000  H
  H22      1.0000 0.46200  0.52700  0.62600  Biso   1.000  H
  H23      1.0000 0.36600  0.33900  0.75200  Biso   1.000  H
  H24      1.0000 0.42300  0.31300  0.61400  Biso   1.000  H
  H25      1.0000 0.61900  0.10200  0.87200  Biso   1.000  H
  H26      1.0000 0.67500  0.07600  0.73700  Biso   1.000  H
  H27      1.0000 0.43300  0.04200  0.72400  Biso   1.000  H
  H28      1.0000 0.40200  0.04300  0.87500  Biso   1.000  H
  H29      1.0000 0.87800  0.81400  0.96800  Biso   1.000  H
  H30      1.0000 0.94300  0.90600  0.90500  Biso   1.000  H
  H31      1.0000 0.18600  0.90000  0.81300  Biso   1.000  H
  H32      1.0000 0.33900  0.79600  0.83600  Biso   1.000  H
  C1       1.0000 0.98670  0.40530  0.25200  Biso   1.000  C
  C2       1.0000 0.07460  0.38370  0.37480  Biso   1.000  C
  C3       1.0000 0.95760  0.50520  0.43980  Biso   1.000  C
  C4       1.0000 0.40020  0.58800  0.19480  Biso   1.000  C
  C5       1.0000 0.45640  0.58860  0.32190  Biso   1.000  C
  C6       1.0000 0.53700  0.70060  0.29500  Biso   1.000  C
  C7       1.0000 0.42280  0.88390  0.21520  Biso   1.000  C
  C8       1.0000 0.51460  0.98520  0.19050  Biso   1.000  C
  C9       1.0000 0.40740  0.17120  0.12500  Biso   1.000  C
  C10      1.0000 0.01330  0.59470  0.74800  Biso   1.000  C
  C11      1.0000 0.92540  0.61630  0.62520  Biso   1.000  C
  C12      1.0000 0.04240  0.49480  0.56020  Biso   1.000  C
  C13      1.0000 0.59980  0.41200  0.80520  Biso   1.000  C
  C14      1.0000 0.54360  0.41140  0.67810  Biso   1.000  C
  C15      1.0000 0.46300  0.29940  0.70500  Biso   1.000  C
  C16      1.0000 0.57720  0.11610  0.78480  Biso   1.000  C
  C17      1.0000 0.48540  0.01480  0.80950  Biso   1.000  C
  C18      1.0000 0.59260  0.82880  0.87500  Biso   1.000  C
  O1       1.0000 0.02200  0.46820  0.13460  Biso   1.000  O
  O2       1.0000 0.87250  0.36580  0.26630  Biso   1.000  O
  O3       1.0000 0.50100  0.55100  0.11020  Biso   1.000  O
  O4       1.0000 0.42200  0.26560  0.17300  Biso   1.000  O
  O5       1.0000 0.25240  0.62200  0.17680  Biso   1.000  O
  O6       1.0000 0.30850  0.23290  0.02270  Biso   1.000  O
  O7       1.0000 0.03710  0.18820  0.03800  Biso   1.000  O
  O8       1.0000 0.74520  0.19890  0.14980  Biso   1.000  O
  O9       1.0000 0.97800  0.53180  0.86540  Biso   1.000  O
  O10      1.0000 0.12750  0.63420  0.73370  Biso   1.000  O
  O11      1.0000 0.49900  0.44900  0.88980  Biso   1.000  O
  O12      1.0000 0.57800  0.73440  0.82700  Biso   1.000  O
  O13      1.0000 0.74760  0.37800  0.82320  Biso   1.000  O
  O14      1.0000 0.69150  0.76710  0.97730  Biso   1.000  O
  O15      1.0000 0.96290  0.81180  0.96200  Biso   1.000  O
  O16      1.0000 0.25480  0.80110  0.85020  Biso   1.000  O
