data_image0
_cell_length_a       9.417
_cell_length_b       9.754
_cell_length_c       11.002
_cell_angle_alpha    80.51
_cell_angle_beta     71.64
_cell_angle_gamma    61.68

_symmetry_space_group_name_H-M    "P 1"
_symmetry_int_tables_number       1

loop_
  _symmetry_equiv_pos_as_xyz
  'x, y, z'

loop_
  _atom_site_label
  _atom_site_occupancy
  _atom_site_fract_x
  _atom_site_fract_y
  _atom_site_fract_z
  _atom_site_thermal_displace_type
  _atom_site_B_iso_or_equiv
  _atom_site_type_symbol
  P1       1.0000 0.62890  0.26130  0.28490  Biso   1.000  P
  P2       1.0000 0.01000  0.59700  0.17350  Biso   1.000  P
  P3       1.0000 0.12280  0.11920  0.41850  Biso   1.000  P
  O1       1.0000 0.13850  0.54790  0.24990  Biso   1.000  O
  O2       1.0000 0.18980  0.22600  0.32900  Biso   1.000  O
  O3       1.0000 0.45930  0.31970  0.25720  Biso   1.000  O
  O4       1.0000 0.59480  0.28760  0.42500  Biso   1.000  O
  O5       1.0000 0.24970  0.95160  0.37900  Biso   1.000  O
  O6       1.0000 0.95110  0.15590  0.40480  Biso   1.000  O
  O7       1.0000 0.71750  0.35260  0.20030  Biso   1.000  O
  O8       1.0000 0.90640  0.50430  0.21650  Biso   1.000  O
  O9       1.0000 0.10790  0.56510  0.03200  Biso   1.000  O
  O10      1.0000 0.10800  0.14770  0.55630  Biso   1.000  O
  O11      1.0000 0.73370  0.08970  0.25340  Biso   1.000  O
  O12      1.0000 0.88810  0.77110  0.19560  Biso   1.000  O
  Sn1      1.0000 0.22400  0.39590  0.39730  Biso   1.000  Sn
  Sn2      1.0000 0.71080  0.27520  0.55940  Biso   1.000  Sn
  Sn3      1.0000 0.97210  0.29920  0.12840  Biso   1.000  Sn
  Sn4      1.0000 0.97190  0.91330  0.25300  Biso   1.000  Sn
  P4       1.0000 0.37110  0.73870  0.71510  Biso   1.000  P
  P5       1.0000 0.99000  0.40300  0.82650  Biso   1.000  P
  P6       1.0000 0.87720  0.88080  0.58150  Biso   1.000  P
  O13      1.0000 0.86150  0.45210  0.75010  Biso   1.000  O
  O14      1.0000 0.81020  0.77400  0.67100  Biso   1.000  O
  O15      1.0000 0.54070  0.68030  0.74280  Biso   1.000  O
  O16      1.0000 0.40520  0.71240  0.57500  Biso   1.000  O
  O17      1.0000 0.75030  0.04840  0.62100  Biso   1.000  O
  O18      1.0000 0.04890  0.84410  0.59520  Biso   1.000  O
  O19      1.0000 0.28250  0.64740  0.79970  Biso   1.000  O
  O20      1.0000 0.09360  0.49570  0.78350  Biso   1.000  O
  O21      1.0000 0.89210  0.43490  0.96800  Biso   1.000  O
  O22      1.0000 0.89200  0.85230  0.44370  Biso   1.000  O
  O23      1.0000 0.26630  0.91030  0.74660  Biso   1.000  O
  O24      1.0000 0.11190  0.22890  0.80440  Biso   1.000  O
  Sn5      1.0000 0.77600  0.60410  0.60270  Biso   1.000  Sn
  Sn6      1.0000 0.28920  0.72480  0.44060  Biso   1.000  Sn
  Sn7      1.0000 0.02790  0.70080  0.87160  Biso   1.000  Sn
  Sn8      1.0000 0.02810  0.08670  0.74700  Biso   1.000  Sn
