data_image0
_cell_length_a       6.673
_cell_length_b       14.044
_cell_length_c       23.825
_cell_angle_alpha    90
_cell_angle_beta     90
_cell_angle_gamma    90

_symmetry_space_group_name_H-M    P 1
_symmetry_int_tables_number       1

loop_
  _symmetry_equiv_pos_as_xyz
  'x, y, z'

loop_
  _atom_site_label
  _atom_site_occupancy
  _atom_site_fract_x
  _atom_site_fract_y
  _atom_site_fract_z
  _atom_site_thermal_displace_type
  _atom_site_B_iso_or_equiv
  _atom_site_type_symbol
  Ce1      1.0000 0.88144  0.70566  0.63392  Biso   1.000  Ce
  Ce2      1.0000 0.38144  0.79434  0.86608  Biso   1.000  Ce
  Ce3      1.0000 0.61856  0.70566  0.36608  Biso   1.000  Ce
  Ce4      1.0000 0.11856  0.79434  0.13392  Biso   1.000  Ce
  Ce5      1.0000 0.11856  0.29434  0.36608  Biso   1.000  Ce
  Ce6      1.0000 0.61856  0.20566  0.13392  Biso   1.000  Ce
  Ce7      1.0000 0.38144  0.29434  0.63392  Biso   1.000  Ce
  Ce8      1.0000 0.88144  0.20566  0.86608  Biso   1.000  Ce
  H1       1.0000 0.91800  0.91600  0.61100  Biso   1.000  H
  H2       1.0000 0.58400  0.76900  0.72300  Biso   1.000  H
  H3       1.0000 0.54300  0.85500  0.66600  Biso   1.000  H
  H4       1.0000 0.87400  0.51900  0.56800  Biso   1.000  H
  H5       1.0000 0.00100  0.50000  0.60900  Biso   1.000  H
  H6       1.0000 0.30000  0.71900  0.58700  Biso   1.000  H
  H7       1.0000 0.37400  0.70900  0.65200  Biso   1.000  H
  H8       1.0000 0.41800  0.58400  0.88900  Biso   1.000  H
  H9       1.0000 0.08400  0.73100  0.77700  Biso   1.000  H
  H10      1.0000 0.04300  0.64500  0.83400  Biso   1.000  H
  H11      1.0000 0.37400  0.98100  0.93200  Biso   1.000  H
  H12      1.0000 0.50100  0.00000  0.89100  Biso   1.000  H
  H13      1.0000 0.80000  0.78100  0.91300  Biso   1.000  H
  H14      1.0000 0.87400  0.79100  0.84800  Biso   1.000  H
  H15      1.0000 0.58200  0.91600  0.38900  Biso   1.000  H
  H16      1.0000 0.91600  0.76900  0.27700  Biso   1.000  H
  H17      1.0000 0.95700  0.85500  0.33400  Biso   1.000  H
  H18      1.0000 0.62600  0.51900  0.43200  Biso   1.000  H
  H19      1.0000 0.49900  0.50000  0.39100  Biso   1.000  H
  H20      1.0000 0.20000  0.71900  0.41300  Biso   1.000  H
  H21      1.0000 0.12600  0.70900  0.34800  Biso   1.000  H
  H22      1.0000 0.08200  0.58400  0.11100  Biso   1.000  H
  H23      1.0000 0.41600  0.73100  0.22300  Biso   1.000  H
  H24      1.0000 0.45700  0.64500  0.16600  Biso   1.000  H
  H25      1.0000 0.12600  0.98100  0.06800  Biso   1.000  H
  H26      1.0000 0.99900  0.00000  0.10900  Biso   1.000  H
  H27      1.0000 0.70000  0.78100  0.08700  Biso   1.000  H
  H28      1.0000 0.62600  0.79100  0.15200  Biso   1.000  H
  H29      1.0000 0.08200  0.08400  0.38900  Biso   1.000  H
  H30      1.0000 0.41600  0.23100  0.27700  Biso   1.000  H
  H31      1.0000 0.45700  0.14500  0.33400  Biso   1.000  H
  H32      1.0000 0.12600  0.48100  0.43200  Biso   1.000  H
  H33      1.0000 0.99900  0.50000  0.39100  Biso   1.000  H
  H34      1.0000 0.70000  0.28100  0.41300  Biso   1.000  H
  H35      1.0000 0.62600  0.29100  0.34800  Biso   1.000  H
  H36      1.0000 0.58200  0.41600  0.11100  Biso   1.000  H
  H37      1.0000 0.91600  0.26900  0.22300  Biso   1.000  H
  H38      1.0000 0.95700  0.35500  0.16600  Biso   1.000  H
  H39      1.0000 0.62600  0.01900  0.06800  Biso   1.000  H
  H40      1.0000 0.49900  0.00000  0.10900  Biso   1.000  H
  H41      1.0000 0.20000  0.21900  0.08700  Biso   1.000  H
  H42      1.0000 0.12600  0.20900  0.15200  Biso   1.000  H
  H43      1.0000 0.41800  0.08400  0.61100  Biso   1.000  H
  H44      1.0000 0.08400  0.23100  0.72300  Biso   1.000  H
  H45      1.0000 0.04300  0.14500  0.66600  Biso   1.000  H
  H46      1.0000 0.37400  0.48100  0.56800  Biso   1.000  H
  H47      1.0000 0.50100  0.50000  0.60900  Biso   1.000  H
  H48      1.0000 0.80000  0.28100  0.58700  Biso   1.000  H
  H49      1.0000 0.87400  0.29100  0.65200  Biso   1.000  H
  H50      1.0000 0.91800  0.41600  0.88900  Biso   1.000  H
  H51      1.0000 0.58400  0.26900  0.77700  Biso   1.000  H
  H52      1.0000 0.54300  0.35500  0.83400  Biso   1.000  H
  H53      1.0000 0.87400  0.01900  0.93200  Biso   1.000  H
  H54      1.0000 0.00100  0.00000  0.89100  Biso   1.000  H
  H55      1.0000 0.30000  0.21900  0.91300  Biso   1.000  H
  H56      1.0000 0.37400  0.20900  0.84800  Biso   1.000  H
  C1       1.0000 0.02220  0.89060  0.73230  Biso   1.000  C
  C2       1.0000 0.05590  0.93280  0.78780  Biso   1.000  C
  C3       1.0000 0.01310  0.02720  0.76610  Biso   1.000  C
  C4       1.0000 0.98810  0.98720  0.70940  Biso   1.000  C
  C5       1.0000 0.86170  0.70390  0.49110  Biso   1.000  C
  C6       1.0000 0.52220  0.60940  0.76770  Biso   1.000  C
  C7       1.0000 0.55590  0.56720  0.71220  Biso   1.000  C
  C8       1.0000 0.51310  0.47280  0.73390  Biso   1.000  C
  C9       1.0000 0.48810  0.51280  0.79060  Biso   1.000  C
  C10      1.0000 0.36170  0.79610  0.00890  Biso   1.000  C
  C11      1.0000 0.47780  0.89060  0.26770  Biso   1.000  C
  C12      1.0000 0.44410  0.93280  0.21220  Biso   1.000  C
  C13      1.0000 0.48690  0.02720  0.23390  Biso   1.000  C
  C14      1.0000 0.51190  0.98720  0.29060  Biso   1.000  C
  C15      1.0000 0.63830  0.70390  0.50890  Biso   1.000  C
  C16      1.0000 0.97780  0.60940  0.23230  Biso   1.000  C
  C17      1.0000 0.94410  0.56720  0.28780  Biso   1.000  C
  C18      1.0000 0.98690  0.47280  0.26610  Biso   1.000  C
  C19      1.0000 0.01190  0.51280  0.20940  Biso   1.000  C
  C20      1.0000 0.13830  0.79610  0.99110  Biso   1.000  C
  C21      1.0000 0.97780  0.10940  0.26770  Biso   1.000  C
  C22      1.0000 0.94410  0.06720  0.21220  Biso   1.000  C
  C23      1.0000 0.98690  0.97280  0.23390  Biso   1.000  C
  C24      1.0000 0.01190  0.01280  0.29060  Biso   1.000  C
  C25      1.0000 0.13830  0.29610  0.50890  Biso   1.000  C
  C26      1.0000 0.47780  0.39060  0.23230  Biso   1.000  C
  C27      1.0000 0.44410  0.43280  0.28780  Biso   1.000  C
  C28      1.0000 0.48690  0.52720  0.26610  Biso   1.000  C
  C29      1.0000 0.51190  0.48720  0.20940  Biso   1.000  C
  C30      1.0000 0.63830  0.20390  0.99110  Biso   1.000  C
  C31      1.0000 0.52220  0.10940  0.73230  Biso   1.000  C
  C32      1.0000 0.55590  0.06720  0.78780  Biso   1.000  C
  C33      1.0000 0.51310  0.97280  0.76610  Biso   1.000  C
  C34      1.0000 0.48810  0.01280  0.70940  Biso   1.000  C
  C35      1.0000 0.36170  0.29610  0.49110  Biso   1.000  C
  C36      1.0000 0.02220  0.39060  0.76770  Biso   1.000  C
  C37      1.0000 0.05590  0.43280  0.71220  Biso   1.000  C
  C38      1.0000 0.01310  0.52720  0.73390  Biso   1.000  C
  C39      1.0000 0.98810  0.48720  0.79060  Biso   1.000  C
  C40      1.0000 0.86170  0.20390  0.00890  Biso   1.000  C
  O1       1.0000 0.02440  0.80820  0.71310  Biso   1.000  O
  O2       1.0000 0.10580  0.90380  0.83560  Biso   1.000  O
  O3       1.0000 0.00450  0.10990  0.78590  Biso   1.000  O
  O4       1.0000 0.95580  0.02080  0.66220  Biso   1.000  O
  O5       1.0000 0.98790  0.70660  0.52920  Biso   1.000  O
  O6       1.0000 0.89530  0.69990  0.43930  Biso   1.000  O
  O7       1.0000 0.87930  0.87180  0.59590  Biso   1.000  O
  O8       1.0000 0.58540  0.79590  0.68040  Biso   1.000  O
  O9       1.0000 0.96060  0.54060  0.59340  Biso   1.000  O
  O10      1.0000 0.25040  0.72030  0.62090  Biso   1.000  O
  O11      1.0000 0.52440  0.69180  0.78690  Biso   1.000  O
  O12      1.0000 0.60580  0.59620  0.66440  Biso   1.000  O
  O13      1.0000 0.50450  0.39010  0.71410  Biso   1.000  O
  O14      1.0000 0.45580  0.47920  0.83780  Biso   1.000  O
  O15      1.0000 0.48790  0.79340  0.97080  Biso   1.000  O
  O16      1.0000 0.39530  0.80010  0.06070  Biso   1.000  O
  O17      1.0000 0.37930  0.62820  0.90410  Biso   1.000  O
  O18      1.0000 0.08540  0.70410  0.81960  Biso   1.000  O
  O19      1.0000 0.46060  0.95940  0.90660  Biso   1.000  O
  O20      1.0000 0.75040  0.77970  0.87910  Biso   1.000  O
  O21      1.0000 0.47560  0.80820  0.28690  Biso   1.000  O
  O22      1.0000 0.39420  0.90380  0.16440  Biso   1.000  O
  O23      1.0000 0.49550  0.10990  0.21410  Biso   1.000  O
  O24      1.0000 0.54420  0.02080  0.33780  Biso   1.000  O
  O25      1.0000 0.51210  0.70660  0.47080  Biso   1.000  O
  O26      1.0000 0.60470  0.69990  0.56070  Biso   1.000  O
  O27      1.0000 0.62070  0.87180  0.40410  Biso   1.000  O
  O28      1.0000 0.91460  0.79590  0.31960  Biso   1.000  O
  O29      1.0000 0.53940  0.54060  0.40660  Biso   1.000  O
  O30      1.0000 0.24960  0.72030  0.37910  Biso   1.000  O
  O31      1.0000 0.97560  0.69180  0.21310  Biso   1.000  O
  O32      1.0000 0.89420  0.59620  0.33560  Biso   1.000  O
  O33      1.0000 0.99550  0.39010  0.28590  Biso   1.000  O
  O34      1.0000 0.04420  0.47920  0.16220  Biso   1.000  O
  O35      1.0000 0.01210  0.79340  0.02920  Biso   1.000  O
  O36      1.0000 0.10470  0.80010  0.93930  Biso   1.000  O
  O37      1.0000 0.12070  0.62820  0.09590  Biso   1.000  O
  O38      1.0000 0.41460  0.70410  0.18040  Biso   1.000  O
  O39      1.0000 0.03940  0.95940  0.09340  Biso   1.000  O
  O40      1.0000 0.74960  0.77970  0.12090  Biso   1.000  O
  O41      1.0000 0.97560  0.19180  0.28690  Biso   1.000  O
  O42      1.0000 0.89420  0.09620  0.16440  Biso   1.000  O
  O43      1.0000 0.99550  0.89010  0.21410  Biso   1.000  O
  O44      1.0000 0.04420  0.97920  0.33780  Biso   1.000  O
  O45      1.0000 0.01210  0.29340  0.47080  Biso   1.000  O
  O46      1.0000 0.10470  0.30010  0.56070  Biso   1.000  O
  O47      1.0000 0.12070  0.12820  0.40410  Biso   1.000  O
  O48      1.0000 0.41460  0.20410  0.31960  Biso   1.000  O
  O49      1.0000 0.03940  0.45940  0.40660  Biso   1.000  O
  O50      1.0000 0.74960  0.27970  0.37910  Biso   1.000  O
  O51      1.0000 0.47560  0.30820  0.21310  Biso   1.000  O
  O52      1.0000 0.39420  0.40380  0.33560  Biso   1.000  O
  O53      1.0000 0.49550  0.60990  0.28590  Biso   1.000  O
  O54      1.0000 0.54420  0.52080  0.16220  Biso   1.000  O
  O55      1.0000 0.51210  0.20660  0.02920  Biso   1.000  O
  O56      1.0000 0.60470  0.19990  0.93930  Biso   1.000  O
  O57      1.0000 0.62070  0.37180  0.09590  Biso   1.000  O
  O58      1.0000 0.91460  0.29590  0.18040  Biso   1.000  O
  O59      1.0000 0.53940  0.04060  0.09340  Biso   1.000  O
  O60      1.0000 0.24960  0.22030  0.12090  Biso   1.000  O
  O61      1.0000 0.52440  0.19180  0.71310  Biso   1.000  O
  O62      1.0000 0.60580  0.09620  0.83560  Biso   1.000  O
  O63      1.0000 0.50450  0.89010  0.78590  Biso   1.000  O
  O64      1.0000 0.45580  0.97920  0.66220  Biso   1.000  O
  O65      1.0000 0.48790  0.29340  0.52920  Biso   1.000  O
  O66      1.0000 0.39530  0.30010  0.43930  Biso   1.000  O
  O67      1.0000 0.37930  0.12820  0.59590  Biso   1.000  O
  O68      1.0000 0.08540  0.20410  0.68040  Biso   1.000  O
  O69      1.0000 0.46060  0.45940  0.59340  Biso   1.000  O
  O70      1.0000 0.75040  0.27970  0.62090  Biso   1.000  O
  O71      1.0000 0.02440  0.30820  0.78690  Biso   1.000  O
  O72      1.0000 0.10580  0.40380  0.66440  Biso   1.000  O
  O73      1.0000 0.00450  0.60990  0.71410  Biso   1.000  O
  O74      1.0000 0.95580  0.52080  0.83780  Biso   1.000  O
  O75      1.0000 0.98790  0.20660  0.97080  Biso   1.000  O
  O76      1.0000 0.89530  0.19990  0.06070  Biso   1.000  O
  O77      1.0000 0.87930  0.37180  0.90410  Biso   1.000  O
  O78      1.0000 0.58540  0.29590  0.81960  Biso   1.000  O
  O79      1.0000 0.96060  0.04060  0.90660  Biso   1.000  O
  O80      1.0000 0.25040  0.22030  0.87910  Biso   1.000  O
