data_jp102463p_si_004_freeONLY
_audit_creation_date              2015-08-19
_audit_creation_method            'Materials Studio'
_symmetry_space_group_name_H-M    'P1'
_symmetry_Int_Tables_number       1
_symmetry_cell_setting            triclinic
loop_
_symmetry_equiv_pos_as_xyz
  x,y,z
_cell_length_a                    6.8587
_cell_length_b                    11.2033
_cell_length_c                    11.2033
_cell_angle_alpha                 76.0022
_cell_angle_beta                  72.1755
_cell_angle_gamma                 72.1758
loop_
_atom_site_label
_atom_site_type_symbol
_atom_site_fract_x
_atom_site_fract_y
_atom_site_fract_z
_atom_site_U_iso_or_equiv
_atom_site_adp_type
_atom_site_occupancy
Cr1    Cr    0.00000   0.00000   0.50000   0.01267  Uiso   1.00
Cr2    Cr    0.50000   0.00000   0.50000   0.01267  Uiso   1.00
H1     H     0.85896   0.38816   0.49534   0.01267  Uiso   1.00
H2     H     0.35896   0.99534   0.88816   0.01267  Uiso   1.00
H3     H     0.25754   0.38816   0.49534   0.01267  Uiso   1.00
H4     H     0.75754   0.99534   0.88816   0.01267  Uiso   1.00
H5     H     0.64104   0.00466   0.11184   0.01267  Uiso   1.00
H6     H     0.14104   0.61184   0.50466   0.01267  Uiso   1.00
H7     H     0.24246   0.00466   0.11184   0.01267  Uiso   1.00
H8     H     0.74246   0.61184   0.50466   0.01267  Uiso   1.00
C1     C     0.67691   0.43782   0.49558   0.01267  Uiso   1.00
C2     C     0.63137   0.24021   0.49705   0.01267  Uiso   1.00
C3     C     0.82309   0.00442   0.06218   0.01267  Uiso   1.00
C4     C     0.36863   0.75979   0.50295   0.01267  Uiso   1.00
C5     C     0.06455   0.99609   0.87481   0.01267  Uiso   1.00
C6     C     0.32309   0.56218   0.50442   0.01267  Uiso   1.00
C7     C     0.56455   0.37481   0.49609   0.01267  Uiso   1.00
C8     C     0.13137   0.99705   0.74021   0.01267  Uiso   1.00
C9     C     0.88969   0.99558   0.93782   0.01267  Uiso   1.00
C10    C     0.43545   0.62519   0.50391   0.01267  Uiso   1.00
C11    C     0.61031   0.56218   0.50442   0.01267  Uiso   1.00
C12    C     0.93545   0.00391   0.12519   0.01267  Uiso   1.00
C13    C     0.17691   0.99558   0.93782   0.01267  Uiso   1.00
C14    C     0.11031   0.00442   0.06218   0.01267  Uiso   1.00
C15    C     0.38969   0.43782   0.49558   0.01267  Uiso   1.00
C16    C     0.86863   0.00295   0.25979   0.01267  Uiso   1.00
O1     O     0.48520   0.82359   0.50353   0.01267  Uiso   1.00
O2     O     0.18768   0.82359   0.50353   0.01267  Uiso   1.00
O3     O     0.51480   0.17641   0.49647   0.01267  Uiso   1.00
O4     O     0.68768   0.00353   0.32359   0.01267  Uiso   1.00
O5     O     0.31232   0.99647   0.67641   0.01267  Uiso   1.00
O6     O     0.01480   0.99647   0.67641   0.01267  Uiso   1.00
O7     O     0.81232   0.17641   0.49647   0.01267  Uiso   1.00
O8     O     0.75000   0.96815   0.53185   0.01267  Uiso   1.00
O9     O     0.25000   0.03185   0.46815   0.01267  Uiso   1.00
O10    O     0.98520   0.00353   0.32359   0.01267  Uiso   1.00
