data_jp102463p_si_002_freeONLY
_audit_creation_date              2015-08-19
_audit_creation_method            'Materials Studio'
_symmetry_space_group_name_H-M    'P1'
_symmetry_Int_Tables_number       1
_symmetry_cell_setting            triclinic
loop_
_symmetry_equiv_pos_as_xyz
  x,y,z
_cell_length_a                    6.8470
_cell_length_b                    11.1912
_cell_length_c                    11.1912
_cell_angle_alpha                 71.9301
_cell_angle_beta                  72.1871
_cell_angle_gamma                 72.1871
loop_
_atom_site_label
_atom_site_type_symbol
_atom_site_fract_x
_atom_site_fract_y
_atom_site_fract_z
_atom_site_U_iso_or_equiv
_atom_site_adp_type
_atom_site_occupancy
Cr1    Cr    0.00000   0.00000   0.50000   0.01267  Uiso   1.00
Cr2    Cr    0.50000  -0.00000   0.50000   0.01267  Uiso   1.00
H1     H     0.74600   0.00100   0.88700   0.01267  Uiso   1.00
H2     H     0.75400   0.61300   0.49900   0.01267  Uiso   1.00
H3     H     0.86600   0.38700   0.50100   0.01267  Uiso   1.00
H4     H     0.36600   0.00100   0.88700   0.01267  Uiso   1.00
H5     H     0.25400   0.99900   0.11300   0.01267  Uiso   1.00
H6     H     0.13400   0.61300   0.49900   0.01267  Uiso   1.00
H7     H     0.63400   0.99900   0.11300   0.01267  Uiso   1.00
H8     H     0.24600   0.38700   0.50100   0.01267  Uiso   1.00
C1     C     0.43100   0.63300   0.50500   0.01267  Uiso   1.00
C2     C     0.64200   0.22700   0.48900   0.01267  Uiso   1.00
C3     C     0.13500   0.99900   0.06700   0.01267  Uiso   1.00
C4     C     0.70100   0.43300   0.50100   0.01267  Uiso   1.00
C5     C     0.35800   0.77300   0.51100   0.01267  Uiso   1.00
C6     C     0.14200   0.98900   0.72700   0.01267  Uiso   1.00
C7     C     0.29900   0.56700   0.49900   0.01267  Uiso   1.00
C8     C     0.20100   0.00100   0.93300   0.01267  Uiso   1.00
C9     C     0.86500   0.00100   0.93300   0.01267  Uiso   1.00
C10    C     0.93100   0.00500   0.13300   0.01267  Uiso   1.00
C11    C     0.79900   0.99900   0.06700   0.01267  Uiso   1.00
C12    C     0.06900   0.99500   0.86700   0.01267  Uiso   1.00
C13    C     0.56900   0.36700   0.49500   0.01267  Uiso   1.00
C14    C     0.85800   0.01100   0.27300   0.01267  Uiso   1.00
C15    C     0.63500   0.56700   0.49900   0.01267  Uiso   1.00
C16    C     0.36500   0.43300   0.50100   0.01267  Uiso   1.00
O1     O     0.81900   0.17800   0.49200   0.01267  Uiso   1.00
O2     O     0.68100   0.00800   0.32200   0.01267  Uiso   1.00
O3     O     0.31900   0.99200   0.67800   0.01267  Uiso   1.00
O4     O     0.48900   0.82200   0.50800   0.01267  Uiso   1.00
O5     O     0.25000   0.05000   0.45000   0.01267  Uiso   1.00
O6     O     0.01100   0.99200   0.67800   0.01267  Uiso   1.00
O7     O     0.98900   0.00800   0.32200   0.01267  Uiso   1.00
O8     O     0.18100   0.82200   0.50800   0.01267  Uiso   1.00
O9     O     0.51100   0.17800   0.49200   0.01267  Uiso   1.00
O10    O     0.75000   0.95000   0.55000   0.01267  Uiso   1.00
