data_image0
_cell_length_a       9.8824
_cell_length_b       11.548
_cell_length_c       15.648
_cell_angle_alpha    89.784
_cell_angle_beta     76.441
_cell_angle_gamma    75.603

_symmetry_space_group_name_H-M    "P 1"
_symmetry_int_tables_number       1

loop_
  _symmetry_equiv_pos_as_xyz
  'x, y, z'

loop_
  _atom_site_label
  _atom_site_occupancy
  _atom_site_fract_x
  _atom_site_fract_y
  _atom_site_fract_z
  _atom_site_thermal_displace_type
  _atom_site_B_iso_or_equiv
  _atom_site_type_symbol
  Zn1      1.0000 0.15965  0.97354  0.97675  Biso   1.000  Zn
  O1       1.0000 0.16025  0.85651  0.07343  Biso   1.000  O
  O2       1.0000 0.92141  0.89373  0.09997  Biso   1.000  O
  O3       1.0000 0.88267  0.14338  0.10536  Biso   1.000  O
  O4       1.0000 0.12352  0.10575  0.07072  Biso   1.000  O
  N1       1.0000 0.36558  0.96364  0.91130  Biso   1.000  N
  C1       1.0000 0.00022  0.15542  0.11732  Biso   1.000  C
  C2       1.0000 0.99358  0.23526  0.19481  Biso   1.000  C
  C3       1.0000 0.10768  0.28499  0.19600  Biso   1.000  C
  H1       1.0000 0.18680  0.27100  0.14790  Biso   1.000  H
  C4       1.0000 0.10420  0.35543  0.26851  Biso   1.000  C
  H2       1.0000 0.17990  0.39000  0.26820  Biso   1.000  H
  C5       1.0000 0.98780  0.37474  0.34192  Biso   1.000  C
  C6       1.0000 0.87500  0.32375  0.34075  Biso   1.000  C
  H3       1.0000 0.79760  0.33510  0.38970  Biso   1.000  H
  C7       1.0000 0.87640  0.25591  0.26709  Biso   1.000  C
  H4       1.0000 0.79870  0.22440  0.26630  Biso   1.000  H
  C8       1.0000 0.99040  0.44284  0.42264  Biso   1.000  C
  C9       1.0000 0.02660  0.61163  0.49691  Biso   1.000  C
  H5       1.0000 0.04530  0.68680  0.49460  Biso   1.000  H
  C10      1.0000 0.01652  0.55710  0.41991  Biso   1.000  C
  C11      1.0000 0.42860  0.05100  0.92182  Biso   1.000  C
  H6       1.0000 0.38560  0.10680  0.96920  Biso   1.000  H
  C12      1.0000 0.55490  0.06200  0.86535  Biso   1.000  C
  H7       1.0000 0.59640  0.12280  0.87600  Biso   1.000  H
  C13      1.0000 0.61980  0.98163  0.79236  Biso   1.000  C
  C14      1.0000 0.74490  0.99977  0.72706  Biso   1.000  C
  H8       1.0000 0.80040  0.04540  0.74420  Biso   1.000  H
  C15      1.0000 0.55700  0.88829  0.78402  Biso   1.000  C
  H9       1.0000 0.59930  0.82980  0.73830  Biso   1.000  H
  C16      1.0000 0.43180  0.88270  0.84380  Biso   1.000  C
  H10      1.0000 0.39140  0.81970  0.83690  Biso   1.000  H
  C17      1.0000 0.02528  0.62624  0.33843  Biso   1.000  C
  C18      1.0000 0.15410  0.64707  0.29302  Biso   1.000  C
  H11      1.0000 0.23750  0.61560  0.31200  Biso   1.000  H
  C19      1.0000 0.03960  0.84429  0.11570  Biso   1.000  C
  C20      1.0000 0.03670  0.76465  0.19193  Biso   1.000  C
  C21      1.0000 0.90750  0.74340  0.23728  Biso   1.000  C
  H12      1.0000 0.82360  0.77660  0.21920  Biso   1.000  H
  C22      1.0000 0.90260  0.67280  0.30963  Biso   1.000  C
  H13      1.0000 0.81610  0.65700  0.33860  Biso   1.000  H
  C23      1.0000 0.16010  0.71446  0.21936  Biso   1.000  C
  H14      1.0000 0.24780  0.72590  0.18830  Biso   1.000  H
  C24      1.0000 0.78290  0.95394  0.64417  Biso   1.000  C
  H15      1.0000 0.73220  0.90150  0.63060  Biso   1.000  H
  C25      1.0000 0.89597  0.97731  0.57228  Biso   1.000  C
  C26      1.0000 0.90210  0.93953  0.48602  Biso   1.000  C
  H16      1.0000 0.83640  0.89860  0.47650  Biso   1.000  H
  C27      1.0000 0.99650  0.03820  0.58508  Biso   1.000  C
  H17      1.0000 0.99500  0.06370  0.64170  Biso   1.000  H
  Zn2      1.0000 0.84035  0.02646  0.02325  Biso   1.000  Zn
  O5       1.0000 0.83975  0.14349  0.92657  Biso   1.000  O
  O6       1.0000 0.07859  0.10627  0.90003  Biso   1.000  O
  O7       1.0000 0.11733  0.85662  0.89464  Biso   1.000  O
  O8       1.0000 0.87648  0.89425  0.92928  Biso   1.000  O
  N2       1.0000 0.63442  0.03636  0.08870  Biso   1.000  N
  C28      1.0000 0.99978  0.84458  0.88268  Biso   1.000  C
  C29      1.0000 0.00642  0.76474  0.80519  Biso   1.000  C
  C30      1.0000 0.89232  0.71501  0.80400  Biso   1.000  C
  H18      1.0000 0.81320  0.72900  0.85210  Biso   1.000  H
  C31      1.0000 0.89580  0.64457  0.73149  Biso   1.000  C
  H19      1.0000 0.82010  0.61000  0.73180  Biso   1.000  H
  C32      1.0000 0.01220  0.62526  0.65808  Biso   1.000  C
  C33      1.0000 0.12500  0.67625  0.65925  Biso   1.000  C
  H20      1.0000 0.20240  0.66490  0.61030  Biso   1.000  H
  C34      1.0000 0.12360  0.74409  0.73291  Biso   1.000  C
  H21      1.0000 0.20130  0.77560  0.73370  Biso   1.000  H
  C35      1.0000 0.00960  0.55716  0.57736  Biso   1.000  C
  C36      1.0000 0.97340  0.38837  0.50309  Biso   1.000  C
  H22      1.0000 0.95470  0.31320  0.50540  Biso   1.000  H
  C37      1.0000 0.98348  0.44290  0.58009  Biso   1.000  C
  C38      1.0000 0.57140  0.94900  0.07818  Biso   1.000  C
  H23      1.0000 0.61440  0.89320  0.03080  Biso   1.000  H
  C39      1.0000 0.44510  0.93800  0.13465  Biso   1.000  C
  H24      1.0000 0.40360  0.87720  0.12400  Biso   1.000  H
  C40      1.0000 0.38020  0.01837  0.20764  Biso   1.000  C
  C41      1.0000 0.25510  0.00023  0.27294  Biso   1.000  C
  H25      1.0000 0.19960  0.95460  0.25580  Biso   1.000  H
  C42      1.0000 0.44300  0.11171  0.21598  Biso   1.000  C
  H26      1.0000 0.40070  0.17020  0.26170  Biso   1.000  H
  C43      1.0000 0.56820  0.11730  0.15620  Biso   1.000  C
  H27      1.0000 0.60860  0.18030  0.16310  Biso   1.000  H
  C44      1.0000 0.97472  0.37376  0.66157  Biso   1.000  C
  C45      1.0000 0.84590  0.35293  0.70698  Biso   1.000  C
  H28      1.0000 0.76250  0.38440  0.68800  Biso   1.000  H
  C46      1.0000 0.96040  0.15571  0.88430  Biso   1.000  C
  C47      1.0000 0.96330  0.23535  0.80807  Biso   1.000  C
  C48      1.0000 0.09250  0.25660  0.76272  Biso   1.000  C
  H29      1.0000 0.17640  0.22340  0.78080  Biso   1.000  H
  C49      1.0000 0.09740  0.32720  0.69037  Biso   1.000  C
  H30      1.0000 0.18390  0.34300  0.66140  Biso   1.000  H
  C50      1.0000 0.83990  0.28554  0.78064  Biso   1.000  C
  H31      1.0000 0.75220  0.27410  0.81170  Biso   1.000  H
  C51      1.0000 0.21710  0.04606  0.35583  Biso   1.000  C
  H32      1.0000 0.26780  0.09850  0.36940  Biso   1.000  H
  C52      1.0000 0.10403  0.02269  0.42772  Biso   1.000  C
  C53      1.0000 0.09790  0.06047  0.51398  Biso   1.000  C
  H33      1.0000 0.16360  0.10140  0.52350  Biso   1.000  H
  C54      1.0000 0.00350  0.96180  0.41492  Biso   1.000  C
  H34      1.0000 0.00500  0.93630  0.35830  Biso   1.000  H
