data_image0
_cell_length_a       11.382
_cell_length_b       11.382
_cell_length_c       11.734
_cell_angle_alpha    90
_cell_angle_beta     90
_cell_angle_gamma    120

_symmetry_space_group_name_H-M    P 1
_symmetry_int_tables_number       1

loop_
  _symmetry_equiv_pos_as_xyz
  'x, y, z'

loop_
  _atom_site_label
  _atom_site_occupancy
  _atom_site_fract_x
  _atom_site_fract_y
  _atom_site_fract_z
  _atom_site_thermal_displace_type
  _atom_site_B_iso_or_equiv
  _atom_site_type_symbol
  Np1      1.0000 0.50744  0.89648  0.75000  Biso   1.000  Np
  Np2      1.0000 0.38904  0.49256  0.75000  Biso   1.000  Np
  Np3      1.0000 0.10352  0.61096  0.75000  Biso   1.000  Np
  Np4      1.0000 0.49256  0.10352  0.25000  Biso   1.000  Np
  Np5      1.0000 0.61096  0.50744  0.25000  Biso   1.000  Np
  Np6      1.0000 0.89648  0.38904  0.25000  Biso   1.000  Np
  C1       1.0000 0.49930  0.93690  0.47560  Biso   1.000  C
  C2       1.0000 0.43760  0.50070  0.47560  Biso   1.000  C
  C3       1.0000 0.06310  0.56240  0.47560  Biso   1.000  C
  C4       1.0000 0.50070  0.06310  0.97560  Biso   1.000  C
  C5       1.0000 0.56240  0.49930  0.97560  Biso   1.000  C
  C6       1.0000 0.93690  0.43760  0.97560  Biso   1.000  C
  C7       1.0000 0.50070  0.06310  0.52440  Biso   1.000  C
  C8       1.0000 0.56240  0.49930  0.52440  Biso   1.000  C
  C9       1.0000 0.93690  0.43760  0.52440  Biso   1.000  C
  C10      1.0000 0.49930  0.93690  0.02440  Biso   1.000  C
  C11      1.0000 0.43760  0.50070  0.02440  Biso   1.000  C
  C12      1.0000 0.06310  0.56240  0.02440  Biso   1.000  C
  O1       1.0000 0.50430  0.85600  0.54420  Biso   1.000  O
  O2       1.0000 0.51010  0.07600  0.63160  Biso   1.000  O
  O3       1.0000 0.35170  0.49570  0.54420  Biso   1.000  O
  O4       1.0000 0.56590  0.48990  0.63160  Biso   1.000  O
  O5       1.0000 0.14400  0.64830  0.54420  Biso   1.000  O
  O6       1.0000 0.92400  0.43410  0.63160  Biso   1.000  O
  O7       1.0000 0.49570  0.14400  0.04420  Biso   1.000  O
  O8       1.0000 0.48990  0.92400  0.13160  Biso   1.000  O
  O9       1.0000 0.64830  0.50430  0.04420  Biso   1.000  O
  O10      1.0000 0.43410  0.51010  0.13160  Biso   1.000  O
  O11      1.0000 0.85600  0.35170  0.04420  Biso   1.000  O
  O12      1.0000 0.07600  0.56590  0.13160  Biso   1.000  O
  O13      1.0000 0.49570  0.14400  0.45580  Biso   1.000  O
  O14      1.0000 0.48990  0.92400  0.36840  Biso   1.000  O
  O15      1.0000 0.64830  0.50430  0.45580  Biso   1.000  O
  O16      1.0000 0.43410  0.51010  0.36840  Biso   1.000  O
  O17      1.0000 0.85600  0.35170  0.45580  Biso   1.000  O
  O18      1.0000 0.07600  0.56590  0.36840  Biso   1.000  O
  O19      1.0000 0.50430  0.85600  0.95580  Biso   1.000  O
  O20      1.0000 0.51010  0.07600  0.86840  Biso   1.000  O
  O21      1.0000 0.35170  0.49570  0.95580  Biso   1.000  O
  O22      1.0000 0.56590  0.48990  0.86840  Biso   1.000  O
  O23      1.0000 0.14400  0.64830  0.95580  Biso   1.000  O
  O24      1.0000 0.92400  0.43410  0.86840  Biso   1.000  O
  O25      1.0000 0.31660  0.81290  0.75000  Biso   1.000  O
  O26      1.0000 0.69230  0.98110  0.75000  Biso   1.000  O
  O27      1.0000 0.49630  0.68340  0.75000  Biso   1.000  O
  O28      1.0000 0.28880  0.30770  0.75000  Biso   1.000  O
  O29      1.0000 0.18710  0.50370  0.75000  Biso   1.000  O
  O30      1.0000 0.01890  0.71120  0.75000  Biso   1.000  O
  O31      1.0000 0.68340  0.18710  0.25000  Biso   1.000  O
  O32      1.0000 0.30770  0.01890  0.25000  Biso   1.000  O
  O33      1.0000 0.50370  0.31660  0.25000  Biso   1.000  O
  O34      1.0000 0.71120  0.69230  0.25000  Biso   1.000  O
  O35      1.0000 0.81290  0.49630  0.25000  Biso   1.000  O
  O36      1.0000 0.98110  0.28880  0.25000  Biso   1.000  O
