data_image0
_cell_length_a       16.2799
_cell_length_b       7.2214
_cell_length_c       24.2716
_cell_angle_alpha    90
_cell_angle_beta     116.419
_cell_angle_gamma    90

_symmetry_space_group_name_H-M    "P 1"
_symmetry_int_tables_number       1

loop_
  _symmetry_equiv_pos_as_xyz
  'x, y, z'

loop_
  _atom_site_label
  _atom_site_occupancy
  _atom_site_fract_x
  _atom_site_fract_y
  _atom_site_fract_z
  _atom_site_thermal_displace_type
  _atom_site_B_iso_or_equiv
  _atom_site_type_symbol
  Co1      1.0000 0.44146  0.16272  0.98468  Biso   1.000  Co
  F1       1.0000 0.94483  0.33180  0.88846  Biso   1.000  F
  F2       1.0000 0.91190  0.47310  0.80375  Biso   1.000  F
  F3       1.0000 0.82643  0.25380  0.80654  Biso   1.000  F
  F4       1.0000 0.94566  0.74510  0.88884  Biso   1.000  F
  F5       1.0000 0.92151  0.59540  0.95639  Biso   1.000  F
  F6       1.0000 0.83314  0.81981  0.90781  Biso   1.000  F
  O1       1.0000 0.51880  0.29850  0.95171  Biso   1.000  O
  O2       1.0000 0.52486  0.77140  0.57305  Biso   1.000  O
  O3       1.0000 0.61477  0.02160  0.59776  Biso   1.000  O
  O4       1.0000 0.61142  0.05230  0.98107  Biso   1.000  O
  N1       1.0000 0.32734  0.32460  0.96340  Biso   1.000  N
  N2       1.0000 0.21971  0.53240  0.91657  Biso   1.000  N
  C1       1.0000 0.03993  0.75500  0.77963  Biso   1.000  C
  C2       1.0000 0.06064  0.94080  0.79518  Biso   1.000  C
  C3       1.0000 0.13343  0.99780  0.84916  Biso   1.000  C
  H1       1.0000 0.14630  0.12270  0.85830  Biso   1.000  H
  C4       1.0000 0.18627  0.86120  0.88896  Biso   1.000  C
  H2       1.0000 0.23570  0.89370  0.92590  Biso   1.000  H
  C5       1.0000 0.16604  0.67500  0.87405  Biso   1.000  C
  C6       1.0000 0.09396  0.61930  0.81961  Biso   1.000  C
  H3       1.0000 0.08210  0.49440  0.81010  Biso   1.000  H
  C7       1.0000 0.30334  0.47020  0.92697  Biso   1.000  C
  H4       1.0000 0.33960  0.52340  0.91050  Biso   1.000  H
  C8       1.0000 0.25588  0.29340  0.97784  Biso   1.000  C
  H5       1.0000 0.25370  0.19930  0.00330  Biso   1.000  H
  C9       1.0000 0.18931  0.42010  0.94935  Biso   1.000  C
  H6       1.0000 0.13380  0.42950  0.95150  Biso   1.000  H
  C10      1.0000 0.58765  0.20850  0.95598  Biso   1.000  C
  C11      1.0000 0.64635  0.29440  0.92938  Biso   1.000  C
  C12      1.0000 0.62506  0.46550  0.90082  Biso   1.000  C
  H7       1.0000 0.57440  0.53070  0.89870  Biso   1.000  H
  C13      1.0000 0.67899  0.54000  0.87540  Biso   1.000  C
  H8       1.0000 0.66360  0.65460  0.85590  Biso   1.000  H
  C14      1.0000 0.75523  0.44710  0.87851  Biso   1.000  C
  C15      1.0000 0.77775  0.27770  0.90869  Biso   1.000  C
  H9       1.0000 0.82980  0.21480  0.91240  Biso   1.000  H
  C16      1.0000 0.72357  0.20210  0.93328  Biso   1.000  C
  H10      1.0000 0.73900  0.08760  0.95280  Biso   1.000  H
  C17      1.0000 0.81508  0.54080  0.85158  Biso   1.000  C
  C18      1.0000 0.75499  0.63810  0.78984  Biso   1.000  C
  C19      1.0000 0.59065  0.86780  0.60976  Biso   1.000  C
  C20      1.0000 0.64634  0.78910  0.67323  Biso   1.000  C
  C21      1.0000 0.71855  0.88880  0.71723  Biso   1.000  C
  H11      1.0000 0.73070  0.00770  0.70800  Biso   1.000  H
  C22      1.0000 0.77286  0.81420  0.77460  Biso   1.000  C
  H12      1.0000 0.82170  0.88230  0.80320  Biso   1.000  H
  C23      1.0000 0.68195  0.53920  0.74581  Biso   1.000  C
  H13      1.0000 0.66870  0.42150  0.75530  Biso   1.000  H
  C24      1.0000 0.62882  0.61310  0.68827  Biso   1.000  C
  H14      1.0000 0.58080  0.54410  0.65930  Biso   1.000  H
  C25      1.0000 0.87941  0.67560  0.90115  Biso   1.000  C
  C26      1.0000 0.87497  0.39840  0.83790  Biso   1.000  C
  Co2      1.0000 0.55854  0.16272  0.51532  Biso   1.000  Co
  F7       1.0000 0.05517  0.33180  0.61154  Biso   1.000  F
  F8       1.0000 0.08810  0.47310  0.69625  Biso   1.000  F
  F9       1.0000 0.17357  0.25380  0.69346  Biso   1.000  F
  F10      1.0000 0.05434  0.74510  0.61116  Biso   1.000  F
  F11      1.0000 0.07849  0.59540  0.54361  Biso   1.000  F
  F12      1.0000 0.16686  0.81981  0.59219  Biso   1.000  F
  O5       1.0000 0.48120  0.29850  0.54829  Biso   1.000  O
  O6       1.0000 0.47514  0.77140  0.92695  Biso   1.000  O
  O7       1.0000 0.38523  0.02160  0.90224  Biso   1.000  O
  O8       1.0000 0.38858  0.05230  0.51893  Biso   1.000  O
  N3       1.0000 0.67266  0.32460  0.53660  Biso   1.000  N
  N4       1.0000 0.78029  0.53240  0.58343  Biso   1.000  N
  C27      1.0000 0.96007  0.75500  0.72037  Biso   1.000  C
  C28      1.0000 0.93936  0.94080  0.70482  Biso   1.000  C
  C29      1.0000 0.86657  0.99780  0.65084  Biso   1.000  C
  H15      1.0000 0.85370  0.12270  0.64170  Biso   1.000  H
  C30      1.0000 0.81373  0.86120  0.61104  Biso   1.000  C
  H16      1.0000 0.76430  0.89370  0.57410  Biso   1.000  H
  C31      1.0000 0.83396  0.67500  0.62595  Biso   1.000  C
  C32      1.0000 0.90604  0.61930  0.68039  Biso   1.000  C
  H17      1.0000 0.91790  0.49440  0.68990  Biso   1.000  H
  C33      1.0000 0.69666  0.47020  0.57303  Biso   1.000  C
  H18      1.0000 0.66040  0.52340  0.58950  Biso   1.000  H
  C34      1.0000 0.74412  0.29340  0.52216  Biso   1.000  C
  H19      1.0000 0.74630  0.19930  0.49670  Biso   1.000  H
  C35      1.0000 0.81069  0.42010  0.55065  Biso   1.000  C
  H20      1.0000 0.86620  0.42950  0.54850  Biso   1.000  H
  C36      1.0000 0.41235  0.20850  0.54402  Biso   1.000  C
  C37      1.0000 0.35365  0.29440  0.57062  Biso   1.000  C
  C38      1.0000 0.37494  0.46550  0.59918  Biso   1.000  C
  H21      1.0000 0.42560  0.53070  0.60130  Biso   1.000  H
  C39      1.0000 0.32101  0.54000  0.62460  Biso   1.000  C
  H22      1.0000 0.33640  0.65460  0.64410  Biso   1.000  H
  C40      1.0000 0.24477  0.44710  0.62149  Biso   1.000  C
  C41      1.0000 0.22225  0.27770  0.59131  Biso   1.000  C
  H23      1.0000 0.17020  0.21480  0.58760  Biso   1.000  H
  C42      1.0000 0.27643  0.20210  0.56672  Biso   1.000  C
  H24      1.0000 0.26100  0.08760  0.54720  Biso   1.000  H
  C43      1.0000 0.18492  0.54080  0.64842  Biso   1.000  C
  C44      1.0000 0.24501  0.63810  0.71016  Biso   1.000  C
  C45      1.0000 0.40935  0.86780  0.89024  Biso   1.000  C
  C46      1.0000 0.35366  0.78910  0.82677  Biso   1.000  C
  C47      1.0000 0.28145  0.88880  0.78277  Biso   1.000  C
  H25      1.0000 0.26930  0.00770  0.79200  Biso   1.000  H
  C48      1.0000 0.22714  0.81420  0.72540  Biso   1.000  C
  H26      1.0000 0.17830  0.88230  0.69680  Biso   1.000  H
  C49      1.0000 0.31805  0.53920  0.75419  Biso   1.000  C
  H27      1.0000 0.33130  0.42150  0.74470  Biso   1.000  H
  C50      1.0000 0.37118  0.61310  0.81173  Biso   1.000  C
  H28      1.0000 0.41920  0.54410  0.84070  Biso   1.000  H
  C51      1.0000 0.12059  0.67560  0.59885  Biso   1.000  C
  C52      1.0000 0.12503  0.39840  0.66210  Biso   1.000  C
  Co3      1.0000 0.55854  0.83728  0.01532  Biso   1.000  Co
  F13      1.0000 0.05517  0.66820  0.11154  Biso   1.000  F
  F14      1.0000 0.08810  0.52690  0.19625  Biso   1.000  F
  F15      1.0000 0.17357  0.74620  0.19346  Biso   1.000  F
  F16      1.0000 0.05434  0.25490  0.11116  Biso   1.000  F
  F17      1.0000 0.07849  0.40460  0.04361  Biso   1.000  F
  F18      1.0000 0.16686  0.18019  0.09219  Biso   1.000  F
  O9       1.0000 0.48120  0.70150  0.04829  Biso   1.000  O
  O10      1.0000 0.47514  0.22860  0.42695  Biso   1.000  O
  O11      1.0000 0.38523  0.97840  0.40224  Biso   1.000  O
  O12      1.0000 0.38858  0.94770  0.01893  Biso   1.000  O
  N5       1.0000 0.67266  0.67540  0.03660  Biso   1.000  N
  N6       1.0000 0.78029  0.46760  0.08343  Biso   1.000  N
  C53      1.0000 0.96007  0.24500  0.22037  Biso   1.000  C
  C54      1.0000 0.93936  0.05920  0.20482  Biso   1.000  C
  C55      1.0000 0.86657  0.00220  0.15084  Biso   1.000  C
  H29      1.0000 0.85370  0.87730  0.14170  Biso   1.000  H
  C56      1.0000 0.81373  0.13880  0.11104  Biso   1.000  C
  H30      1.0000 0.76430  0.10630  0.07410  Biso   1.000  H
  C57      1.0000 0.83396  0.32500  0.12595  Biso   1.000  C
  C58      1.0000 0.90604  0.38070  0.18039  Biso   1.000  C
  H31      1.0000 0.91790  0.50560  0.18990  Biso   1.000  H
  C59      1.0000 0.69666  0.52980  0.07303  Biso   1.000  C
  H32      1.0000 0.66040  0.47660  0.08950  Biso   1.000  H
  C60      1.0000 0.74412  0.70660  0.02216  Biso   1.000  C
  H33      1.0000 0.74630  0.80070  0.99670  Biso   1.000  H
  C61      1.0000 0.81069  0.57990  0.05065  Biso   1.000  C
  H34      1.0000 0.86620  0.57050  0.04850  Biso   1.000  H
  C62      1.0000 0.41235  0.79150  0.04402  Biso   1.000  C
  C63      1.0000 0.35365  0.70560  0.07062  Biso   1.000  C
  C64      1.0000 0.37494  0.53450  0.09918  Biso   1.000  C
  H35      1.0000 0.42560  0.46930  0.10130  Biso   1.000  H
  C65      1.0000 0.32101  0.46000  0.12460  Biso   1.000  C
  H36      1.0000 0.33640  0.34540  0.14410  Biso   1.000  H
  C66      1.0000 0.24477  0.55290  0.12149  Biso   1.000  C
  C67      1.0000 0.22225  0.72230  0.09131  Biso   1.000  C
  H37      1.0000 0.17020  0.78520  0.08760  Biso   1.000  H
  C68      1.0000 0.27643  0.79790  0.06672  Biso   1.000  C
  H38      1.0000 0.26100  0.91240  0.04720  Biso   1.000  H
  C69      1.0000 0.18492  0.45920  0.14842  Biso   1.000  C
  C70      1.0000 0.24501  0.36190  0.21016  Biso   1.000  C
  C71      1.0000 0.40935  0.13220  0.39024  Biso   1.000  C
  C72      1.0000 0.35366  0.21090  0.32677  Biso   1.000  C
  C73      1.0000 0.28145  0.11120  0.28277  Biso   1.000  C
  H39      1.0000 0.26930  0.99230  0.29200  Biso   1.000  H
  C74      1.0000 0.22714  0.18580  0.22540  Biso   1.000  C
  H40      1.0000 0.17830  0.11770  0.19680  Biso   1.000  H
  C75      1.0000 0.31805  0.46080  0.25419  Biso   1.000  C
  H41      1.0000 0.33130  0.57850  0.24470  Biso   1.000  H
  C76      1.0000 0.37118  0.38690  0.31173  Biso   1.000  C
  H42      1.0000 0.41920  0.45590  0.34070  Biso   1.000  H
  C77      1.0000 0.12059  0.32440  0.09885  Biso   1.000  C
  C78      1.0000 0.12503  0.60160  0.16210  Biso   1.000  C
  Co4      1.0000 0.44146  0.83728  0.48468  Biso   1.000  Co
  F19      1.0000 0.94483  0.66820  0.38846  Biso   1.000  F
  F20      1.0000 0.91190  0.52690  0.30375  Biso   1.000  F
  F21      1.0000 0.82643  0.74620  0.30654  Biso   1.000  F
  F22      1.0000 0.94566  0.25490  0.38884  Biso   1.000  F
  F23      1.0000 0.92151  0.40460  0.45639  Biso   1.000  F
  F24      1.0000 0.83314  0.18019  0.40781  Biso   1.000  F
  O13      1.0000 0.51880  0.70150  0.45171  Biso   1.000  O
  O14      1.0000 0.52486  0.22860  0.07305  Biso   1.000  O
  O15      1.0000 0.61477  0.97840  0.09776  Biso   1.000  O
  O16      1.0000 0.61142  0.94770  0.48107  Biso   1.000  O
  N7       1.0000 0.32734  0.67540  0.46340  Biso   1.000  N
  N8       1.0000 0.21971  0.46760  0.41657  Biso   1.000  N
  C79      1.0000 0.03993  0.24500  0.27963  Biso   1.000  C
  C80      1.0000 0.06064  0.05920  0.29518  Biso   1.000  C
  C81      1.0000 0.13343  0.00220  0.34916  Biso   1.000  C
  H43      1.0000 0.14630  0.87730  0.35830  Biso   1.000  H
  C82      1.0000 0.18627  0.13880  0.38896  Biso   1.000  C
  H44      1.0000 0.23570  0.10630  0.42590  Biso   1.000  H
  C83      1.0000 0.16604  0.32500  0.37405  Biso   1.000  C
  C84      1.0000 0.09396  0.38070  0.31961  Biso   1.000  C
  H45      1.0000 0.08210  0.50560  0.31010  Biso   1.000  H
  C85      1.0000 0.30334  0.52980  0.42697  Biso   1.000  C
  H46      1.0000 0.33960  0.47660  0.41050  Biso   1.000  H
  C86      1.0000 0.25588  0.70660  0.47784  Biso   1.000  C
  H47      1.0000 0.25370  0.80070  0.50330  Biso   1.000  H
  C87      1.0000 0.18931  0.57990  0.44935  Biso   1.000  C
  H48      1.0000 0.13380  0.57050  0.45150  Biso   1.000  H
  C88      1.0000 0.58765  0.79150  0.45598  Biso   1.000  C
  C89      1.0000 0.64635  0.70560  0.42938  Biso   1.000  C
  C90      1.0000 0.62506  0.53450  0.40082  Biso   1.000  C
  H49      1.0000 0.57440  0.46930  0.39870  Biso   1.000  H
  C91      1.0000 0.67899  0.46000  0.37540  Biso   1.000  C
  H50      1.0000 0.66360  0.34540  0.35590  Biso   1.000  H
  C92      1.0000 0.75523  0.55290  0.37851  Biso   1.000  C
  C93      1.0000 0.77775  0.72230  0.40869  Biso   1.000  C
  H51      1.0000 0.82980  0.78520  0.41240  Biso   1.000  H
  C94      1.0000 0.72357  0.79790  0.43328  Biso   1.000  C
  H52      1.0000 0.73900  0.91240  0.45280  Biso   1.000  H
  C95      1.0000 0.81508  0.45920  0.35158  Biso   1.000  C
  C96      1.0000 0.75499  0.36190  0.28984  Biso   1.000  C
  C97      1.0000 0.59065  0.13220  0.10976  Biso   1.000  C
  C98      1.0000 0.64634  0.21090  0.17323  Biso   1.000  C
  C99      1.0000 0.71855  0.11120  0.21723  Biso   1.000  C
  H53      1.0000 0.73070  0.99230  0.20800  Biso   1.000  H
  C100     1.0000 0.77286  0.18580  0.27460  Biso   1.000  C
  H54      1.0000 0.82170  0.11770  0.30320  Biso   1.000  H
  C101     1.0000 0.68195  0.46080  0.24581  Biso   1.000  C
  H55      1.0000 0.66870  0.57850  0.25530  Biso   1.000  H
  C102     1.0000 0.62882  0.38690  0.18827  Biso   1.000  C
  H56      1.0000 0.58080  0.45590  0.15930  Biso   1.000  H
  C103     1.0000 0.87941  0.32440  0.40115  Biso   1.000  C
  C104     1.0000 0.87497  0.60160  0.33790  Biso   1.000  C
  O17      1.0000 0.00000  0.05730  0.75000  Biso   1.000  O
  O18      1.0000 0.00000  0.94270  0.25000  Biso   1.000  O
