data_image0
_cell_length_a       14.1522
_cell_length_b       21.2273
_cell_length_c       22.7075
_cell_angle_alpha    90
_cell_angle_beta     121.723
_cell_angle_gamma    90

_symmetry_space_group_name_H-M    "P 1"
_symmetry_int_tables_number       1

loop_
  _symmetry_equiv_pos_as_xyz
  'x, y, z'

loop_
  _atom_site_label
  _atom_site_occupancy
  _atom_site_fract_x
  _atom_site_fract_y
  _atom_site_fract_z
  _atom_site_thermal_displace_type
  _atom_site_B_iso_or_equiv
  _atom_site_type_symbol
  C1       1.0000 0.34810  0.73090  0.66340  Biso   1.000  C
  C2       1.0000 0.25950  0.68940  0.64080  Biso   1.000  C
  H1       1.0000 0.22630  0.68420  0.66660  Biso   1.000  H
  C3       1.0000 0.22050  0.65580  0.57980  Biso   1.000  C
  H2       1.0000 0.16120  0.62810  0.56470  Biso   1.000  H
  C4       1.0000 0.27010  0.66360  0.54120  Biso   1.000  C
  H3       1.0000 0.24400  0.64110  0.50040  Biso   1.000  H
  C5       1.0000 0.35870  0.70500  0.56380  Biso   1.000  C
  H4       1.0000 0.39190  0.71020  0.53800  Biso   1.000  H
  C6       1.0000 0.39770  0.73860  0.62480  Biso   1.000  C
  H5       1.0000 0.45690  0.76640  0.63990  Biso   1.000  H
  Cd1      1.0000 0.10008  0.09126  0.59803  Biso   1.000  Cd
  Cd2      1.0000 0.79212  0.97766  0.48943  Biso   1.000  Cd
  F1       1.0000 0.93400  0.11250  0.85420  Biso   1.000  F
  F2       1.0000 0.11200  0.11980  0.88370  Biso   1.000  F
  F3       1.0000 0.57250  0.88480  0.88050  Biso   1.000  F
  F4       1.0000 0.45010  0.84750  0.89740  Biso   1.000  F
  O1       1.0000 0.06220  0.40877  0.97000  Biso   1.000  O
  O2       1.0000 0.06850  0.32440  0.03000  Biso   1.000  O
  O3       1.0000 0.92060  0.06436  0.56257  Biso   1.000  O
  O4       1.0000 0.82070  0.01290  0.59560  Biso   1.000  O
  O5       1.0000 0.15720  0.98364  0.58611  Biso   1.000  O
  O6       1.0000 0.16930  0.01558  0.68240  Biso   1.000  O
  O7       1.0000 0.71450  0.59225  0.89040  Biso   1.000  O
  O8       1.0000 0.68730  0.61800  0.97460  Biso   1.000  O
  N1       1.0000 0.17880  0.16080  0.69050  Biso   1.000  N
  N2       1.0000 0.62150  0.47140  0.93560  Biso   1.000  N
  N3       1.0000 0.00690  0.21680  0.85950  Biso   1.000  N
  N4       1.0000 0.96820  0.14170  0.76510  Biso   1.000  N
  N5       1.0000 0.39600  0.86550  0.77820  Biso   1.000  N
  N6       1.0000 0.52280  0.77760  0.84600  Biso   1.000  N
  C7       1.0000 0.57650  0.45290  0.97090  Biso   1.000  C
  H6       1.0000 0.61900  0.45560  0.01890  Biso   1.000  H
  C8       1.0000 0.46740  0.42910  0.93970  Biso   1.000  C
  H7       1.0000 0.43860  0.41860  0.96700  Biso   1.000  H
  C9       1.0000 0.40440  0.42140  0.87010  Biso   1.000  C
  C10      1.0000 0.45180  0.43820  0.83320  Biso   1.000  C
  H8       1.0000 0.41350  0.43180  0.78560  Biso   1.000  H
  C11      1.0000 0.55720  0.46470  0.86700  Biso   1.000  C
  H9       1.0000 0.58480  0.47880  0.84010  Biso   1.000  H
  C12      1.0000 0.28740  0.39120  0.83540  Biso   1.000  C
  H10      1.0000 0.23590  0.42150  0.83500  Biso   1.000  H
  H11      1.0000 0.26230  0.38090  0.78770  Biso   1.000  H
  C13      1.0000 0.28590  0.33350  0.87130  Biso   1.000  C
  H12      1.0000 0.21000  0.31850  0.84950  Biso   1.000  H
  H13      1.0000 0.31130  0.34390  0.91900  Biso   1.000  H
  C14      1.0000 0.35780  0.28120  0.87040  Biso   1.000  C
  H14      1.0000 0.38420  0.25530  0.91140  Biso   1.000  H
  H15      1.0000 0.42210  0.29960  0.87240  Biso   1.000  H
  C15      1.0000 0.29700  0.23980  0.80670  Biso   1.000  C
  C16      1.0000 0.28180  0.25630  0.74280  Biso   1.000  C
  H16      1.0000 0.31210  0.29340  0.73810  Biso   1.000  H
  C17      1.0000 0.22040  0.21660  0.68600  Biso   1.000  C
  H17      1.0000 0.20770  0.22910  0.64310  Biso   1.000  H
  C18      1.0000 0.19730  0.14470  0.75270  Biso   1.000  C
  H18      1.0000 0.17180  0.10570  0.75720  Biso   1.000  H
  C19      1.0000 0.25220  0.18290  0.81070  Biso   1.000  C
  H19      1.0000 0.25900  0.17050  0.85200  Biso   1.000  H
  C20      1.0000 0.88590  0.05670  0.60370  Biso   1.000  C
  C21      1.0000 0.91900  0.10280  0.66060  Biso   1.000  C
  C22      1.0000 0.94930  0.08770  0.72830  Biso   1.000  C
  C23      1.0000 0.96580  0.02390  0.75930  Biso   1.000  C
  H20      1.0000 0.93840  0.02330  0.79010  Biso   1.000  H
  H21      1.0000 0.04350  0.01380  0.78470  Biso   1.000  H
  H22      1.0000 0.92620  0.99350  0.72320  Biso   1.000  H
  C24      1.0000 0.91700  0.16860  0.65500  Biso   1.000  C
  C25      1.0000 0.94820  0.19240  0.72080  Biso   1.000  C
  C26      1.0000 0.88450  0.20520  0.59060  Biso   1.000  C
  H23      1.0000 0.94980  0.22260  0.59400  Biso   1.000  H
  H24      1.0000 0.83510  0.23870  0.58540  Biso   1.000  H
  H25      1.0000 0.84790  0.17770  0.55120  Biso   1.000  H
  C27      1.0000 0.95770  0.25530  0.74520  Biso   1.000  C
  C28      1.0000 0.93320  0.30740  0.69850  Biso   1.000  C
  C29      1.0000 0.83250  0.33780  0.66980  Biso   1.000  C
  H26      1.0000 0.78040  0.32460  0.68030  Biso   1.000  H
  C30      1.0000 0.80800  0.38970  0.62380  Biso   1.000  C
  H27      1.0000 0.73930  0.40970  0.60260  Biso   1.000  H
  C31      1.0000 0.88620  0.40850  0.61210  Biso   1.000  C
  H28      1.0000 0.87110  0.44350  0.58390  Biso   1.000  H
  C32      1.0000 0.99330  0.37840  0.64010  Biso   1.000  C
  H29      1.0000 0.04610  0.39240  0.63040  Biso   1.000  H
  C33      1.0000 0.01070  0.32710  0.68240  Biso   1.000  C
  H30      1.0000 0.07700  0.30490  0.70090  Biso   1.000  H
  C34      1.0000 0.98740  0.26660  0.81420  Biso   1.000  C
  C35      1.0000 0.00500  0.32330  0.85050  Biso   1.000  C
  C36      1.0000 0.99890  0.38840  0.82430  Biso   1.000  C
  H31      1.0000 0.03290  0.38940  0.79720  Biso   1.000  H
  H32      1.0000 0.03740  0.41680  0.86270  Biso   1.000  H
  H33      1.0000 0.92260  0.40100  0.79610  Biso   1.000  H
  C37      1.0000 0.03210  0.30670  0.91770  Biso   1.000  C
  C38      1.0000 0.03120  0.24010  0.92130  Biso   1.000  C
  C39      1.0000 0.05790  0.20030  0.98170  Biso   1.000  C
  H34      1.0000 0.06120  0.15690  0.97090  Biso   1.000  H
  H35      1.0000 0.00140  0.20540  0.99260  Biso   1.000  H
  H36      1.0000 0.12850  0.21270  0.02070  Biso   1.000  H
  C40      1.0000 0.05590  0.34970  0.97560  Biso   1.000  C
  C41      1.0000 0.19350  0.97640  0.65000  Biso   1.000  C
  C42      1.0000 0.26540  0.92270  0.68860  Biso   1.000  C
  C43      1.0000 0.34030  0.92160  0.76130  Biso   1.000  C
  C44      1.0000 0.36060  0.97340  0.81140  Biso   1.000  C
  H37      1.0000 0.30280  0.97320  0.82150  Biso   1.000  H
  H38      1.0000 0.36110  0.01320  0.79140  Biso   1.000  H
  H39      1.0000 0.43110  0.96690  0.85330  Biso   1.000  H
  C45      1.0000 0.27820  0.86580  0.66190  Biso   1.000  C
  C46      1.0000 0.22010  0.84680  0.58790  Biso   1.000  C
  H40      1.0000 0.27370  0.83970  0.57490  Biso   1.000  H
  H41      1.0000 0.17010  0.87970  0.55970  Biso   1.000  H
  H42      1.0000 0.17890  0.80880  0.58140  Biso   1.000  H
  C47      1.0000 0.35760  0.83040  0.71770  Biso   1.000  C
  C48      1.0000 0.48540  0.74390  0.78510  Biso   1.000  C
  C49      1.0000 0.59760  0.74140  0.90070  Biso   1.000  C
  C50      1.0000 0.65690  0.76120  0.97490  Biso   1.000  C
  H43      1.0000 0.69270  0.80100  0.98010  Biso   1.000  H
  H44      1.0000 0.71170  0.73010  0.00300  Biso   1.000  H
  H45      1.0000 0.60450  0.76520  0.98940  Biso   1.000  H
  C51      1.0000 0.60720  0.68350  0.87470  Biso   1.000  C
  C52      1.0000 0.67420  0.62840  0.91610  Biso   1.000  C
  C53      1.0000 0.53770  0.68570  0.80190  Biso   1.000  C
  C54      1.0000 0.52150  0.63440  0.75220  Biso   1.000  C
  H46      1.0000 0.44460  0.63250  0.71590  Biso   1.000  H
  H47      1.0000 0.54350  0.59480  0.77620  Biso   1.000  H
  H48      1.0000 0.56600  0.64300  0.73260  Biso   1.000  H
  C55      1.0000 0.39910  0.76820  0.71740  Biso   1.000  C
  B1       1.0000 0.00330  0.14690  0.84110  Biso   1.000  B
  B2       1.0000 0.48520  0.84280  0.84810  Biso   1.000  B
  C56      1.0000 0.65190  0.23090  0.83660  Biso   1.000  C
  C57      1.0000 0.74050  0.18940  0.85920  Biso   1.000  C
  H49      1.0000 0.77370  0.18420  0.83340  Biso   1.000  H
  C58      1.0000 0.77950  0.15580  0.92020  Biso   1.000  C
  H50      1.0000 0.83880  0.12810  0.93530  Biso   1.000  H
  C59      1.0000 0.72990  0.16360  0.95880  Biso   1.000  C
  H51      1.0000 0.75600  0.14110  0.99960  Biso   1.000  H
  C60      1.0000 0.64130  0.20500  0.93620  Biso   1.000  C
  H52      1.0000 0.60810  0.21020  0.96200  Biso   1.000  H
  C61      1.0000 0.60230  0.23860  0.87520  Biso   1.000  C
  H53      1.0000 0.54310  0.26640  0.86010  Biso   1.000  H
  Cd3      1.0000 0.89992  0.59126  0.90197  Biso   1.000  Cd
  Cd4      1.0000 0.20788  0.47766  0.01057  Biso   1.000  Cd
  F5       1.0000 0.06600  0.61250  0.64580  Biso   1.000  F
  F6       1.0000 0.88800  0.61980  0.61630  Biso   1.000  F
  F7       1.0000 0.42750  0.38480  0.61950  Biso   1.000  F
  F8       1.0000 0.54990  0.34750  0.60260  Biso   1.000  F
  O9       1.0000 0.93780  0.90877  0.53000  Biso   1.000  O
  O10      1.0000 0.93150  0.82440  0.47000  Biso   1.000  O
  O11      1.0000 0.07940  0.56436  0.93743  Biso   1.000  O
  O12      1.0000 0.17930  0.51290  0.90440  Biso   1.000  O
  O13      1.0000 0.84280  0.48364  0.91389  Biso   1.000  O
  O14      1.0000 0.83070  0.51558  0.81760  Biso   1.000  O
  O15      1.0000 0.28550  0.09225  0.60960  Biso   1.000  O
  O16      1.0000 0.31270  0.11800  0.52540  Biso   1.000  O
  N7       1.0000 0.82120  0.66080  0.80950  Biso   1.000  N
  N8       1.0000 0.37850  0.97140  0.56440  Biso   1.000  N
  N9       1.0000 0.99310  0.71680  0.64050  Biso   1.000  N
  N10      1.0000 0.03180  0.64170  0.73490  Biso   1.000  N
  N11      1.0000 0.60400  0.36550  0.72180  Biso   1.000  N
  N12      1.0000 0.47720  0.27760  0.65400  Biso   1.000  N
  C62      1.0000 0.42350  0.95290  0.52910  Biso   1.000  C
  H54      1.0000 0.38100  0.95560  0.48110  Biso   1.000  H
  C63      1.0000 0.53260  0.92910  0.56030  Biso   1.000  C
  H55      1.0000 0.56140  0.91860  0.53300  Biso   1.000  H
  C64      1.0000 0.59560  0.92140  0.62990  Biso   1.000  C
  C65      1.0000 0.54820  0.93820  0.66680  Biso   1.000  C
  H56      1.0000 0.58650  0.93180  0.71440  Biso   1.000  H
  C66      1.0000 0.44280  0.96470  0.63300  Biso   1.000  C
  H57      1.0000 0.41520  0.97880  0.65990  Biso   1.000  H
  C67      1.0000 0.71260  0.89120  0.66460  Biso   1.000  C
  H58      1.0000 0.76410  0.92150  0.66500  Biso   1.000  H
  H59      1.0000 0.73770  0.88090  0.71230  Biso   1.000  H
  C68      1.0000 0.71410  0.83350  0.62870  Biso   1.000  C
  H60      1.0000 0.79000  0.81850  0.65050  Biso   1.000  H
  H61      1.0000 0.68870  0.84390  0.58100  Biso   1.000  H
  C69      1.0000 0.64220  0.78120  0.62960  Biso   1.000  C
  H62      1.0000 0.61580  0.75530  0.58860  Biso   1.000  H
  H63      1.0000 0.57790  0.79960  0.62760  Biso   1.000  H
  C70      1.0000 0.70300  0.73980  0.69330  Biso   1.000  C
  C71      1.0000 0.71820  0.75630  0.75720  Biso   1.000  C
  H64      1.0000 0.68790  0.79340  0.76190  Biso   1.000  H
  C72      1.0000 0.77960  0.71660  0.81400  Biso   1.000  C
  H65      1.0000 0.79230  0.72910  0.85690  Biso   1.000  H
  C73      1.0000 0.80270  0.64470  0.74730  Biso   1.000  C
  H66      1.0000 0.82820  0.60570  0.74280  Biso   1.000  H
  C74      1.0000 0.74780  0.68290  0.68930  Biso   1.000  C
  H67      1.0000 0.74100  0.67050  0.64800  Biso   1.000  H
  C75      1.0000 0.11410  0.55670  0.89630  Biso   1.000  C
  C76      1.0000 0.08100  0.60280  0.83940  Biso   1.000  C
  C77      1.0000 0.05070  0.58770  0.77170  Biso   1.000  C
  C78      1.0000 0.03420  0.52390  0.74070  Biso   1.000  C
  H68      1.0000 0.06160  0.52330  0.70990  Biso   1.000  H
  H69      1.0000 0.95650  0.51380  0.71530  Biso   1.000  H
  H70      1.0000 0.07380  0.49350  0.77680  Biso   1.000  H
  C79      1.0000 0.08300  0.66860  0.84500  Biso   1.000  C
  C80      1.0000 0.05180  0.69240  0.77920  Biso   1.000  C
  C81      1.0000 0.11550  0.70520  0.90940  Biso   1.000  C
  H71      1.0000 0.05020  0.72260  0.90600  Biso   1.000  H
  H72      1.0000 0.16490  0.73870  0.91460  Biso   1.000  H
  H73      1.0000 0.15210  0.67770  0.94880  Biso   1.000  H
  C82      1.0000 0.04230  0.75530  0.75480  Biso   1.000  C
  C83      1.0000 0.06680  0.80740  0.80150  Biso   1.000  C
  C84      1.0000 0.16750  0.83780  0.83020  Biso   1.000  C
  H74      1.0000 0.21960  0.82460  0.81970  Biso   1.000  H
  C85      1.0000 0.19200  0.88970  0.87620  Biso   1.000  C
  H75      1.0000 0.26070  0.90970  0.89740  Biso   1.000  H
  C86      1.0000 0.11380  0.90850  0.88790  Biso   1.000  C
  H76      1.0000 0.12890  0.94350  0.91610  Biso   1.000  H
  C87      1.0000 0.00670  0.87840  0.85990  Biso   1.000  C
  H77      1.0000 0.95390  0.89240  0.86960  Biso   1.000  H
  C88      1.0000 0.98930  0.82710  0.81760  Biso   1.000  C
  H78      1.0000 0.92300  0.80490  0.79910  Biso   1.000  H
  C89      1.0000 0.01260  0.76660  0.68580  Biso   1.000  C
  C90      1.0000 0.99500  0.82330  0.64950  Biso   1.000  C
  C91      1.0000 0.00110  0.88840  0.67570  Biso   1.000  C
  H79      1.0000 0.96710  0.88940  0.70280  Biso   1.000  H
  H80      1.0000 0.96260  0.91680  0.63730  Biso   1.000  H
  H81      1.0000 0.07740  0.90100  0.70390  Biso   1.000  H
  C92      1.0000 0.96790  0.80670  0.58230  Biso   1.000  C
  C93      1.0000 0.96880  0.74010  0.57870  Biso   1.000  C
  C94      1.0000 0.94210  0.70030  0.51830  Biso   1.000  C
  H82      1.0000 0.93880  0.65690  0.52910  Biso   1.000  H
  H83      1.0000 0.99860  0.70540  0.50740  Biso   1.000  H
  H84      1.0000 0.87150  0.71270  0.47930  Biso   1.000  H
  C95      1.0000 0.94410  0.84970  0.52440  Biso   1.000  C
  C96      1.0000 0.80650  0.47640  0.85000  Biso   1.000  C
  C97      1.0000 0.73460  0.42270  0.81140  Biso   1.000  C
  C98      1.0000 0.65970  0.42160  0.73870  Biso   1.000  C
  C99      1.0000 0.63940  0.47340  0.68860  Biso   1.000  C
  H85      1.0000 0.69720  0.47320  0.67850  Biso   1.000  H
  H86      1.0000 0.63890  0.51320  0.70860  Biso   1.000  H
  H87      1.0000 0.56890  0.46690  0.64670  Biso   1.000  H
  C100     1.0000 0.72180  0.36580  0.83810  Biso   1.000  C
  C101     1.0000 0.77990  0.34680  0.91210  Biso   1.000  C
  H88      1.0000 0.72630  0.33970  0.92510  Biso   1.000  H
  H89      1.0000 0.82990  0.37970  0.94030  Biso   1.000  H
  H90      1.0000 0.82110  0.30880  0.91860  Biso   1.000  H
  C102     1.0000 0.64240  0.33040  0.78230  Biso   1.000  C
  C103     1.0000 0.51460  0.24390  0.71490  Biso   1.000  C
  C104     1.0000 0.40240  0.24140  0.59930  Biso   1.000  C
  C105     1.0000 0.34310  0.26120  0.52510  Biso   1.000  C
  H91      1.0000 0.30730  0.30100  0.51990  Biso   1.000  H
  H92      1.0000 0.28830  0.23010  0.49700  Biso   1.000  H
  H93      1.0000 0.39550  0.26520  0.51060  Biso   1.000  H
  C106     1.0000 0.39280  0.18350  0.62530  Biso   1.000  C
  C107     1.0000 0.32580  0.12840  0.58390  Biso   1.000  C
  C108     1.0000 0.46230  0.18570  0.69810  Biso   1.000  C
  C109     1.0000 0.47850  0.13440  0.74780  Biso   1.000  C
  H94      1.0000 0.55540  0.13250  0.78410  Biso   1.000  H
  H95      1.0000 0.45650  0.09480  0.72380  Biso   1.000  H
  H96      1.0000 0.43400  0.14300  0.76740  Biso   1.000  H
  C110     1.0000 0.60090  0.26820  0.78260  Biso   1.000  C
  B3       1.0000 0.99670  0.64690  0.65890  Biso   1.000  B
  B4       1.0000 0.51480  0.34280  0.65190  Biso   1.000  B
  C111     1.0000 0.65190  0.26910  0.33660  Biso   1.000  C
  C112     1.0000 0.74050  0.31060  0.35920  Biso   1.000  C
  H97      1.0000 0.77370  0.31580  0.33340  Biso   1.000  H
  C113     1.0000 0.77950  0.34420  0.42020  Biso   1.000  C
  H98      1.0000 0.83880  0.37190  0.43530  Biso   1.000  H
  C114     1.0000 0.72990  0.33640  0.45880  Biso   1.000  C
  H99      1.0000 0.75600  0.35890  0.49960  Biso   1.000  H
  C115     1.0000 0.64130  0.29500  0.43620  Biso   1.000  C
  H100     1.0000 0.60810  0.28980  0.46200  Biso   1.000  H
  C116     1.0000 0.60230  0.26140  0.37520  Biso   1.000  C
  H101     1.0000 0.54310  0.23360  0.36010  Biso   1.000  H
  Cd5      1.0000 0.89992  0.90874  0.40197  Biso   1.000  Cd
  Cd6      1.0000 0.20788  0.02234  0.51057  Biso   1.000  Cd
  F9       1.0000 0.06600  0.88750  0.14580  Biso   1.000  F
  F10      1.0000 0.88800  0.88020  0.11630  Biso   1.000  F
  F11      1.0000 0.42750  0.11520  0.11950  Biso   1.000  F
  F12      1.0000 0.54990  0.15250  0.10260  Biso   1.000  F
  O17      1.0000 0.93780  0.59123  0.03000  Biso   1.000  O
  O18      1.0000 0.93150  0.67560  0.97000  Biso   1.000  O
  O19      1.0000 0.07940  0.93564  0.43743  Biso   1.000  O
  O20      1.0000 0.17930  0.98710  0.40440  Biso   1.000  O
  O21      1.0000 0.84280  0.01636  0.41389  Biso   1.000  O
  O22      1.0000 0.83070  0.98442  0.31760  Biso   1.000  O
  O23      1.0000 0.28550  0.40775  0.10960  Biso   1.000  O
  O24      1.0000 0.31270  0.38200  0.02540  Biso   1.000  O
  N13      1.0000 0.82120  0.83920  0.30950  Biso   1.000  N
  N14      1.0000 0.37850  0.52860  0.06440  Biso   1.000  N
  N15      1.0000 0.99310  0.78320  0.14050  Biso   1.000  N
  N16      1.0000 0.03180  0.85830  0.23490  Biso   1.000  N
  N17      1.0000 0.60400  0.13450  0.22180  Biso   1.000  N
  N18      1.0000 0.47720  0.22240  0.15400  Biso   1.000  N
  C117     1.0000 0.42350  0.54710  0.02910  Biso   1.000  C
  H102     1.0000 0.38100  0.54440  0.98110  Biso   1.000  H
  C118     1.0000 0.53260  0.57090  0.06030  Biso   1.000  C
  H103     1.0000 0.56140  0.58140  0.03300  Biso   1.000  H
  C119     1.0000 0.59560  0.57860  0.12990  Biso   1.000  C
  C120     1.0000 0.54820  0.56180  0.16680  Biso   1.000  C
  H104     1.0000 0.58650  0.56820  0.21440  Biso   1.000  H
  C121     1.0000 0.44280  0.53530  0.13300  Biso   1.000  C
  H105     1.0000 0.41520  0.52120  0.15990  Biso   1.000  H
  C122     1.0000 0.71260  0.60880  0.16460  Biso   1.000  C
  H106     1.0000 0.76410  0.57850  0.16500  Biso   1.000  H
  H107     1.0000 0.73770  0.61910  0.21230  Biso   1.000  H
  C123     1.0000 0.71410  0.66650  0.12870  Biso   1.000  C
  H108     1.0000 0.79000  0.68150  0.15050  Biso   1.000  H
  H109     1.0000 0.68870  0.65610  0.08100  Biso   1.000  H
  C124     1.0000 0.64220  0.71880  0.12960  Biso   1.000  C
  H110     1.0000 0.61580  0.74470  0.08860  Biso   1.000  H
  H111     1.0000 0.57790  0.70040  0.12760  Biso   1.000  H
  C125     1.0000 0.70300  0.76020  0.19330  Biso   1.000  C
  C126     1.0000 0.71820  0.74370  0.25720  Biso   1.000  C
  H112     1.0000 0.68790  0.70660  0.26190  Biso   1.000  H
  C127     1.0000 0.77960  0.78340  0.31400  Biso   1.000  C
  H113     1.0000 0.79230  0.77090  0.35690  Biso   1.000  H
  C128     1.0000 0.80270  0.85530  0.24730  Biso   1.000  C
  H114     1.0000 0.82820  0.89430  0.24280  Biso   1.000  H
  C129     1.0000 0.74780  0.81710  0.18930  Biso   1.000  C
  H115     1.0000 0.74100  0.82950  0.14800  Biso   1.000  H
  C130     1.0000 0.11410  0.94330  0.39630  Biso   1.000  C
  C131     1.0000 0.08100  0.89720  0.33940  Biso   1.000  C
  C132     1.0000 0.05070  0.91230  0.27170  Biso   1.000  C
  C133     1.0000 0.03420  0.97610  0.24070  Biso   1.000  C
  H116     1.0000 0.06160  0.97670  0.20990  Biso   1.000  H
  H117     1.0000 0.95650  0.98620  0.21530  Biso   1.000  H
  H118     1.0000 0.07380  0.00650  0.27680  Biso   1.000  H
  C134     1.0000 0.08300  0.83140  0.34500  Biso   1.000  C
  C135     1.0000 0.05180  0.80760  0.27920  Biso   1.000  C
  C136     1.0000 0.11550  0.79480  0.40940  Biso   1.000  C
  H119     1.0000 0.05020  0.77740  0.40600  Biso   1.000  H
  H120     1.0000 0.16490  0.76130  0.41460  Biso   1.000  H
  H121     1.0000 0.15210  0.82230  0.44880  Biso   1.000  H
  C137     1.0000 0.04230  0.74470  0.25480  Biso   1.000  C
  C138     1.0000 0.06680  0.69260  0.30150  Biso   1.000  C
  C139     1.0000 0.16750  0.66220  0.33020  Biso   1.000  C
  H122     1.0000 0.21960  0.67540  0.31970  Biso   1.000  H
  C140     1.0000 0.19200  0.61030  0.37620  Biso   1.000  C
  H123     1.0000 0.26070  0.59030  0.39740  Biso   1.000  H
  C141     1.0000 0.11380  0.59150  0.38790  Biso   1.000  C
  H124     1.0000 0.12890  0.55650  0.41610  Biso   1.000  H
  C142     1.0000 0.00670  0.62160  0.35990  Biso   1.000  C
  H125     1.0000 0.95390  0.60760  0.36960  Biso   1.000  H
  C143     1.0000 0.98930  0.67290  0.31760  Biso   1.000  C
  H126     1.0000 0.92300  0.69510  0.29910  Biso   1.000  H
  C144     1.0000 0.01260  0.73340  0.18580  Biso   1.000  C
  C145     1.0000 0.99500  0.67670  0.14950  Biso   1.000  C
  C146     1.0000 0.00110  0.61160  0.17570  Biso   1.000  C
  H127     1.0000 0.96710  0.61060  0.20280  Biso   1.000  H
  H128     1.0000 0.96260  0.58320  0.13730  Biso   1.000  H
  H129     1.0000 0.07740  0.59900  0.20390  Biso   1.000  H
  C147     1.0000 0.96790  0.69330  0.08230  Biso   1.000  C
  C148     1.0000 0.96880  0.75990  0.07870  Biso   1.000  C
  C149     1.0000 0.94210  0.79970  0.01830  Biso   1.000  C
  H130     1.0000 0.93880  0.84310  0.02910  Biso   1.000  H
  H131     1.0000 0.99860  0.79460  0.00740  Biso   1.000  H
  H132     1.0000 0.87150  0.78730  0.97930  Biso   1.000  H
  C150     1.0000 0.94410  0.65030  0.02440  Biso   1.000  C
  C151     1.0000 0.80650  0.02360  0.35000  Biso   1.000  C
  C152     1.0000 0.73460  0.07730  0.31140  Biso   1.000  C
  C153     1.0000 0.65970  0.07840  0.23870  Biso   1.000  C
  C154     1.0000 0.63940  0.02660  0.18860  Biso   1.000  C
  H133     1.0000 0.69720  0.02680  0.17850  Biso   1.000  H
  H134     1.0000 0.63890  0.98680  0.20860  Biso   1.000  H
  H135     1.0000 0.56890  0.03310  0.14670  Biso   1.000  H
  C155     1.0000 0.72180  0.13420  0.33810  Biso   1.000  C
  C156     1.0000 0.77990  0.15320  0.41210  Biso   1.000  C
  H136     1.0000 0.72630  0.16030  0.42510  Biso   1.000  H
  H137     1.0000 0.82990  0.12030  0.44030  Biso   1.000  H
  H138     1.0000 0.82110  0.19120  0.41860  Biso   1.000  H
  C157     1.0000 0.64240  0.16960  0.28230  Biso   1.000  C
  C158     1.0000 0.51460  0.25610  0.21490  Biso   1.000  C
  C159     1.0000 0.40240  0.25860  0.09930  Biso   1.000  C
  C160     1.0000 0.34310  0.23880  0.02510  Biso   1.000  C
  H139     1.0000 0.30730  0.19900  0.01990  Biso   1.000  H
  H140     1.0000 0.28830  0.26990  0.99700  Biso   1.000  H
  H141     1.0000 0.39550  0.23480  0.01060  Biso   1.000  H
  C161     1.0000 0.39280  0.31650  0.12530  Biso   1.000  C
  C162     1.0000 0.32580  0.37160  0.08390  Biso   1.000  C
  C163     1.0000 0.46230  0.31430  0.19810  Biso   1.000  C
  C164     1.0000 0.47850  0.36560  0.24780  Biso   1.000  C
  H142     1.0000 0.55540  0.36750  0.28410  Biso   1.000  H
  H143     1.0000 0.45650  0.40520  0.22380  Biso   1.000  H
  H144     1.0000 0.43400  0.35700  0.26740  Biso   1.000  H
  C165     1.0000 0.60090  0.23180  0.28260  Biso   1.000  C
  B5       1.0000 0.99670  0.85310  0.15890  Biso   1.000  B
  B6       1.0000 0.51480  0.15720  0.15190  Biso   1.000  B
  C166     1.0000 0.34810  0.76910  0.16340  Biso   1.000  C
  C167     1.0000 0.25950  0.81060  0.14080  Biso   1.000  C
  H145     1.0000 0.22630  0.81580  0.16660  Biso   1.000  H
  C168     1.0000 0.22050  0.84420  0.07980  Biso   1.000  C
  H146     1.0000 0.16120  0.87190  0.06470  Biso   1.000  H
  C169     1.0000 0.27010  0.83640  0.04120  Biso   1.000  C
  H147     1.0000 0.24400  0.85890  0.00040  Biso   1.000  H
  C170     1.0000 0.35870  0.79500  0.06380  Biso   1.000  C
  H148     1.0000 0.39190  0.78980  0.03800  Biso   1.000  H
  C171     1.0000 0.39770  0.76140  0.12480  Biso   1.000  C
  H149     1.0000 0.45690  0.73360  0.13990  Biso   1.000  H
  Cd7      1.0000 0.10008  0.40874  0.09803  Biso   1.000  Cd
  Cd8      1.0000 0.79212  0.52234  0.98943  Biso   1.000  Cd
  F13      1.0000 0.93400  0.38750  0.35420  Biso   1.000  F
  F14      1.0000 0.11200  0.38020  0.38370  Biso   1.000  F
  F15      1.0000 0.57250  0.61520  0.38050  Biso   1.000  F
  F16      1.0000 0.45010  0.65250  0.39740  Biso   1.000  F
  O25      1.0000 0.06220  0.09123  0.47000  Biso   1.000  O
  O26      1.0000 0.06850  0.17560  0.53000  Biso   1.000  O
  O27      1.0000 0.92060  0.43564  0.06257  Biso   1.000  O
  O28      1.0000 0.82070  0.48710  0.09560  Biso   1.000  O
  O29      1.0000 0.15720  0.51636  0.08611  Biso   1.000  O
  O30      1.0000 0.16930  0.48442  0.18240  Biso   1.000  O
  O31      1.0000 0.71450  0.90775  0.39040  Biso   1.000  O
  O32      1.0000 0.68730  0.88200  0.47460  Biso   1.000  O
  N19      1.0000 0.17880  0.33920  0.19050  Biso   1.000  N
  N20      1.0000 0.62150  0.02860  0.43560  Biso   1.000  N
  N21      1.0000 0.00690  0.28320  0.35950  Biso   1.000  N
  N22      1.0000 0.96820  0.35830  0.26510  Biso   1.000  N
  N23      1.0000 0.39600  0.63450  0.27820  Biso   1.000  N
  N24      1.0000 0.52280  0.72240  0.34600  Biso   1.000  N
  C172     1.0000 0.57650  0.04710  0.47090  Biso   1.000  C
  H150     1.0000 0.61900  0.04440  0.51890  Biso   1.000  H
  C173     1.0000 0.46740  0.07090  0.43970  Biso   1.000  C
  H151     1.0000 0.43860  0.08140  0.46700  Biso   1.000  H
  C174     1.0000 0.40440  0.07860  0.37010  Biso   1.000  C
  C175     1.0000 0.45180  0.06180  0.33320  Biso   1.000  C
  H152     1.0000 0.41350  0.06820  0.28560  Biso   1.000  H
  C176     1.0000 0.55720  0.03530  0.36700  Biso   1.000  C
  H153     1.0000 0.58480  0.02120  0.34010  Biso   1.000  H
  C177     1.0000 0.28740  0.10880  0.33540  Biso   1.000  C
  H154     1.0000 0.23590  0.07850  0.33500  Biso   1.000  H
  H155     1.0000 0.26230  0.11910  0.28770  Biso   1.000  H
  C178     1.0000 0.28590  0.16650  0.37130  Biso   1.000  C
  H156     1.0000 0.21000  0.18150  0.34950  Biso   1.000  H
  H157     1.0000 0.31130  0.15610  0.41900  Biso   1.000  H
  C179     1.0000 0.35780  0.21880  0.37040  Biso   1.000  C
  H158     1.0000 0.38420  0.24470  0.41140  Biso   1.000  H
  H159     1.0000 0.42210  0.20040  0.37240  Biso   1.000  H
  C180     1.0000 0.29700  0.26020  0.30670  Biso   1.000  C
  C181     1.0000 0.28180  0.24370  0.24280  Biso   1.000  C
  H160     1.0000 0.31210  0.20660  0.23810  Biso   1.000  H
  C182     1.0000 0.22040  0.28340  0.18600  Biso   1.000  C
  H161     1.0000 0.20770  0.27090  0.14310  Biso   1.000  H
  C183     1.0000 0.19730  0.35530  0.25270  Biso   1.000  C
  H162     1.0000 0.17180  0.39430  0.25720  Biso   1.000  H
  C184     1.0000 0.25220  0.31710  0.31070  Biso   1.000  C
  H163     1.0000 0.25900  0.32950  0.35200  Biso   1.000  H
  C185     1.0000 0.88590  0.44330  0.10370  Biso   1.000  C
  C186     1.0000 0.91900  0.39720  0.16060  Biso   1.000  C
  C187     1.0000 0.94930  0.41230  0.22830  Biso   1.000  C
  C188     1.0000 0.96580  0.47610  0.25930  Biso   1.000  C
  H164     1.0000 0.93840  0.47670  0.29010  Biso   1.000  H
  H165     1.0000 0.04350  0.48620  0.28470  Biso   1.000  H
  H166     1.0000 0.92620  0.50650  0.22320  Biso   1.000  H
  C189     1.0000 0.91700  0.33140  0.15500  Biso   1.000  C
  C190     1.0000 0.94820  0.30760  0.22080  Biso   1.000  C
  C191     1.0000 0.88450  0.29480  0.09060  Biso   1.000  C
  H167     1.0000 0.94980  0.27740  0.09400  Biso   1.000  H
  H168     1.0000 0.83510  0.26130  0.08540  Biso   1.000  H
  H169     1.0000 0.84790  0.32230  0.05120  Biso   1.000  H
  C192     1.0000 0.95770  0.24470  0.24520  Biso   1.000  C
  C193     1.0000 0.93320  0.19260  0.19850  Biso   1.000  C
  C194     1.0000 0.83250  0.16220  0.16980  Biso   1.000  C
  H170     1.0000 0.78040  0.17540  0.18030  Biso   1.000  H
  C195     1.0000 0.80800  0.11030  0.12380  Biso   1.000  C
  H171     1.0000 0.73930  0.09030  0.10260  Biso   1.000  H
  C196     1.0000 0.88620  0.09150  0.11210  Biso   1.000  C
  H172     1.0000 0.87110  0.05650  0.08390  Biso   1.000  H
  C197     1.0000 0.99330  0.12160  0.14010  Biso   1.000  C
  H173     1.0000 0.04610  0.10760  0.13040  Biso   1.000  H
  C198     1.0000 0.01070  0.17290  0.18240  Biso   1.000  C
  H174     1.0000 0.07700  0.19510  0.20090  Biso   1.000  H
  C199     1.0000 0.98740  0.23340  0.31420  Biso   1.000  C
  C200     1.0000 0.00500  0.17670  0.35050  Biso   1.000  C
  C201     1.0000 0.99890  0.11160  0.32430  Biso   1.000  C
  H175     1.0000 0.03290  0.11060  0.29720  Biso   1.000  H
  H176     1.0000 0.03740  0.08320  0.36270  Biso   1.000  H
  H177     1.0000 0.92260  0.09900  0.29610  Biso   1.000  H
  C202     1.0000 0.03210  0.19330  0.41770  Biso   1.000  C
  C203     1.0000 0.03120  0.25990  0.42130  Biso   1.000  C
  C204     1.0000 0.05790  0.29970  0.48170  Biso   1.000  C
  H178     1.0000 0.06120  0.34310  0.47090  Biso   1.000  H
  H179     1.0000 0.00140  0.29460  0.49260  Biso   1.000  H
  H180     1.0000 0.12850  0.28730  0.52070  Biso   1.000  H
  C205     1.0000 0.05590  0.15030  0.47560  Biso   1.000  C
  C206     1.0000 0.19350  0.52360  0.15000  Biso   1.000  C
  C207     1.0000 0.26540  0.57730  0.18860  Biso   1.000  C
  C208     1.0000 0.34030  0.57840  0.26130  Biso   1.000  C
  C209     1.0000 0.36060  0.52660  0.31140  Biso   1.000  C
  H181     1.0000 0.30280  0.52680  0.32150  Biso   1.000  H
  H182     1.0000 0.36110  0.48680  0.29140  Biso   1.000  H
  H183     1.0000 0.43110  0.53310  0.35330  Biso   1.000  H
  C210     1.0000 0.27820  0.63420  0.16190  Biso   1.000  C
  C211     1.0000 0.22010  0.65320  0.08790  Biso   1.000  C
  H184     1.0000 0.27370  0.66030  0.07490  Biso   1.000  H
  H185     1.0000 0.17010  0.62030  0.05970  Biso   1.000  H
  H186     1.0000 0.17890  0.69120  0.08140  Biso   1.000  H
  C212     1.0000 0.35760  0.66960  0.21770  Biso   1.000  C
  C213     1.0000 0.48540  0.75610  0.28510  Biso   1.000  C
  C214     1.0000 0.59760  0.75860  0.40070  Biso   1.000  C
  C215     1.0000 0.65690  0.73880  0.47490  Biso   1.000  C
  H187     1.0000 0.69270  0.69900  0.48010  Biso   1.000  H
  H188     1.0000 0.71170  0.76990  0.50300  Biso   1.000  H
  H189     1.0000 0.60450  0.73480  0.48940  Biso   1.000  H
  C216     1.0000 0.60720  0.81650  0.37470  Biso   1.000  C
  C217     1.0000 0.67420  0.87160  0.41610  Biso   1.000  C
  C218     1.0000 0.53770  0.81430  0.30190  Biso   1.000  C
  C219     1.0000 0.52150  0.86560  0.25220  Biso   1.000  C
  H190     1.0000 0.44460  0.86750  0.21590  Biso   1.000  H
  H191     1.0000 0.54350  0.90520  0.27620  Biso   1.000  H
  H192     1.0000 0.56600  0.85700  0.23260  Biso   1.000  H
  C220     1.0000 0.39910  0.73180  0.21740  Biso   1.000  C
  B7       1.0000 0.00330  0.35310  0.34110  Biso   1.000  B
  B8       1.0000 0.48520  0.65720  0.34810  Biso   1.000  B
