data_image0
_cell_length_a       6.798
_cell_length_b       13.285
_cell_length_c       16.457
_cell_angle_alpha    90
_cell_angle_beta     90
_cell_angle_gamma    90

_symmetry_space_group_name_H-M    "P 1"
_symmetry_int_tables_number       1

loop_
  _symmetry_equiv_pos_as_xyz
  'x, y, z'

loop_
  _atom_site_label
  _atom_site_occupancy
  _atom_site_fract_x
  _atom_site_fract_y
  _atom_site_fract_z
  _atom_site_thermal_displace_type
  _atom_site_B_iso_or_equiv
  _atom_site_type_symbol
  C1       1.0000 0.77470  0.60950  0.90450  Biso   1.000  C
  C2       1.0000 0.75920  0.53490  0.83650  Biso   1.000  C
  C3       1.0000 0.92860  0.48970  0.80650  Biso   1.000  C
  H1       1.0000 0.04930  0.50230  0.83110  Biso   1.000  H
  C4       1.0000 0.57840  0.51260  0.80240  Biso   1.000  C
  H2       1.0000 0.46440  0.53960  0.82480  Biso   1.000  H
  C5       1.0000 0.56620  0.45070  0.73560  Biso   1.000  C
  H3       1.0000 0.44440  0.43750  0.71220  Biso   1.000  H
  C6       1.0000 0.91770  0.42550  0.73990  Biso   1.000  C
  H4       1.0000 0.03090  0.39470  0.72020  Biso   1.000  H
  C7       1.0000 0.73700  0.40750  0.70260  Biso   1.000  C
  C8       1.0000 0.72580  0.34580  0.62740  Biso   1.000  C
  O1       1.0000 0.28370  0.68960  0.00960  Biso   1.000  O
  O2       1.0000 0.88340  0.31380  0.59850  Biso   1.000  O
  O3       1.0000 0.61460  0.64640  0.92940  Biso   1.000  O
  O4       1.0000 0.55660  0.33070  0.59820  Biso   1.000  O
  O5       1.0000 0.94420  0.63200  0.92980  Biso   1.000  O
  V1       1.0000 0.06409  0.73509  0.00142  Biso   1.000  V
  C9       1.0000 0.72530  0.39050  0.40450  Biso   1.000  C
  C10      1.0000 0.74080  0.46510  0.33650  Biso   1.000  C
  C11      1.0000 0.57140  0.51030  0.30650  Biso   1.000  C
  H5       1.0000 0.45070  0.49770  0.33110  Biso   1.000  H
  C12      1.0000 0.92160  0.48740  0.30240  Biso   1.000  C
  H6       1.0000 0.03560  0.46040  0.32480  Biso   1.000  H
  C13      1.0000 0.93380  0.54930  0.23560  Biso   1.000  C
  H7       1.0000 0.05560  0.56250  0.21220  Biso   1.000  H
  C14      1.0000 0.58230  0.57450  0.23990  Biso   1.000  C
  H8       1.0000 0.46910  0.60530  0.22020  Biso   1.000  H
  C15      1.0000 0.76300  0.59250  0.20260  Biso   1.000  C
  C16      1.0000 0.77420  0.65420  0.12740  Biso   1.000  C
  O6       1.0000 0.21630  0.31040  0.50960  Biso   1.000  O
  O7       1.0000 0.61660  0.68620  0.09850  Biso   1.000  O
  O8       1.0000 0.88540  0.35360  0.42940  Biso   1.000  O
  O9       1.0000 0.94340  0.66930  0.09820  Biso   1.000  O
  O10      1.0000 0.55580  0.36800  0.42980  Biso   1.000  O
  V2       1.0000 0.43591  0.26491  0.50142  Biso   1.000  V
  C17      1.0000 0.22530  0.10950  0.59550  Biso   1.000  C
  C18      1.0000 0.24080  0.03490  0.66350  Biso   1.000  C
  C19      1.0000 0.07140  0.98970  0.69350  Biso   1.000  C
  H9       1.0000 0.95070  0.00230  0.66890  Biso   1.000  H
  C20      1.0000 0.42160  0.01260  0.69760  Biso   1.000  C
  H10      1.0000 0.53560  0.03960  0.67520  Biso   1.000  H
  C21      1.0000 0.43380  0.95070  0.76440  Biso   1.000  C
  H11      1.0000 0.55560  0.93750  0.78780  Biso   1.000  H
  C22      1.0000 0.08230  0.92550  0.76010  Biso   1.000  C
  H12      1.0000 0.96910  0.89470  0.77980  Biso   1.000  H
  C23      1.0000 0.26300  0.90750  0.79740  Biso   1.000  C
  C24      1.0000 0.27420  0.84580  0.87260  Biso   1.000  C
  O11      1.0000 0.71630  0.18960  0.49040  Biso   1.000  O
  O12      1.0000 0.11660  0.81380  0.90150  Biso   1.000  O
  O13      1.0000 0.38540  0.14640  0.57060  Biso   1.000  O
  O14      1.0000 0.44340  0.83070  0.90180  Biso   1.000  O
  O15      1.0000 0.05580  0.13200  0.57020  Biso   1.000  O
  V3       1.0000 0.93591  0.23509  0.49858  Biso   1.000  V
  C25      1.0000 0.27470  0.89050  0.09550  Biso   1.000  C
  C26      1.0000 0.25920  0.96510  0.16350  Biso   1.000  C
  C27      1.0000 0.42860  0.01030  0.19350  Biso   1.000  C
  H13      1.0000 0.54930  0.99770  0.16890  Biso   1.000  H
  C28      1.0000 0.07840  0.98740  0.19760  Biso   1.000  C
  H14      1.0000 0.96440  0.96040  0.17520  Biso   1.000  H
  C29      1.0000 0.06620  0.04930  0.26440  Biso   1.000  C
  H15      1.0000 0.94440  0.06250  0.28780  Biso   1.000  H
  C30      1.0000 0.41770  0.07450  0.26010  Biso   1.000  C
  H16      1.0000 0.53090  0.10530  0.27980  Biso   1.000  H
  C31      1.0000 0.23700  0.09250  0.29740  Biso   1.000  C
  C32      1.0000 0.22580  0.15420  0.37260  Biso   1.000  C
  O16      1.0000 0.78370  0.81040  0.99040  Biso   1.000  O
  O17      1.0000 0.38340  0.18620  0.40150  Biso   1.000  O
  O18      1.0000 0.11460  0.85360  0.07060  Biso   1.000  O
  O19      1.0000 0.05660  0.16930  0.40180  Biso   1.000  O
  O20      1.0000 0.44420  0.86800  0.07020  Biso   1.000  O
  V4       1.0000 0.56409  0.76491  0.99858  Biso   1.000  V
