data_image0
_cell_length_a       6.8223
_cell_length_b       15.2689
_cell_length_c       14.9109
_cell_angle_alpha    90
_cell_angle_beta     90
_cell_angle_gamma    90

_symmetry_space_group_name_H-M    "P 1"
_symmetry_int_tables_number       1

loop_
  _symmetry_equiv_pos_as_xyz
  'x, y, z'

loop_
  _atom_site_label
  _atom_site_occupancy
  _atom_site_fract_x
  _atom_site_fract_y
  _atom_site_fract_z
  _atom_site_thermal_displace_type
  _atom_site_B_iso_or_equiv
  _atom_site_type_symbol
  O1       1.0000 0.63540  0.34148  0.82931  Biso   1.000  O
  O2       1.0000 0.30810  0.34159  0.84020  Biso   1.000  O
  C1       1.0000 0.47600  0.36797  0.86210  Biso   1.000  C
  C2       1.0000 0.48820  0.43681  0.93332  Biso   1.000  C
  C3       1.0000 0.66990  0.46728  0.96138  Biso   1.000  C
  H1       1.0000 0.78370  0.44510  0.93560  Biso   1.000  H
  C4       1.0000 0.68210  0.53052  0.02752  Biso   1.000  C
  H2       1.0000 0.80390  0.55120  0.04580  Biso   1.000  H
  O3       1.0000 0.86460  0.65852  0.32931  Biso   1.000  O
  O4       1.0000 0.19190  0.65841  0.34020  Biso   1.000  O
  C5       1.0000 0.02400  0.63203  0.36210  Biso   1.000  C
  C6       1.0000 0.01180  0.56319  0.43332  Biso   1.000  C
  C7       1.0000 0.83010  0.53272  0.46138  Biso   1.000  C
  H3       1.0000 0.71630  0.55490  0.43560  Biso   1.000  H
  C8       1.0000 0.81790  0.46948  0.52752  Biso   1.000  C
  H4       1.0000 0.69610  0.44880  0.54580  Biso   1.000  H
  O5       1.0000 0.36460  0.84148  0.17069  Biso   1.000  O
  O6       1.0000 0.69190  0.84159  0.15980  Biso   1.000  O
  C9       1.0000 0.52400  0.86797  0.13790  Biso   1.000  C
  C10      1.0000 0.51180  0.93681  0.06668  Biso   1.000  C
  C11      1.0000 0.33010  0.96728  0.03862  Biso   1.000  C
  H5       1.0000 0.21630  0.94510  0.06440  Biso   1.000  H
  C12      1.0000 0.31790  0.03052  0.97248  Biso   1.000  C
  H6       1.0000 0.19610  0.05120  0.95420  Biso   1.000  H
  O7       1.0000 0.13540  0.15852  0.67069  Biso   1.000  O
  O8       1.0000 0.80810  0.15841  0.65980  Biso   1.000  O
  C13      1.0000 0.97600  0.13203  0.63790  Biso   1.000  C
  C14      1.0000 0.98820  0.06319  0.56668  Biso   1.000  C
  C15      1.0000 0.16990  0.03272  0.53862  Biso   1.000  C
  H7       1.0000 0.28370  0.05490  0.56440  Biso   1.000  H
  C16      1.0000 0.18210  0.96948  0.47248  Biso   1.000  C
  H8       1.0000 0.30390  0.94880  0.45420  Biso   1.000  H
  O9       1.0000 0.36460  0.65852  0.17069  Biso   1.000  O
  O10      1.0000 0.69190  0.65841  0.15980  Biso   1.000  O
  C17      1.0000 0.52400  0.63203  0.13790  Biso   1.000  C
  C18      1.0000 0.51180  0.56319  0.06668  Biso   1.000  C
  C19      1.0000 0.33010  0.53272  0.03862  Biso   1.000  C
  H9       1.0000 0.21630  0.55490  0.06440  Biso   1.000  H
  C20      1.0000 0.31790  0.46948  0.97248  Biso   1.000  C
  H10      1.0000 0.19610  0.44880  0.95420  Biso   1.000  H
  O11      1.0000 0.13540  0.34148  0.67069  Biso   1.000  O
  O12      1.0000 0.80810  0.34159  0.65980  Biso   1.000  O
  C21      1.0000 0.97600  0.36797  0.63790  Biso   1.000  C
  C22      1.0000 0.98820  0.43681  0.56668  Biso   1.000  C
  C23      1.0000 0.16990  0.46728  0.53862  Biso   1.000  C
  H11      1.0000 0.28370  0.44510  0.56440  Biso   1.000  H
  C24      1.0000 0.18210  0.53052  0.47248  Biso   1.000  C
  H12      1.0000 0.30390  0.55120  0.45420  Biso   1.000  H
  O13      1.0000 0.63540  0.15852  0.82931  Biso   1.000  O
  O14      1.0000 0.30810  0.15841  0.84020  Biso   1.000  O
  C25      1.0000 0.47600  0.13203  0.86210  Biso   1.000  C
  C26      1.0000 0.48820  0.06319  0.93332  Biso   1.000  C
  C27      1.0000 0.66990  0.03272  0.96138  Biso   1.000  C
  H13      1.0000 0.78370  0.05490  0.93560  Biso   1.000  H
  C28      1.0000 0.68210  0.96948  0.02752  Biso   1.000  C
  H14      1.0000 0.80390  0.94880  0.04580  Biso   1.000  H
  O15      1.0000 0.86460  0.84148  0.32931  Biso   1.000  O
  O16      1.0000 0.19190  0.84159  0.34020  Biso   1.000  O
  C29      1.0000 0.02400  0.86797  0.36210  Biso   1.000  C
  C30      1.0000 0.01180  0.93681  0.43332  Biso   1.000  C
  C31      1.0000 0.83010  0.96728  0.46138  Biso   1.000  C
  H15      1.0000 0.71630  0.94510  0.43560  Biso   1.000  H
  C32      1.0000 0.81790  0.03052  0.52752  Biso   1.000  C
  H16      1.0000 0.69610  0.05120  0.54580  Biso   1.000  H
  V1       1.0000 0.18782  0.25000  0.76202  Biso   1.000  V
  O17      1.0000 0.97000  0.25000  0.80487  Biso   1.000  O
  V2       1.0000 0.31218  0.75000  0.26202  Biso   1.000  V
  O18      1.0000 0.53000  0.75000  0.30487  Biso   1.000  O
  V3       1.0000 0.81218  0.75000  0.23798  Biso   1.000  V
  O19      1.0000 0.03000  0.75000  0.19513  Biso   1.000  O
  V4       1.0000 0.68782  0.25000  0.73798  Biso   1.000  V
  O20      1.0000 0.47000  0.25000  0.69513  Biso   1.000  O
