data_image0
_cell_length_a       6.8055
_cell_length_b       13.4475
_cell_length_c       16.1809
_cell_angle_alpha    90
_cell_angle_beta     90
_cell_angle_gamma    90

_symmetry_space_group_name_H-M    "P 1"
_symmetry_int_tables_number       1

loop_
  _symmetry_equiv_pos_as_xyz
  'x, y, z'

loop_
  _atom_site_label
  _atom_site_occupancy
  _atom_site_fract_x
  _atom_site_fract_y
  _atom_site_fract_z
  _atom_site_thermal_displace_type
  _atom_site_B_iso_or_equiv
  _atom_site_type_symbol
  C1       1.0000 0.22430  0.60960  0.40430  Biso   1.000  C
  C2       1.0000 0.24020  0.53430  0.33790  Biso   1.000  C
  C3       1.0000 0.41920  0.51180  0.30210  Biso   1.000  C
  H1       1.0000 0.53310  0.54100  0.32250  Biso   1.000  H
  C4       1.0000 0.43100  0.44830  0.23810  Biso   1.000  C
  H2       1.0000 0.55320  0.43300  0.21580  Biso   1.000  H
  C5       1.0000 0.07140  0.48930  0.30710  Biso   1.000  C
  H3       1.0000 0.95010  0.50220  0.33120  Biso   1.000  H
  C6       1.0000 0.08450  0.42530  0.24050  Biso   1.000  C
  H4       1.0000 0.97120  0.39580  0.21980  Biso   1.000  H
  C7       1.0000 0.26230  0.40490  0.20470  Biso   1.000  C
  C8       1.0000 0.27690  0.34430  0.12950  Biso   1.000  C
  O1       1.0000 0.28350  0.18980  0.99000  Biso   1.000  O
  O2       1.0000 0.11570  0.31260  0.09960  Biso   1.000  O
  O3       1.0000 0.05640  0.63210  0.43020  Biso   1.000  O
  O4       1.0000 0.44280  0.32840  0.09910  Biso   1.000  O
  O5       1.0000 0.38450  0.64730  0.42860  Biso   1.000  O
  V1       1.0000 0.06454  0.23546  0.99852  Biso   1.000  V
  C9       1.0000 0.27570  0.39040  0.90430  Biso   1.000  C
  C10      1.0000 0.25980  0.46570  0.83790  Biso   1.000  C
  C11      1.0000 0.08080  0.48820  0.80210  Biso   1.000  C
  H5       1.0000 0.96690  0.45900  0.82250  Biso   1.000  H
  C12      1.0000 0.06900  0.55170  0.73810  Biso   1.000  C
  H6       1.0000 0.94680  0.56700  0.71580  Biso   1.000  H
  C13      1.0000 0.42860  0.51070  0.80710  Biso   1.000  C
  H7       1.0000 0.54990  0.49780  0.83120  Biso   1.000  H
  C14      1.0000 0.41550  0.57470  0.74050  Biso   1.000  C
  H8       1.0000 0.52880  0.60420  0.71980  Biso   1.000  H
  C15      1.0000 0.23770  0.59510  0.70470  Biso   1.000  C
  C16      1.0000 0.22310  0.65570  0.62950  Biso   1.000  C
  O6       1.0000 0.21650  0.81020  0.49000  Biso   1.000  O
  O7       1.0000 0.38430  0.68740  0.59960  Biso   1.000  O
  O8       1.0000 0.44360  0.36790  0.93020  Biso   1.000  O
  O9       1.0000 0.05720  0.67160  0.59910  Biso   1.000  O
  O10      1.0000 0.11550  0.35270  0.92860  Biso   1.000  O
  V2       1.0000 0.43546  0.76454  0.49852  Biso   1.000  V
  C17      1.0000 0.77570  0.10960  0.09570  Biso   1.000  C
  C18      1.0000 0.75980  0.03430  0.16210  Biso   1.000  C
  C19      1.0000 0.58080  0.01180  0.19790  Biso   1.000  C
  H9       1.0000 0.46690  0.04100  0.17750  Biso   1.000  H
  C20      1.0000 0.56900  0.94830  0.26190  Biso   1.000  C
  H10      1.0000 0.44680  0.93300  0.28420  Biso   1.000  H
  C21      1.0000 0.92860  0.98930  0.19290  Biso   1.000  C
  H11      1.0000 0.04990  0.00220  0.16880  Biso   1.000  H
  C22      1.0000 0.91550  0.92530  0.25950  Biso   1.000  C
  H12      1.0000 0.02880  0.89580  0.28020  Biso   1.000  H
  C23      1.0000 0.73770  0.90490  0.29530  Biso   1.000  C
  C24      1.0000 0.72310  0.84430  0.37050  Biso   1.000  C
  O11      1.0000 0.71650  0.68980  0.51000  Biso   1.000  O
  O12      1.0000 0.88430  0.81260  0.40040  Biso   1.000  O
  O13      1.0000 0.94360  0.13210  0.06980  Biso   1.000  O
  O14      1.0000 0.55720  0.82840  0.40090  Biso   1.000  O
  O15      1.0000 0.61550  0.14730  0.07140  Biso   1.000  O
  V3       1.0000 0.93546  0.73546  0.50148  Biso   1.000  V
  C25      1.0000 0.72430  0.89040  0.59570  Biso   1.000  C
  C26      1.0000 0.74020  0.96570  0.66210  Biso   1.000  C
  C27      1.0000 0.91920  0.98820  0.69790  Biso   1.000  C
  H13      1.0000 0.03310  0.95900  0.67750  Biso   1.000  H
  C28      1.0000 0.93100  0.05170  0.76190  Biso   1.000  C
  H14      1.0000 0.05320  0.06700  0.78420  Biso   1.000  H
  C29      1.0000 0.57140  0.01070  0.69290  Biso   1.000  C
  H15      1.0000 0.45010  0.99780  0.66880  Biso   1.000  H
  C30      1.0000 0.58450  0.07470  0.75950  Biso   1.000  C
  H16      1.0000 0.47120  0.10420  0.78020  Biso   1.000  H
  C31      1.0000 0.76230  0.09510  0.79530  Biso   1.000  C
  C32      1.0000 0.77690  0.15570  0.87050  Biso   1.000  C
  O16      1.0000 0.78350  0.31020  0.01000  Biso   1.000  O
  O17      1.0000 0.61570  0.18740  0.90040  Biso   1.000  O
  O18      1.0000 0.55640  0.86790  0.56980  Biso   1.000  O
  O19      1.0000 0.94280  0.17160  0.90090  Biso   1.000  O
  O20      1.0000 0.88450  0.85270  0.57140  Biso   1.000  O
  V4       1.0000 0.56454  0.26454  0.00148  Biso   1.000  V
