data_image0
_cell_length_a       10.24
_cell_length_b       13.772
_cell_length_c       16.7
_cell_angle_alpha    90
_cell_angle_beta     127.046
_cell_angle_gamma    90

_symmetry_space_group_name_H-M    "P 1"
_symmetry_int_tables_number       1

loop_
  _symmetry_equiv_pos_as_xyz
  'x, y, z'

loop_
  _atom_site_label
  _atom_site_occupancy
  _atom_site_fract_x
  _atom_site_fract_y
  _atom_site_fract_z
  _atom_site_thermal_displace_type
  _atom_site_B_iso_or_equiv
  _atom_site_type_symbol
  Cd1      1.0000 0.58220  0.42413  0.93814  Biso   1.000  Cd
  O1       1.0000 0.68050  0.54580  0.05330  Biso   1.000  O
  O2       1.0000 0.44030  0.55230  0.82510  Biso   1.000  O
  H1       1.0000 0.51370  0.58760  0.82930  Biso   1.000  H
  H2       1.0000 0.37700  0.57910  0.81980  Biso   1.000  H
  O3       1.0000 0.66660  0.64800  0.14840  Biso   1.000  O
  O4       1.0000 0.20080  0.54710  0.07730  Biso   1.000  O
  O5       1.0000 0.38760  0.65690  0.17430  Biso   1.000  O
  O6       1.0000 0.36600  0.83320  0.42730  Biso   1.000  O
  O7       1.0000 0.17110  0.79410  0.44080  Biso   1.000  O
  C1       1.0000 0.74000  0.60960  0.11790  Biso   1.000  C
  C2       1.0000 0.91280  0.64400  0.16610  Biso   1.000  C
  C3       1.0000 0.99850  0.61520  0.13050  Biso   1.000  C
  H3       1.0000 0.94850  0.57530  0.07440  Biso   1.000  H
  C4       1.0000 0.15820  0.64540  0.17800  Biso   1.000  C
  C5       1.0000 0.25350  0.61450  0.14020  Biso   1.000  C
  C6       1.0000 0.23310  0.70390  0.26090  Biso   1.000  C
  H4       1.0000 0.33910  0.72590  0.29140  Biso   1.000  H
  C7       1.0000 0.14840  0.73050  0.29990  Biso   1.000  C
  C8       1.0000 0.23470  0.79030  0.39570  Biso   1.000  C
  C9       1.0000 0.99100  0.70110  0.25340  Biso   1.000  C
  H5       1.0000 0.93550  0.71880  0.27930  Biso   1.000  H
  Cd2      1.0000 0.41780  0.92413  0.56186  Biso   1.000  Cd
  O8       1.0000 0.31950  0.04580  0.44670  Biso   1.000  O
  O9       1.0000 0.55970  0.05230  0.67490  Biso   1.000  O
  H6       1.0000 0.48630  0.08760  0.67070  Biso   1.000  H
  H7       1.0000 0.62300  0.07910  0.68020  Biso   1.000  H
  O10      1.0000 0.33340  0.14800  0.35160  Biso   1.000  O
  O11      1.0000 0.79920  0.04710  0.42270  Biso   1.000  O
  O12      1.0000 0.61240  0.15690  0.32570  Biso   1.000  O
  O13      1.0000 0.63400  0.33320  0.07270  Biso   1.000  O
  O14      1.0000 0.82890  0.29410  0.05920  Biso   1.000  O
  C10      1.0000 0.26000  0.10960  0.38210  Biso   1.000  C
  C11      1.0000 0.08720  0.14400  0.33390  Biso   1.000  C
  C12      1.0000 0.00150  0.11520  0.36950  Biso   1.000  C
  H8       1.0000 0.05150  0.07530  0.42560  Biso   1.000  H
  C13      1.0000 0.84180  0.14540  0.32200  Biso   1.000  C
  C14      1.0000 0.74650  0.11450  0.35980  Biso   1.000  C
  C15      1.0000 0.76690  0.20390  0.23910  Biso   1.000  C
  H9       1.0000 0.66090  0.22590  0.20860  Biso   1.000  H
  C16      1.0000 0.85160  0.23050  0.20010  Biso   1.000  C
  C17      1.0000 0.76530  0.29030  0.10430  Biso   1.000  C
  C18      1.0000 0.00900  0.20110  0.24660  Biso   1.000  C
  H10      1.0000 0.06450  0.21880  0.22070  Biso   1.000  H
  Cd3      1.0000 0.41780  0.57587  0.06186  Biso   1.000  Cd
  O15      1.0000 0.31950  0.45420  0.94670  Biso   1.000  O
  O16      1.0000 0.55970  0.44770  0.17490  Biso   1.000  O
  H11      1.0000 0.48630  0.41240  0.17070  Biso   1.000  H
  H12      1.0000 0.62300  0.42090  0.18020  Biso   1.000  H
  O17      1.0000 0.33340  0.35200  0.85160  Biso   1.000  O
  O18      1.0000 0.79920  0.45290  0.92270  Biso   1.000  O
  O19      1.0000 0.61240  0.34310  0.82570  Biso   1.000  O
  O20      1.0000 0.63400  0.16680  0.57270  Biso   1.000  O
  O21      1.0000 0.82890  0.20590  0.55920  Biso   1.000  O
  C19      1.0000 0.26000  0.39040  0.88210  Biso   1.000  C
  C20      1.0000 0.08720  0.35600  0.83390  Biso   1.000  C
  C21      1.0000 0.00150  0.38480  0.86950  Biso   1.000  C
  H13      1.0000 0.05150  0.42470  0.92560  Biso   1.000  H
  C22      1.0000 0.84180  0.35460  0.82200  Biso   1.000  C
  C23      1.0000 0.74650  0.38550  0.85980  Biso   1.000  C
  C24      1.0000 0.76690  0.29610  0.73910  Biso   1.000  C
  H14      1.0000 0.66090  0.27410  0.70860  Biso   1.000  H
  C25      1.0000 0.85160  0.26950  0.70010  Biso   1.000  C
  C26      1.0000 0.76530  0.20970  0.60430  Biso   1.000  C
  C27      1.0000 0.00900  0.29890  0.74660  Biso   1.000  C
  H15      1.0000 0.06450  0.28120  0.72070  Biso   1.000  H
  Cd4      1.0000 0.58220  0.07587  0.43814  Biso   1.000  Cd
  O22      1.0000 0.68050  0.95420  0.55330  Biso   1.000  O
  O23      1.0000 0.44030  0.94770  0.32510  Biso   1.000  O
  H16      1.0000 0.51370  0.91240  0.32930  Biso   1.000  H
  H17      1.0000 0.37700  0.92090  0.31980  Biso   1.000  H
  O24      1.0000 0.66660  0.85200  0.64840  Biso   1.000  O
  O25      1.0000 0.20080  0.95290  0.57730  Biso   1.000  O
  O26      1.0000 0.38760  0.84310  0.67430  Biso   1.000  O
  O27      1.0000 0.36600  0.66680  0.92730  Biso   1.000  O
  O28      1.0000 0.17110  0.70590  0.94080  Biso   1.000  O
  C28      1.0000 0.74000  0.89040  0.61790  Biso   1.000  C
  C29      1.0000 0.91280  0.85600  0.66610  Biso   1.000  C
  C30      1.0000 0.99850  0.88480  0.63050  Biso   1.000  C
  H18      1.0000 0.94850  0.92470  0.57440  Biso   1.000  H
  C31      1.0000 0.15820  0.85460  0.67800  Biso   1.000  C
  C32      1.0000 0.25350  0.88550  0.64020  Biso   1.000  C
  C33      1.0000 0.23310  0.79610  0.76090  Biso   1.000  C
  H19      1.0000 0.33910  0.77410  0.79140  Biso   1.000  H
  C34      1.0000 0.14840  0.76950  0.79990  Biso   1.000  C
  C35      1.0000 0.23470  0.70970  0.89570  Biso   1.000  C
  C36      1.0000 0.99100  0.79890  0.75340  Biso   1.000  C
  H20      1.0000 0.93550  0.78120  0.77930  Biso   1.000  H
