data_image0
_cell_length_a       17.4611
_cell_length_b       17.4611
_cell_length_c       17.4611
_cell_angle_alpha    90
_cell_angle_beta     90
_cell_angle_gamma    90

_symmetry_space_group_name_H-M    "P 1"
_symmetry_int_tables_number       1

loop_
  _symmetry_equiv_pos_as_xyz
  'x, y, z'

loop_
  _atom_site_label
  _atom_site_occupancy
  _atom_site_fract_x
  _atom_site_fract_y
  _atom_site_fract_z
  _atom_site_thermal_displace_type
  _atom_site_B_iso_or_equiv
  _atom_site_type_symbol
  Co1      1.0000 0.14404  0.37903  0.01180  Biso   1.000  Co
  C1       1.0000 0.73110  0.26770  0.96590  Biso   1.000  C
  H1       1.0000 0.71510  0.27070  0.91520  Biso   1.000  H
  C2       1.0000 0.74690  0.23180  0.08150  Biso   1.000  C
  H2       1.0000 0.74310  0.20320  0.12630  Biso   1.000  H
  C3       1.0000 0.77910  0.31790  0.00120  Biso   1.000  C
  C4       1.0000 0.81780  0.38680  0.97510  Biso   1.000  C
  C5       1.0000 0.26310  0.57220  0.07710  Biso   1.000  C
  H3       1.0000 0.26300  0.62280  0.09370  Biso   1.000  H
  C6       1.0000 0.29990  0.46230  0.03760  Biso   1.000  C
  H4       1.0000 0.33170  0.42220  0.02270  Biso   1.000  H
  C7       1.0000 0.19890  0.52770  0.06710  Biso   1.000  C
  C8       1.0000 0.11840  0.53910  0.07520  Biso   1.000  C
  N1       1.0000 0.78780  0.29320  0.07550  Biso   1.000  N
  N2       1.0000 0.71040  0.21330  0.01560  Biso   1.000  N
  N3       1.0000 0.32620  0.53140  0.05920  Biso   1.000  N
  N4       1.0000 0.22460  0.45710  0.03980  Biso   1.000  N
  H5       1.0000 0.54950  0.51480  0.00240  Biso   1.000  H
  O1       1.0000 0.82060  0.40360  0.90610  Biso   1.000  O
  O2       1.0000 0.84910  0.42830  0.02910  Biso   1.000  O
  O3       1.0000 0.09190  0.59970  0.10180  Biso   1.000  O
  O4       1.0000 0.07700  0.48130  0.05480  Biso   1.000  O
  Co2      1.0000 0.35596  0.62097  0.51180  Biso   1.000  Co
  C9       1.0000 0.76890  0.73230  0.46590  Biso   1.000  C
  H6       1.0000 0.78490  0.72930  0.41520  Biso   1.000  H
  C10      1.0000 0.75310  0.76820  0.58150  Biso   1.000  C
  H7       1.0000 0.75690  0.79680  0.62630  Biso   1.000  H
  C11      1.0000 0.72090  0.68210  0.50120  Biso   1.000  C
  C12      1.0000 0.68220  0.61320  0.47510  Biso   1.000  C
  C13      1.0000 0.23690  0.42780  0.57710  Biso   1.000  C
  H8       1.0000 0.23700  0.37720  0.59370  Biso   1.000  H
  C14      1.0000 0.20010  0.53770  0.53760  Biso   1.000  C
  H9       1.0000 0.16830  0.57780  0.52270  Biso   1.000  H
  C15      1.0000 0.30110  0.47230  0.56710  Biso   1.000  C
  C16      1.0000 0.38160  0.46090  0.57520  Biso   1.000  C
  N5       1.0000 0.71220  0.70680  0.57550  Biso   1.000  N
  N6       1.0000 0.78960  0.78670  0.51560  Biso   1.000  N
  N7       1.0000 0.17380  0.46860  0.55920  Biso   1.000  N
  N8       1.0000 0.27540  0.54290  0.53980  Biso   1.000  N
  H10      1.0000 0.95050  0.48520  0.50240  Biso   1.000  H
  O5       1.0000 0.67940  0.59640  0.40610  Biso   1.000  O
  O6       1.0000 0.65090  0.57170  0.52910  Biso   1.000  O
  O7       1.0000 0.40810  0.40030  0.60180  Biso   1.000  O
  O8       1.0000 0.42300  0.51870  0.55480  Biso   1.000  O
  Co3      1.0000 0.85596  0.87903  0.48820  Biso   1.000  Co
  C17      1.0000 0.26890  0.76770  0.53410  Biso   1.000  C
  H11      1.0000 0.28490  0.77070  0.58480  Biso   1.000  H
  C18      1.0000 0.25310  0.73180  0.41850  Biso   1.000  C
  H12      1.0000 0.25690  0.70320  0.37370  Biso   1.000  H
  C19      1.0000 0.22090  0.81790  0.49880  Biso   1.000  C
  C20      1.0000 0.18220  0.88680  0.52490  Biso   1.000  C
  C21      1.0000 0.73690  0.07220  0.42290  Biso   1.000  C
  H13      1.0000 0.73700  0.12280  0.40630  Biso   1.000  H
  C22      1.0000 0.70010  0.96230  0.46240  Biso   1.000  C
  H14      1.0000 0.66830  0.92220  0.47730  Biso   1.000  H
  C23      1.0000 0.80110  0.02770  0.43290  Biso   1.000  C
  C24      1.0000 0.88160  0.03910  0.42480  Biso   1.000  C
  N9       1.0000 0.21220  0.79320  0.42450  Biso   1.000  N
  N10      1.0000 0.28960  0.71330  0.48440  Biso   1.000  N
  N11      1.0000 0.67380  0.03140  0.44080  Biso   1.000  N
  N12      1.0000 0.77540  0.95710  0.46020  Biso   1.000  N
  H15      1.0000 0.45050  0.01480  0.49760  Biso   1.000  H
  O9       1.0000 0.17940  0.90360  0.59390  Biso   1.000  O
  O10      1.0000 0.15090  0.92830  0.47090  Biso   1.000  O
  O11      1.0000 0.90810  0.09970  0.39820  Biso   1.000  O
  O12      1.0000 0.92300  0.98130  0.44520  Biso   1.000  O
  Co4      1.0000 0.64404  0.12097  0.98820  Biso   1.000  Co
  C25      1.0000 0.23110  0.23230  0.03410  Biso   1.000  C
  H16      1.0000 0.21510  0.22930  0.08480  Biso   1.000  H
  C26      1.0000 0.24690  0.26820  0.91850  Biso   1.000  C
  H17      1.0000 0.24310  0.29680  0.87370  Biso   1.000  H
  C27      1.0000 0.27910  0.18210  0.99880  Biso   1.000  C
  C28      1.0000 0.31780  0.11320  0.02490  Biso   1.000  C
  C29      1.0000 0.76310  0.92780  0.92290  Biso   1.000  C
  H18      1.0000 0.76300  0.87720  0.90630  Biso   1.000  H
  C30      1.0000 0.79990  0.03770  0.96240  Biso   1.000  C
  H19      1.0000 0.83170  0.07780  0.97730  Biso   1.000  H
  C31      1.0000 0.69890  0.97230  0.93290  Biso   1.000  C
  C32      1.0000 0.61840  0.96090  0.92480  Biso   1.000  C
  N13      1.0000 0.28780  0.20680  0.92450  Biso   1.000  N
  N14      1.0000 0.21040  0.28670  0.98440  Biso   1.000  N
  N15      1.0000 0.82620  0.96860  0.94080  Biso   1.000  N
  N16      1.0000 0.72460  0.04290  0.96020  Biso   1.000  N
  H20      1.0000 0.04950  0.98520  0.99760  Biso   1.000  H
  O13      1.0000 0.32060  0.09640  0.09390  Biso   1.000  O
  O14      1.0000 0.34910  0.07170  0.97090  Biso   1.000  O
  O15      1.0000 0.59190  0.90030  0.89820  Biso   1.000  O
  O16      1.0000 0.57700  0.01870  0.94520  Biso   1.000  O
  Co5      1.0000 0.01180  0.14404  0.37903  Biso   1.000  Co
  C33      1.0000 0.96590  0.73110  0.26770  Biso   1.000  C
  H21      1.0000 0.91520  0.71510  0.27070  Biso   1.000  H
  C34      1.0000 0.08150  0.74690  0.23180  Biso   1.000  C
  H22      1.0000 0.12630  0.74310  0.20320  Biso   1.000  H
  C35      1.0000 0.00120  0.77910  0.31790  Biso   1.000  C
  C36      1.0000 0.97510  0.81780  0.38680  Biso   1.000  C
  C37      1.0000 0.07710  0.26310  0.57220  Biso   1.000  C
  H23      1.0000 0.09370  0.26300  0.62280  Biso   1.000  H
  C38      1.0000 0.03760  0.29990  0.46230  Biso   1.000  C
  H24      1.0000 0.02270  0.33170  0.42220  Biso   1.000  H
  C39      1.0000 0.06710  0.19890  0.52770  Biso   1.000  C
  C40      1.0000 0.07520  0.11840  0.53910  Biso   1.000  C
  N17      1.0000 0.07550  0.78780  0.29320  Biso   1.000  N
  N18      1.0000 0.01560  0.71040  0.21330  Biso   1.000  N
  N19      1.0000 0.05920  0.32620  0.53140  Biso   1.000  N
  N20      1.0000 0.03980  0.22460  0.45710  Biso   1.000  N
  H25      1.0000 0.00240  0.54950  0.51480  Biso   1.000  H
  O17      1.0000 0.90610  0.82060  0.40360  Biso   1.000  O
  O18      1.0000 0.02910  0.84910  0.42830  Biso   1.000  O
  O19      1.0000 0.10180  0.09190  0.59970  Biso   1.000  O
  O20      1.0000 0.05480  0.07700  0.48130  Biso   1.000  O
  Co6      1.0000 0.51180  0.35596  0.62097  Biso   1.000  Co
  C41      1.0000 0.46590  0.76890  0.73230  Biso   1.000  C
  H26      1.0000 0.41520  0.78490  0.72930  Biso   1.000  H
  C42      1.0000 0.58150  0.75310  0.76820  Biso   1.000  C
  H27      1.0000 0.62630  0.75690  0.79680  Biso   1.000  H
  C43      1.0000 0.50120  0.72090  0.68210  Biso   1.000  C
  C44      1.0000 0.47510  0.68220  0.61320  Biso   1.000  C
  C45      1.0000 0.57710  0.23690  0.42780  Biso   1.000  C
  H28      1.0000 0.59370  0.23700  0.37720  Biso   1.000  H
  C46      1.0000 0.53760  0.20010  0.53770  Biso   1.000  C
  H29      1.0000 0.52270  0.16830  0.57780  Biso   1.000  H
  C47      1.0000 0.56710  0.30110  0.47230  Biso   1.000  C
  C48      1.0000 0.57520  0.38160  0.46090  Biso   1.000  C
  N21      1.0000 0.57550  0.71220  0.70680  Biso   1.000  N
  N22      1.0000 0.51560  0.78960  0.78670  Biso   1.000  N
  N23      1.0000 0.55920  0.17380  0.46860  Biso   1.000  N
  N24      1.0000 0.53980  0.27540  0.54290  Biso   1.000  N
  H30      1.0000 0.50240  0.95050  0.48520  Biso   1.000  H
  O21      1.0000 0.40610  0.67940  0.59640  Biso   1.000  O
  O22      1.0000 0.52910  0.65090  0.57170  Biso   1.000  O
  O23      1.0000 0.60180  0.40810  0.40030  Biso   1.000  O
  O24      1.0000 0.55480  0.42300  0.51870  Biso   1.000  O
  Co7      1.0000 0.48820  0.85596  0.87903  Biso   1.000  Co
  C49      1.0000 0.53410  0.26890  0.76770  Biso   1.000  C
  H31      1.0000 0.58480  0.28490  0.77070  Biso   1.000  H
  C50      1.0000 0.41850  0.25310  0.73180  Biso   1.000  C
  H32      1.0000 0.37370  0.25690  0.70320  Biso   1.000  H
  C51      1.0000 0.49880  0.22090  0.81790  Biso   1.000  C
  C52      1.0000 0.52490  0.18220  0.88680  Biso   1.000  C
  C53      1.0000 0.42290  0.73690  0.07220  Biso   1.000  C
  H33      1.0000 0.40630  0.73700  0.12280  Biso   1.000  H
  C54      1.0000 0.46240  0.70010  0.96230  Biso   1.000  C
  H34      1.0000 0.47730  0.66830  0.92220  Biso   1.000  H
  C55      1.0000 0.43290  0.80110  0.02770  Biso   1.000  C
  C56      1.0000 0.42480  0.88160  0.03910  Biso   1.000  C
  N25      1.0000 0.42450  0.21220  0.79320  Biso   1.000  N
  N26      1.0000 0.48440  0.28960  0.71330  Biso   1.000  N
  N27      1.0000 0.44080  0.67380  0.03140  Biso   1.000  N
  N28      1.0000 0.46020  0.77540  0.95710  Biso   1.000  N
  H35      1.0000 0.49760  0.45050  0.01480  Biso   1.000  H
  O25      1.0000 0.59390  0.17940  0.90360  Biso   1.000  O
  O26      1.0000 0.47090  0.15090  0.92830  Biso   1.000  O
  O27      1.0000 0.39820  0.90810  0.09970  Biso   1.000  O
  O28      1.0000 0.44520  0.92300  0.98130  Biso   1.000  O
  Co8      1.0000 0.98820  0.64404  0.12097  Biso   1.000  Co
  C57      1.0000 0.03410  0.23110  0.23230  Biso   1.000  C
  H36      1.0000 0.08480  0.21510  0.22930  Biso   1.000  H
  C58      1.0000 0.91850  0.24690  0.26820  Biso   1.000  C
  H37      1.0000 0.87370  0.24310  0.29680  Biso   1.000  H
  C59      1.0000 0.99880  0.27910  0.18210  Biso   1.000  C
  C60      1.0000 0.02490  0.31780  0.11320  Biso   1.000  C
  C61      1.0000 0.92290  0.76310  0.92780  Biso   1.000  C
  H38      1.0000 0.90630  0.76300  0.87720  Biso   1.000  H
  C62      1.0000 0.96240  0.79990  0.03770  Biso   1.000  C
  H39      1.0000 0.97730  0.83170  0.07780  Biso   1.000  H
  C63      1.0000 0.93290  0.69890  0.97230  Biso   1.000  C
  C64      1.0000 0.92480  0.61840  0.96090  Biso   1.000  C
  N29      1.0000 0.92450  0.28780  0.20680  Biso   1.000  N
  N30      1.0000 0.98440  0.21040  0.28670  Biso   1.000  N
  N31      1.0000 0.94080  0.82620  0.96860  Biso   1.000  N
  N32      1.0000 0.96020  0.72460  0.04290  Biso   1.000  N
  H40      1.0000 0.99760  0.04950  0.98520  Biso   1.000  H
  O29      1.0000 0.09390  0.32060  0.09640  Biso   1.000  O
  O30      1.0000 0.97090  0.34910  0.07170  Biso   1.000  O
  O31      1.0000 0.89820  0.59190  0.90030  Biso   1.000  O
  O32      1.0000 0.94520  0.57700  0.01870  Biso   1.000  O
  Co9      1.0000 0.37903  0.01180  0.14404  Biso   1.000  Co
  C65      1.0000 0.26770  0.96590  0.73110  Biso   1.000  C
  H41      1.0000 0.27070  0.91520  0.71510  Biso   1.000  H
  C66      1.0000 0.23180  0.08150  0.74690  Biso   1.000  C
  H42      1.0000 0.20320  0.12630  0.74310  Biso   1.000  H
  C67      1.0000 0.31790  0.00120  0.77910  Biso   1.000  C
  C68      1.0000 0.38680  0.97510  0.81780  Biso   1.000  C
  C69      1.0000 0.57220  0.07710  0.26310  Biso   1.000  C
  H43      1.0000 0.62280  0.09370  0.26300  Biso   1.000  H
  C70      1.0000 0.46230  0.03760  0.29990  Biso   1.000  C
  H44      1.0000 0.42220  0.02270  0.33170  Biso   1.000  H
  C71      1.0000 0.52770  0.06710  0.19890  Biso   1.000  C
  C72      1.0000 0.53910  0.07520  0.11840  Biso   1.000  C
  N33      1.0000 0.29320  0.07550  0.78780  Biso   1.000  N
  N34      1.0000 0.21330  0.01560  0.71040  Biso   1.000  N
  N35      1.0000 0.53140  0.05920  0.32620  Biso   1.000  N
  N36      1.0000 0.45710  0.03980  0.22460  Biso   1.000  N
  H45      1.0000 0.51480  0.00240  0.54950  Biso   1.000  H
  O33      1.0000 0.40360  0.90610  0.82060  Biso   1.000  O
  O34      1.0000 0.42830  0.02910  0.84910  Biso   1.000  O
  O35      1.0000 0.59970  0.10180  0.09190  Biso   1.000  O
  O36      1.0000 0.48130  0.05480  0.07700  Biso   1.000  O
  Co10     1.0000 0.62097  0.51180  0.35596  Biso   1.000  Co
  C73      1.0000 0.73230  0.46590  0.76890  Biso   1.000  C
  H46      1.0000 0.72930  0.41520  0.78490  Biso   1.000  H
  C74      1.0000 0.76820  0.58150  0.75310  Biso   1.000  C
  H47      1.0000 0.79680  0.62630  0.75690  Biso   1.000  H
  C75      1.0000 0.68210  0.50120  0.72090  Biso   1.000  C
  C76      1.0000 0.61320  0.47510  0.68220  Biso   1.000  C
  C77      1.0000 0.42780  0.57710  0.23690  Biso   1.000  C
  H48      1.0000 0.37720  0.59370  0.23700  Biso   1.000  H
  C78      1.0000 0.53770  0.53760  0.20010  Biso   1.000  C
  H49      1.0000 0.57780  0.52270  0.16830  Biso   1.000  H
  C79      1.0000 0.47230  0.56710  0.30110  Biso   1.000  C
  C80      1.0000 0.46090  0.57520  0.38160  Biso   1.000  C
  N37      1.0000 0.70680  0.57550  0.71220  Biso   1.000  N
  N38      1.0000 0.78670  0.51560  0.78960  Biso   1.000  N
  N39      1.0000 0.46860  0.55920  0.17380  Biso   1.000  N
  N40      1.0000 0.54290  0.53980  0.27540  Biso   1.000  N
  H50      1.0000 0.48520  0.50240  0.95050  Biso   1.000  H
  O37      1.0000 0.59640  0.40610  0.67940  Biso   1.000  O
  O38      1.0000 0.57170  0.52910  0.65090  Biso   1.000  O
  O39      1.0000 0.40030  0.60180  0.40810  Biso   1.000  O
  O40      1.0000 0.51870  0.55480  0.42300  Biso   1.000  O
  Co11     1.0000 0.87903  0.48820  0.85596  Biso   1.000  Co
  C81      1.0000 0.76770  0.53410  0.26890  Biso   1.000  C
  H51      1.0000 0.77070  0.58480  0.28490  Biso   1.000  H
  C82      1.0000 0.73180  0.41850  0.25310  Biso   1.000  C
  H52      1.0000 0.70320  0.37370  0.25690  Biso   1.000  H
  C83      1.0000 0.81790  0.49880  0.22090  Biso   1.000  C
  C84      1.0000 0.88680  0.52490  0.18220  Biso   1.000  C
  C85      1.0000 0.07220  0.42290  0.73690  Biso   1.000  C
  H53      1.0000 0.12280  0.40630  0.73700  Biso   1.000  H
  C86      1.0000 0.96230  0.46240  0.70010  Biso   1.000  C
  H54      1.0000 0.92220  0.47730  0.66830  Biso   1.000  H
  C87      1.0000 0.02770  0.43290  0.80110  Biso   1.000  C
  C88      1.0000 0.03910  0.42480  0.88160  Biso   1.000  C
  N41      1.0000 0.79320  0.42450  0.21220  Biso   1.000  N
  N42      1.0000 0.71330  0.48440  0.28960  Biso   1.000  N
  N43      1.0000 0.03140  0.44080  0.67380  Biso   1.000  N
  N44      1.0000 0.95710  0.46020  0.77540  Biso   1.000  N
  H55      1.0000 0.01480  0.49760  0.45050  Biso   1.000  H
  O41      1.0000 0.90360  0.59390  0.17940  Biso   1.000  O
  O42      1.0000 0.92830  0.47090  0.15090  Biso   1.000  O
  O43      1.0000 0.09970  0.39820  0.90810  Biso   1.000  O
  O44      1.0000 0.98130  0.44520  0.92300  Biso   1.000  O
  Co12     1.0000 0.12097  0.98820  0.64404  Biso   1.000  Co
  C89      1.0000 0.23230  0.03410  0.23110  Biso   1.000  C
  H56      1.0000 0.22930  0.08480  0.21510  Biso   1.000  H
  C90      1.0000 0.26820  0.91850  0.24690  Biso   1.000  C
  H57      1.0000 0.29680  0.87370  0.24310  Biso   1.000  H
  C91      1.0000 0.18210  0.99880  0.27910  Biso   1.000  C
  C92      1.0000 0.11320  0.02490  0.31780  Biso   1.000  C
  C93      1.0000 0.92780  0.92290  0.76310  Biso   1.000  C
  H58      1.0000 0.87720  0.90630  0.76300  Biso   1.000  H
  C94      1.0000 0.03770  0.96240  0.79990  Biso   1.000  C
  H59      1.0000 0.07780  0.97730  0.83170  Biso   1.000  H
  C95      1.0000 0.97230  0.93290  0.69890  Biso   1.000  C
  C96      1.0000 0.96090  0.92480  0.61840  Biso   1.000  C
  N45      1.0000 0.20680  0.92450  0.28780  Biso   1.000  N
  N46      1.0000 0.28670  0.98440  0.21040  Biso   1.000  N
  N47      1.0000 0.96860  0.94080  0.82620  Biso   1.000  N
  N48      1.0000 0.04290  0.96020  0.72460  Biso   1.000  N
  H60      1.0000 0.98520  0.99760  0.04950  Biso   1.000  H
  O45      1.0000 0.09640  0.09390  0.32060  Biso   1.000  O
  O46      1.0000 0.07170  0.97090  0.34910  Biso   1.000  O
  O47      1.0000 0.90030  0.89820  0.59190  Biso   1.000  O
  O48      1.0000 0.01870  0.94520  0.57700  Biso   1.000  O
  Co13     1.0000 0.43604  0.56396  0.06396  Biso   1.000  Co
  N49      1.0000 0.50110  0.49890  0.99890  Biso   1.000  N
  Co14     1.0000 0.06396  0.43604  0.56396  Biso   1.000  Co
  N50      1.0000 0.99890  0.50110  0.49890  Biso   1.000  N
  Co15     1.0000 0.56396  0.06396  0.43604  Biso   1.000  Co
  N51      1.0000 0.49890  0.99890  0.50110  Biso   1.000  N
  Co16     1.0000 0.93604  0.93604  0.93604  Biso   1.000  Co
  N52      1.0000 0.00110  0.00110  0.00110  Biso   1.000  N
  Co17     1.0000 0.96325  0.46325  0.03675  Biso   1.000  Co
  Co18     1.0000 0.86090  0.36090  0.13910  Biso   1.000  Co
  Co19     1.0000 0.53675  0.53675  0.53675  Biso   1.000  Co
  Co20     1.0000 0.63910  0.63910  0.63910  Biso   1.000  Co
  Co21     1.0000 0.03675  0.96325  0.46325  Biso   1.000  Co
  Co22     1.0000 0.13910  0.86090  0.36090  Biso   1.000  Co
  Co23     1.0000 0.46325  0.03675  0.96325  Biso   1.000  Co
  Co24     1.0000 0.36090  0.13910  0.86090  Biso   1.000  Co
