data_image0
_cell_length_a       24.308
_cell_length_b       9.364
_cell_length_c       19.1309
_cell_angle_alpha    90
_cell_angle_beta     125.636
_cell_angle_gamma    90

_symmetry_space_group_name_H-M    "P 1"
_symmetry_int_tables_number       1

loop_
  _symmetry_equiv_pos_as_xyz
  'x, y, z'

loop_
  _atom_site_label
  _atom_site_occupancy
  _atom_site_fract_x
  _atom_site_fract_y
  _atom_site_fract_z
  _atom_site_thermal_displace_type
  _atom_site_B_iso_or_equiv
  _atom_site_type_symbol
  O1       1.0000 0.62315  0.46520  0.37229  Biso   1.000  O
  O2       1.0000 0.57286  0.67580  0.34033  Biso   1.000  O
  O3       1.0000 0.53089  0.54050  0.66387  Biso   1.000  O
  O4       1.0000 0.54353  0.76820  0.70250  Biso   1.000  O
  C1       1.0000 0.62379  0.59690  0.38313  Biso   1.000  C
  C2       1.0000 0.55090  0.66610  0.66683  Biso   1.000  C
  C3       1.0000 0.73495  0.68560  0.42668  Biso   1.000  C
  H1       1.0000 0.72460  0.64090  0.37690  Biso   1.000  H
  C4       1.0000 0.69011  0.67130  0.44869  Biso   1.000  C
  C5       1.0000 0.70520  0.73630  0.52448  Biso   1.000  C
  C6       1.0000 0.66134  0.72130  0.55521  Biso   1.000  C
  C7       1.0000 0.62844  0.59320  0.54605  Biso   1.000  C
  H2       1.0000 0.63120  0.51750  0.51680  Biso   1.000  H
  C8       1.0000 0.59180  0.57760  0.57998  Biso   1.000  C
  H3       1.0000 0.56960  0.49190  0.57240  Biso   1.000  H
  C9       1.0000 0.58755  0.68790  0.62525  Biso   1.000  C
  C10      1.0000 0.61882  0.81670  0.63275  Biso   1.000  C
  H4       1.0000 0.61510  0.89280  0.66100  Biso   1.000  H
  C11      1.0000 0.65549  0.83340  0.59862  Biso   1.000  C
  H5       1.0000 0.67640  0.92020  0.60470  Biso   1.000  H
  O5       1.0000 0.12315  0.96520  0.37229  Biso   1.000  O
  O6       1.0000 0.07286  0.17580  0.34033  Biso   1.000  O
  O7       1.0000 0.03089  0.04050  0.66387  Biso   1.000  O
  O8       1.0000 0.04353  0.26820  0.70250  Biso   1.000  O
  C12      1.0000 0.12379  0.09690  0.38313  Biso   1.000  C
  C13      1.0000 0.05090  0.16610  0.66683  Biso   1.000  C
  C14      1.0000 0.23495  0.18560  0.42668  Biso   1.000  C
  H6       1.0000 0.22460  0.14090  0.37690  Biso   1.000  H
  C15      1.0000 0.19011  0.17130  0.44869  Biso   1.000  C
  C16      1.0000 0.20520  0.23630  0.52448  Biso   1.000  C
  C17      1.0000 0.16134  0.22130  0.55521  Biso   1.000  C
  C18      1.0000 0.12844  0.09320  0.54605  Biso   1.000  C
  H7       1.0000 0.13120  0.01750  0.51680  Biso   1.000  H
  C19      1.0000 0.09180  0.07760  0.57998  Biso   1.000  C
  H8       1.0000 0.06960  0.99190  0.57240  Biso   1.000  H
  C20      1.0000 0.08755  0.18790  0.62525  Biso   1.000  C
  C21      1.0000 0.11882  0.31670  0.63275  Biso   1.000  C
  H9       1.0000 0.11510  0.39280  0.66100  Biso   1.000  H
  C22      1.0000 0.15549  0.33340  0.59862  Biso   1.000  C
  H10      1.0000 0.17640  0.42020  0.60470  Biso   1.000  H
  O9       1.0000 0.37685  0.46520  0.12771  Biso   1.000  O
  O10      1.0000 0.42714  0.67580  0.15967  Biso   1.000  O
  O11      1.0000 0.46911  0.54050  0.83613  Biso   1.000  O
  O12      1.0000 0.45647  0.76820  0.79750  Biso   1.000  O
  C23      1.0000 0.37621  0.59690  0.11687  Biso   1.000  C
  C24      1.0000 0.44910  0.66610  0.83317  Biso   1.000  C
  C25      1.0000 0.26505  0.68560  0.07332  Biso   1.000  C
  H11      1.0000 0.27540  0.64090  0.12310  Biso   1.000  H
  C26      1.0000 0.30989  0.67130  0.05131  Biso   1.000  C
  C27      1.0000 0.29480  0.73630  0.97552  Biso   1.000  C
  C28      1.0000 0.33866  0.72130  0.94479  Biso   1.000  C
  C29      1.0000 0.37156  0.59320  0.95395  Biso   1.000  C
  H12      1.0000 0.36880  0.51750  0.98320  Biso   1.000  H
  C30      1.0000 0.40820  0.57760  0.92002  Biso   1.000  C
  H13      1.0000 0.43040  0.49190  0.92760  Biso   1.000  H
  C31      1.0000 0.41245  0.68790  0.87475  Biso   1.000  C
  C32      1.0000 0.38118  0.81670  0.86725  Biso   1.000  C
  H14      1.0000 0.38490  0.89280  0.83900  Biso   1.000  H
  C33      1.0000 0.34451  0.83340  0.90138  Biso   1.000  C
  H15      1.0000 0.32360  0.92020  0.89530  Biso   1.000  H
  O13      1.0000 0.87685  0.96520  0.12771  Biso   1.000  O
  O14      1.0000 0.92714  0.17580  0.15967  Biso   1.000  O
  O15      1.0000 0.96911  0.04050  0.83613  Biso   1.000  O
  O16      1.0000 0.95647  0.26820  0.79750  Biso   1.000  O
  C34      1.0000 0.87621  0.09690  0.11687  Biso   1.000  C
  C35      1.0000 0.94910  0.16610  0.83317  Biso   1.000  C
  C36      1.0000 0.76505  0.18560  0.07332  Biso   1.000  C
  H16      1.0000 0.77540  0.14090  0.12310  Biso   1.000  H
  C37      1.0000 0.80989  0.17130  0.05131  Biso   1.000  C
  C38      1.0000 0.79480  0.23630  0.97552  Biso   1.000  C
  C39      1.0000 0.83866  0.22130  0.94479  Biso   1.000  C
  C40      1.0000 0.87156  0.09320  0.95395  Biso   1.000  C
  H17      1.0000 0.86880  0.01750  0.98320  Biso   1.000  H
  C41      1.0000 0.90820  0.07760  0.92002  Biso   1.000  C
  H18      1.0000 0.93040  0.99190  0.92760  Biso   1.000  H
  C42      1.0000 0.91245  0.18790  0.87475  Biso   1.000  C
  C43      1.0000 0.88118  0.31670  0.86725  Biso   1.000  C
  H19      1.0000 0.88490  0.39280  0.83900  Biso   1.000  H
  C44      1.0000 0.84451  0.33340  0.90138  Biso   1.000  C
  H20      1.0000 0.82360  0.42020  0.89530  Biso   1.000  H
  O17      1.0000 0.37685  0.53480  0.62771  Biso   1.000  O
  O18      1.0000 0.42714  0.32420  0.65967  Biso   1.000  O
  O19      1.0000 0.46911  0.45950  0.33613  Biso   1.000  O
  O20      1.0000 0.45647  0.23180  0.29750  Biso   1.000  O
  C45      1.0000 0.37621  0.40310  0.61687  Biso   1.000  C
  C46      1.0000 0.44910  0.33390  0.33317  Biso   1.000  C
  C47      1.0000 0.26505  0.31440  0.57332  Biso   1.000  C
  H21      1.0000 0.27540  0.35910  0.62310  Biso   1.000  H
  C48      1.0000 0.30989  0.32870  0.55131  Biso   1.000  C
  C49      1.0000 0.29480  0.26370  0.47552  Biso   1.000  C
  C50      1.0000 0.33866  0.27870  0.44479  Biso   1.000  C
  C51      1.0000 0.37156  0.40680  0.45395  Biso   1.000  C
  H22      1.0000 0.36880  0.48250  0.48320  Biso   1.000  H
  C52      1.0000 0.40820  0.42240  0.42002  Biso   1.000  C
  H23      1.0000 0.43040  0.50810  0.42760  Biso   1.000  H
  C53      1.0000 0.41245  0.31210  0.37475  Biso   1.000  C
  C54      1.0000 0.38118  0.18330  0.36725  Biso   1.000  C
  H24      1.0000 0.38490  0.10720  0.33900  Biso   1.000  H
  C55      1.0000 0.34451  0.16660  0.40138  Biso   1.000  C
  H25      1.0000 0.32360  0.07980  0.39530  Biso   1.000  H
  O21      1.0000 0.87685  0.03480  0.62771  Biso   1.000  O
  O22      1.0000 0.92714  0.82420  0.65967  Biso   1.000  O
  O23      1.0000 0.96911  0.95950  0.33613  Biso   1.000  O
  O24      1.0000 0.95647  0.73180  0.29750  Biso   1.000  O
  C56      1.0000 0.87621  0.90310  0.61687  Biso   1.000  C
  C57      1.0000 0.94910  0.83390  0.33317  Biso   1.000  C
  C58      1.0000 0.76505  0.81440  0.57332  Biso   1.000  C
  H26      1.0000 0.77540  0.85910  0.62310  Biso   1.000  H
  C59      1.0000 0.80989  0.82870  0.55131  Biso   1.000  C
  C60      1.0000 0.79480  0.76370  0.47552  Biso   1.000  C
  C61      1.0000 0.83866  0.77870  0.44479  Biso   1.000  C
  C62      1.0000 0.87156  0.90680  0.45395  Biso   1.000  C
  H27      1.0000 0.86880  0.98250  0.48320  Biso   1.000  H
  C63      1.0000 0.90820  0.92240  0.42002  Biso   1.000  C
  H28      1.0000 0.93040  0.00810  0.42760  Biso   1.000  H
  C64      1.0000 0.91245  0.81210  0.37475  Biso   1.000  C
  C65      1.0000 0.88118  0.68330  0.36725  Biso   1.000  C
  H29      1.0000 0.88490  0.60720  0.33900  Biso   1.000  H
  C66      1.0000 0.84451  0.66660  0.40138  Biso   1.000  C
  H30      1.0000 0.82360  0.57980  0.39530  Biso   1.000  H
  O25      1.0000 0.62315  0.53480  0.87229  Biso   1.000  O
  O26      1.0000 0.57286  0.32420  0.84033  Biso   1.000  O
  O27      1.0000 0.53089  0.45950  0.16387  Biso   1.000  O
  O28      1.0000 0.54353  0.23180  0.20250  Biso   1.000  O
  C67      1.0000 0.62379  0.40310  0.88313  Biso   1.000  C
  C68      1.0000 0.55090  0.33390  0.16683  Biso   1.000  C
  C69      1.0000 0.73495  0.31440  0.92668  Biso   1.000  C
  H31      1.0000 0.72460  0.35910  0.87690  Biso   1.000  H
  C70      1.0000 0.69011  0.32870  0.94869  Biso   1.000  C
  C71      1.0000 0.70520  0.26370  0.02448  Biso   1.000  C
  C72      1.0000 0.66134  0.27870  0.05521  Biso   1.000  C
  C73      1.0000 0.62844  0.40680  0.04605  Biso   1.000  C
  H32      1.0000 0.63120  0.48250  0.01680  Biso   1.000  H
  C74      1.0000 0.59180  0.42240  0.07998  Biso   1.000  C
  H33      1.0000 0.56960  0.50810  0.07240  Biso   1.000  H
  C75      1.0000 0.58755  0.31210  0.12525  Biso   1.000  C
  C76      1.0000 0.61882  0.18330  0.13275  Biso   1.000  C
  H34      1.0000 0.61510  0.10720  0.16100  Biso   1.000  H
  C77      1.0000 0.65549  0.16660  0.09862  Biso   1.000  C
  H35      1.0000 0.67640  0.07980  0.10470  Biso   1.000  H
  O29      1.0000 0.12315  0.03480  0.87229  Biso   1.000  O
  O30      1.0000 0.07286  0.82420  0.84033  Biso   1.000  O
  O31      1.0000 0.03089  0.95950  0.16387  Biso   1.000  O
  O32      1.0000 0.04353  0.73180  0.20250  Biso   1.000  O
  C78      1.0000 0.12379  0.90310  0.88313  Biso   1.000  C
  C79      1.0000 0.05090  0.83390  0.16683  Biso   1.000  C
  C80      1.0000 0.23495  0.81440  0.92668  Biso   1.000  C
  H36      1.0000 0.22460  0.85910  0.87690  Biso   1.000  H
  C81      1.0000 0.19011  0.82870  0.94869  Biso   1.000  C
  C82      1.0000 0.20520  0.76370  0.02448  Biso   1.000  C
  C83      1.0000 0.16134  0.77870  0.05521  Biso   1.000  C
  C84      1.0000 0.12844  0.90680  0.04605  Biso   1.000  C
  H37      1.0000 0.13120  0.98250  0.01680  Biso   1.000  H
  C85      1.0000 0.09180  0.92240  0.07998  Biso   1.000  C
  H38      1.0000 0.06960  0.00810  0.07240  Biso   1.000  H
  C86      1.0000 0.08755  0.81210  0.12525  Biso   1.000  C
  C87      1.0000 0.11882  0.68330  0.13275  Biso   1.000  C
  H39      1.0000 0.11510  0.60720  0.16100  Biso   1.000  H
  C88      1.0000 0.15549  0.66660  0.09862  Biso   1.000  C
  H40      1.0000 0.17640  0.57980  0.10470  Biso   1.000  H
  Cd1      1.0000 0.50000  0.49656  0.25000  Biso   1.000  Cd
  Cd2      1.0000 0.00000  0.99656  0.25000  Biso   1.000  Cd
  Cd3      1.0000 0.50000  0.50344  0.75000  Biso   1.000  Cd
  Cd4      1.0000 0.00000  0.00344  0.75000  Biso   1.000  Cd
