data_image0
_cell_length_a       15.7166
_cell_length_b       15.7166
_cell_length_c       32.137
_cell_angle_alpha    90
_cell_angle_beta     90
_cell_angle_gamma    90

_symmetry_space_group_name_H-M    "P 1"
_symmetry_int_tables_number       1

loop_
  _symmetry_equiv_pos_as_xyz
  'x, y, z'

loop_
  _atom_site_label
  _atom_site_occupancy
  _atom_site_fract_x
  _atom_site_fract_y
  _atom_site_fract_z
  _atom_site_thermal_displace_type
  _atom_site_B_iso_or_equiv
  _atom_site_type_symbol
  Cd1      1.0000 0.27199  0.72829  0.07957  Biso   1.000  Cd
  O1       1.0000 0.30940  0.58650  0.10950  Biso   1.000  O
  O2       1.0000 0.19400  0.65030  0.12890  Biso   1.000  O
  O3       1.0000 0.25940  0.34040  0.28920  Biso   1.000  O
  O4       1.0000 0.13130  0.30380  0.26630  Biso   1.000  O
  O5       1.0000 0.72210  0.64850  0.13360  Biso   1.000  O
  O6       1.0000 0.84280  0.70150  0.11120  Biso   1.000  O
  O7       1.0000 0.69540  0.39070  0.95790  Biso   1.000  O
  O8       1.0000 0.82560  0.35170  0.96980  Biso   1.000  O
  C1       1.0000 0.24600  0.59670  0.13060  Biso   1.000  C
  C2       1.0000 0.19690  0.34500  0.26310  Biso   1.000  C
  C3       1.0000 0.22980  0.51740  0.16240  Biso   1.000  C
  C4       1.0000 0.15030  0.48400  0.16930  Biso   1.000  C
  C5       1.0000 0.13910  0.42860  0.20260  Biso   1.000  C
  H1       1.0000 0.08540  0.40600  0.20770  Biso   1.000  H
  C6       1.0000 0.20620  0.40640  0.22840  Biso   1.000  C
  C7       1.0000 0.28840  0.43810  0.22010  Biso   1.000  C
  H2       1.0000 0.33470  0.42350  0.23660  Biso   1.000  H
  C8       1.0000 0.29780  0.49290  0.18570  Biso   1.000  C
  H3       1.0000 0.35170  0.51270  0.17870  Biso   1.000  H
  C9       1.0000 0.78420  0.65020  0.11020  Biso   1.000  C
  C10      1.0000 0.76210  0.39720  0.97650  Biso   1.000  C
  C11      1.0000 0.78130  0.58080  0.07600  Biso   1.000  C
  C12      1.0000 0.85080  0.52520  0.06840  Biso   1.000  C
  C13      1.0000 0.84390  0.47080  0.03500  Biso   1.000  C
  H4       1.0000 0.89020  0.43670  0.02810  Biso   1.000  H
  C14      1.0000 0.76690  0.46440  0.00990  Biso   1.000  C
  C15      1.0000 0.70100  0.51680  0.01920  Biso   1.000  C
  H5       1.0000 0.65120  0.51520  0.00360  Biso   1.000  H
  C16      1.0000 0.70880  0.57280  0.05240  Biso   1.000  C
  H6       1.0000 0.66240  0.60700  0.05900  Biso   1.000  H
  C17      1.0000 0.07530  0.50280  0.14330  Biso   1.000  C
  C18      1.0000 0.08140  0.50500  0.10020  Biso   1.000  C
  H7       1.0000 0.13420  0.49990  0.08740  Biso   1.000  H
  C19      1.0000 0.00850  0.51480  0.07590  Biso   1.000  C
  H8       1.0000 0.01420  0.51370  0.04710  Biso   1.000  H
  C20      1.0000 0.92920  0.52600  0.09230  Biso   1.000  C
  C21      1.0000 0.92300  0.52750  0.13740  Biso   1.000  C
  H9       1.0000 0.87040  0.53540  0.15010  Biso   1.000  H
  C22      1.0000 0.99420  0.51730  0.16120  Biso   1.000  C
  H10      1.0000 0.98940  0.51990  0.19000  Biso   1.000  H
  Cd2      1.0000 0.72801  0.27171  0.57957  Biso   1.000  Cd
  O9       1.0000 0.69060  0.41350  0.60950  Biso   1.000  O
  O10      1.0000 0.80600  0.34970  0.62890  Biso   1.000  O
  O11      1.0000 0.74060  0.65960  0.78920  Biso   1.000  O
  O12      1.0000 0.86870  0.69620  0.76630  Biso   1.000  O
  O13      1.0000 0.27790  0.35150  0.63360  Biso   1.000  O
  O14      1.0000 0.15720  0.29850  0.61120  Biso   1.000  O
  O15      1.0000 0.30460  0.60930  0.45790  Biso   1.000  O
  O16      1.0000 0.17440  0.64830  0.46980  Biso   1.000  O
  C23      1.0000 0.75400  0.40330  0.63060  Biso   1.000  C
  C24      1.0000 0.80310  0.65500  0.76310  Biso   1.000  C
  C25      1.0000 0.77020  0.48260  0.66240  Biso   1.000  C
  C26      1.0000 0.84970  0.51600  0.66930  Biso   1.000  C
  C27      1.0000 0.86090  0.57140  0.70260  Biso   1.000  C
  H11      1.0000 0.91460  0.59400  0.70770  Biso   1.000  H
  C28      1.0000 0.79380  0.59360  0.72840  Biso   1.000  C
  C29      1.0000 0.71160  0.56190  0.72010  Biso   1.000  C
  H12      1.0000 0.66530  0.57650  0.73660  Biso   1.000  H
  C30      1.0000 0.70220  0.50710  0.68570  Biso   1.000  C
  H13      1.0000 0.64830  0.48730  0.67870  Biso   1.000  H
  C31      1.0000 0.21580  0.34980  0.61020  Biso   1.000  C
  C32      1.0000 0.23790  0.60280  0.47650  Biso   1.000  C
  C33      1.0000 0.21870  0.41920  0.57600  Biso   1.000  C
  C34      1.0000 0.14920  0.47480  0.56840  Biso   1.000  C
  C35      1.0000 0.15610  0.52920  0.53500  Biso   1.000  C
  H14      1.0000 0.10980  0.56330  0.52810  Biso   1.000  H
  C36      1.0000 0.23310  0.53560  0.50990  Biso   1.000  C
  C37      1.0000 0.29900  0.48320  0.51920  Biso   1.000  C
  H15      1.0000 0.34880  0.48480  0.50360  Biso   1.000  H
  C38      1.0000 0.29120  0.42720  0.55240  Biso   1.000  C
  H16      1.0000 0.33760  0.39300  0.55900  Biso   1.000  H
  C39      1.0000 0.92470  0.49720  0.64330  Biso   1.000  C
  C40      1.0000 0.91860  0.49500  0.60020  Biso   1.000  C
  H17      1.0000 0.86580  0.50010  0.58740  Biso   1.000  H
  C41      1.0000 0.99150  0.48520  0.57590  Biso   1.000  C
  H18      1.0000 0.98580  0.48630  0.54710  Biso   1.000  H
  C42      1.0000 0.07080  0.47400  0.59230  Biso   1.000  C
  C43      1.0000 0.07700  0.47250  0.63740  Biso   1.000  C
  H19      1.0000 0.12960  0.46460  0.65010  Biso   1.000  H
  C44      1.0000 0.00580  0.48270  0.66120  Biso   1.000  C
  H20      1.0000 0.01060  0.48010  0.69000  Biso   1.000  H
  Cd3      1.0000 0.77171  0.77199  0.82957  Biso   1.000  Cd
  O17      1.0000 0.91350  0.80940  0.85950  Biso   1.000  O
  O18      1.0000 0.84970  0.69400  0.87890  Biso   1.000  O
  O19      1.0000 0.15960  0.75940  0.03920  Biso   1.000  O
  O20      1.0000 0.19620  0.63130  0.01630  Biso   1.000  O
  O21      1.0000 0.85150  0.22210  0.88360  Biso   1.000  O
  O22      1.0000 0.79850  0.34280  0.86120  Biso   1.000  O
  O23      1.0000 0.10930  0.19540  0.70790  Biso   1.000  O
  O24      1.0000 0.14830  0.32560  0.71980  Biso   1.000  O
  C45      1.0000 0.90330  0.74600  0.88060  Biso   1.000  C
  C46      1.0000 0.15500  0.69690  0.01310  Biso   1.000  C
  C47      1.0000 0.98260  0.72980  0.91240  Biso   1.000  C
  C48      1.0000 0.01600  0.65030  0.91930  Biso   1.000  C
  C49      1.0000 0.07140  0.63910  0.95260  Biso   1.000  C
  H21      1.0000 0.09400  0.58540  0.95770  Biso   1.000  H
  C50      1.0000 0.09360  0.70620  0.97840  Biso   1.000  C
  C51      1.0000 0.06190  0.78840  0.97010  Biso   1.000  C
  H22      1.0000 0.07650  0.83470  0.98660  Biso   1.000  H
  C52      1.0000 0.00710  0.79780  0.93570  Biso   1.000  C
  H23      1.0000 0.98730  0.85170  0.92870  Biso   1.000  H
  C53      1.0000 0.84980  0.28420  0.86020  Biso   1.000  C
  C54      1.0000 0.10280  0.26210  0.72650  Biso   1.000  C
  C55      1.0000 0.91920  0.28130  0.82600  Biso   1.000  C
  C56      1.0000 0.97480  0.35080  0.81840  Biso   1.000  C
  C57      1.0000 0.02920  0.34390  0.78500  Biso   1.000  C
  H24      1.0000 0.06330  0.39020  0.77810  Biso   1.000  H
  C58      1.0000 0.03560  0.26690  0.75990  Biso   1.000  C
  C59      1.0000 0.98320  0.20100  0.76920  Biso   1.000  C
  H25      1.0000 0.98480  0.15120  0.75360  Biso   1.000  H
  C60      1.0000 0.92720  0.20880  0.80240  Biso   1.000  C
  H26      1.0000 0.89300  0.16240  0.80900  Biso   1.000  H
  C61      1.0000 0.99720  0.57530  0.89330  Biso   1.000  C
  C62      1.0000 0.99500  0.58140  0.85020  Biso   1.000  C
  H27      1.0000 0.00010  0.63420  0.83740  Biso   1.000  H
  C63      1.0000 0.98520  0.50850  0.82590  Biso   1.000  C
  H28      1.0000 0.98630  0.51420  0.79710  Biso   1.000  H
  C64      1.0000 0.97400  0.42920  0.84230  Biso   1.000  C
  C65      1.0000 0.97250  0.42300  0.88740  Biso   1.000  C
  H29      1.0000 0.96460  0.37040  0.90010  Biso   1.000  H
  C66      1.0000 0.98270  0.49420  0.91120  Biso   1.000  C
  H30      1.0000 0.98010  0.48940  0.94000  Biso   1.000  H
  Cd4      1.0000 0.22829  0.22801  0.32957  Biso   1.000  Cd
  O25      1.0000 0.08650  0.19060  0.35950  Biso   1.000  O
  O26      1.0000 0.15030  0.30600  0.37890  Biso   1.000  O
  O27      1.0000 0.84040  0.24060  0.53920  Biso   1.000  O
  O28      1.0000 0.80380  0.36870  0.51630  Biso   1.000  O
  O29      1.0000 0.14850  0.77790  0.38360  Biso   1.000  O
  O30      1.0000 0.20150  0.65720  0.36120  Biso   1.000  O
  O31      1.0000 0.89070  0.80460  0.20790  Biso   1.000  O
  O32      1.0000 0.85170  0.67440  0.21980  Biso   1.000  O
  C67      1.0000 0.09670  0.25400  0.38060  Biso   1.000  C
  C68      1.0000 0.84500  0.30310  0.51310  Biso   1.000  C
  C69      1.0000 0.01740  0.27020  0.41240  Biso   1.000  C
  C70      1.0000 0.98400  0.34970  0.41930  Biso   1.000  C
  C71      1.0000 0.92860  0.36090  0.45260  Biso   1.000  C
  H31      1.0000 0.90600  0.41460  0.45770  Biso   1.000  H
  C72      1.0000 0.90640  0.29380  0.47840  Biso   1.000  C
  C73      1.0000 0.93810  0.21160  0.47010  Biso   1.000  C
  H32      1.0000 0.92350  0.16530  0.48660  Biso   1.000  H
  C74      1.0000 0.99290  0.20220  0.43570  Biso   1.000  C
  H33      1.0000 0.01270  0.14830  0.42870  Biso   1.000  H
  C75      1.0000 0.15020  0.71580  0.36020  Biso   1.000  C
  C76      1.0000 0.89720  0.73790  0.22650  Biso   1.000  C
  C77      1.0000 0.08080  0.71870  0.32600  Biso   1.000  C
  C78      1.0000 0.02520  0.64920  0.31840  Biso   1.000  C
  C79      1.0000 0.97080  0.65610  0.28500  Biso   1.000  C
  H34      1.0000 0.93670  0.60980  0.27810  Biso   1.000  H
  C80      1.0000 0.96440  0.73310  0.25990  Biso   1.000  C
  C81      1.0000 0.01680  0.79900  0.26920  Biso   1.000  C
  H35      1.0000 0.01520  0.84880  0.25360  Biso   1.000  H
  C82      1.0000 0.07280  0.79120  0.30240  Biso   1.000  C
  H36      1.0000 0.10700  0.83760  0.30900  Biso   1.000  H
  C83      1.0000 0.00280  0.42470  0.39330  Biso   1.000  C
  C84      1.0000 0.00500  0.41860  0.35020  Biso   1.000  C
  H37      1.0000 0.99990  0.36580  0.33740  Biso   1.000  H
  C85      1.0000 0.01480  0.49150  0.32590  Biso   1.000  C
  H38      1.0000 0.01370  0.48580  0.29710  Biso   1.000  H
  C86      1.0000 0.02600  0.57080  0.34230  Biso   1.000  C
  C87      1.0000 0.02750  0.57700  0.38740  Biso   1.000  C
  H39      1.0000 0.03540  0.62960  0.40010  Biso   1.000  H
  C88      1.0000 0.01730  0.50580  0.41120  Biso   1.000  C
  H40      1.0000 0.01990  0.51060  0.44000  Biso   1.000  H
  Cd5      1.0000 0.22801  0.22829  0.67043  Biso   1.000  Cd
  O33      1.0000 0.19060  0.08650  0.64050  Biso   1.000  O
  O34      1.0000 0.30600  0.15030  0.62110  Biso   1.000  O
  O35      1.0000 0.24060  0.84040  0.46080  Biso   1.000  O
  O36      1.0000 0.36870  0.80380  0.48370  Biso   1.000  O
  O37      1.0000 0.77790  0.14850  0.61640  Biso   1.000  O
  O38      1.0000 0.65720  0.20150  0.63880  Biso   1.000  O
  O39      1.0000 0.80460  0.89070  0.79210  Biso   1.000  O
  O40      1.0000 0.67440  0.85170  0.78020  Biso   1.000  O
  C89      1.0000 0.25400  0.09670  0.61940  Biso   1.000  C
  C90      1.0000 0.30310  0.84500  0.48690  Biso   1.000  C
  C91      1.0000 0.27020  0.01740  0.58760  Biso   1.000  C
  C92      1.0000 0.34970  0.98400  0.58070  Biso   1.000  C
  C93      1.0000 0.36090  0.92860  0.54740  Biso   1.000  C
  H41      1.0000 0.41460  0.90600  0.54230  Biso   1.000  H
  C94      1.0000 0.29380  0.90640  0.52160  Biso   1.000  C
  C95      1.0000 0.21160  0.93810  0.52990  Biso   1.000  C
  H42      1.0000 0.16530  0.92350  0.51340  Biso   1.000  H
  C96      1.0000 0.20220  0.99290  0.56430  Biso   1.000  C
  H43      1.0000 0.14830  0.01270  0.57130  Biso   1.000  H
  C97      1.0000 0.71580  0.15020  0.63980  Biso   1.000  C
  C98      1.0000 0.73790  0.89720  0.77350  Biso   1.000  C
  C99      1.0000 0.71870  0.08080  0.67400  Biso   1.000  C
  C100     1.0000 0.64920  0.02520  0.68160  Biso   1.000  C
  C101     1.0000 0.65610  0.97080  0.71500  Biso   1.000  C
  H44      1.0000 0.60980  0.93670  0.72190  Biso   1.000  H
  C102     1.0000 0.73310  0.96440  0.74010  Biso   1.000  C
  C103     1.0000 0.79900  0.01680  0.73080  Biso   1.000  C
  H45      1.0000 0.84880  0.01520  0.74640  Biso   1.000  H
  C104     1.0000 0.79120  0.07280  0.69760  Biso   1.000  C
  H46      1.0000 0.83760  0.10700  0.69100  Biso   1.000  H
  C105     1.0000 0.42470  0.00280  0.60670  Biso   1.000  C
  C106     1.0000 0.41860  0.00500  0.64980  Biso   1.000  C
  H47      1.0000 0.36580  0.99990  0.66260  Biso   1.000  H
  C107     1.0000 0.49150  0.01480  0.67410  Biso   1.000  C
  H48      1.0000 0.48580  0.01370  0.70290  Biso   1.000  H
  C108     1.0000 0.57080  0.02600  0.65770  Biso   1.000  C
  C109     1.0000 0.57700  0.02750  0.61260  Biso   1.000  C
  H49      1.0000 0.62960  0.03540  0.59990  Biso   1.000  H
  C110     1.0000 0.50580  0.01730  0.58880  Biso   1.000  C
  H50      1.0000 0.51060  0.01990  0.56000  Biso   1.000  H
  Cd6      1.0000 0.77199  0.77171  0.17043  Biso   1.000  Cd
  O41      1.0000 0.80940  0.91350  0.14050  Biso   1.000  O
  O42      1.0000 0.69400  0.84970  0.12110  Biso   1.000  O
  O43      1.0000 0.75940  0.15960  0.96080  Biso   1.000  O
  O44      1.0000 0.63130  0.19620  0.98370  Biso   1.000  O
  O45      1.0000 0.22210  0.85150  0.11640  Biso   1.000  O
  O46      1.0000 0.34280  0.79850  0.13880  Biso   1.000  O
  O47      1.0000 0.19540  0.10930  0.29210  Biso   1.000  O
  O48      1.0000 0.32560  0.14830  0.28020  Biso   1.000  O
  C111     1.0000 0.74600  0.90330  0.11940  Biso   1.000  C
  C112     1.0000 0.69690  0.15500  0.98690  Biso   1.000  C
  C113     1.0000 0.72980  0.98260  0.08760  Biso   1.000  C
  C114     1.0000 0.65030  0.01600  0.08070  Biso   1.000  C
  C115     1.0000 0.63910  0.07140  0.04740  Biso   1.000  C
  H51      1.0000 0.58540  0.09400  0.04230  Biso   1.000  H
  C116     1.0000 0.70620  0.09360  0.02160  Biso   1.000  C
  C117     1.0000 0.78840  0.06190  0.02990  Biso   1.000  C
  H52      1.0000 0.83470  0.07650  0.01340  Biso   1.000  H
  C118     1.0000 0.79780  0.00710  0.06430  Biso   1.000  C
  H53      1.0000 0.85170  0.98730  0.07130  Biso   1.000  H
  C119     1.0000 0.28420  0.84980  0.13980  Biso   1.000  C
  C120     1.0000 0.26210  0.10280  0.27350  Biso   1.000  C
  C121     1.0000 0.28130  0.91920  0.17400  Biso   1.000  C
  C122     1.0000 0.35080  0.97480  0.18160  Biso   1.000  C
  C123     1.0000 0.34390  0.02920  0.21500  Biso   1.000  C
  H54      1.0000 0.39020  0.06330  0.22190  Biso   1.000  H
  C124     1.0000 0.26690  0.03560  0.24010  Biso   1.000  C
  C125     1.0000 0.20100  0.98320  0.23080  Biso   1.000  C
  H55      1.0000 0.15120  0.98480  0.24640  Biso   1.000  H
  C126     1.0000 0.20880  0.92720  0.19760  Biso   1.000  C
  H56      1.0000 0.16240  0.89300  0.19100  Biso   1.000  H
  C127     1.0000 0.57530  0.99720  0.10670  Biso   1.000  C
  C128     1.0000 0.58140  0.99500  0.14980  Biso   1.000  C
  H57      1.0000 0.63420  0.00010  0.16260  Biso   1.000  H
  C129     1.0000 0.50850  0.98520  0.17410  Biso   1.000  C
  H58      1.0000 0.51420  0.98630  0.20290  Biso   1.000  H
  C130     1.0000 0.42920  0.97400  0.15770  Biso   1.000  C
  C131     1.0000 0.42300  0.97250  0.11260  Biso   1.000  C
  H59      1.0000 0.37040  0.96460  0.09990  Biso   1.000  H
  C132     1.0000 0.49420  0.98270  0.08880  Biso   1.000  C
  H60      1.0000 0.48940  0.98010  0.06000  Biso   1.000  H
  Cd7      1.0000 0.72829  0.27199  0.92043  Biso   1.000  Cd
  O49      1.0000 0.58650  0.30940  0.89050  Biso   1.000  O
  O50      1.0000 0.65030  0.19400  0.87110  Biso   1.000  O
  O51      1.0000 0.34040  0.25940  0.71080  Biso   1.000  O
  O52      1.0000 0.30380  0.13130  0.73370  Biso   1.000  O
  O53      1.0000 0.64850  0.72210  0.86640  Biso   1.000  O
  O54      1.0000 0.70150  0.84280  0.88880  Biso   1.000  O
  O55      1.0000 0.39070  0.69540  0.04210  Biso   1.000  O
  O56      1.0000 0.35170  0.82560  0.03020  Biso   1.000  O
  C133     1.0000 0.59670  0.24600  0.86940  Biso   1.000  C
  C134     1.0000 0.34500  0.19690  0.73690  Biso   1.000  C
  C135     1.0000 0.51740  0.22980  0.83760  Biso   1.000  C
  C136     1.0000 0.48400  0.15030  0.83070  Biso   1.000  C
  C137     1.0000 0.42860  0.13910  0.79740  Biso   1.000  C
  H61      1.0000 0.40600  0.08540  0.79230  Biso   1.000  H
  C138     1.0000 0.40640  0.20620  0.77160  Biso   1.000  C
  C139     1.0000 0.43810  0.28840  0.77990  Biso   1.000  C
  H62      1.0000 0.42350  0.33470  0.76340  Biso   1.000  H
  C140     1.0000 0.49290  0.29780  0.81430  Biso   1.000  C
  H63      1.0000 0.51270  0.35170  0.82130  Biso   1.000  H
  C141     1.0000 0.65020  0.78420  0.88980  Biso   1.000  C
  C142     1.0000 0.39720  0.76210  0.02350  Biso   1.000  C
  C143     1.0000 0.58080  0.78130  0.92400  Biso   1.000  C
  C144     1.0000 0.52520  0.85080  0.93160  Biso   1.000  C
  C145     1.0000 0.47080  0.84390  0.96500  Biso   1.000  C
  H64      1.0000 0.43670  0.89020  0.97190  Biso   1.000  H
  C146     1.0000 0.46440  0.76690  0.99010  Biso   1.000  C
  C147     1.0000 0.51680  0.70100  0.98080  Biso   1.000  C
  H65      1.0000 0.51520  0.65120  0.99640  Biso   1.000  H
  C148     1.0000 0.57280  0.70880  0.94760  Biso   1.000  C
  H66      1.0000 0.60700  0.66240  0.94100  Biso   1.000  H
  C149     1.0000 0.50280  0.07530  0.85670  Biso   1.000  C
  C150     1.0000 0.50500  0.08140  0.89980  Biso   1.000  C
  H67      1.0000 0.49990  0.13420  0.91260  Biso   1.000  H
  C151     1.0000 0.51480  0.00850  0.92410  Biso   1.000  C
  H68      1.0000 0.51370  0.01420  0.95290  Biso   1.000  H
  C152     1.0000 0.52600  0.92920  0.90770  Biso   1.000  C
  C153     1.0000 0.52750  0.92300  0.86260  Biso   1.000  C
  H69      1.0000 0.53540  0.87040  0.84990  Biso   1.000  H
  C154     1.0000 0.51730  0.99420  0.83880  Biso   1.000  C
  H70      1.0000 0.51990  0.98940  0.81000  Biso   1.000  H
  Cd8      1.0000 0.27171  0.72801  0.42043  Biso   1.000  Cd
  O57      1.0000 0.41350  0.69060  0.39050  Biso   1.000  O
  O58      1.0000 0.34970  0.80600  0.37110  Biso   1.000  O
  O59      1.0000 0.65960  0.74060  0.21080  Biso   1.000  O
  O60      1.0000 0.69620  0.86870  0.23370  Biso   1.000  O
  O61      1.0000 0.35150  0.27790  0.36640  Biso   1.000  O
  O62      1.0000 0.29850  0.15720  0.38880  Biso   1.000  O
  O63      1.0000 0.60930  0.30460  0.54210  Biso   1.000  O
  O64      1.0000 0.64830  0.17440  0.53020  Biso   1.000  O
  C155     1.0000 0.40330  0.75400  0.36940  Biso   1.000  C
  C156     1.0000 0.65500  0.80310  0.23690  Biso   1.000  C
  C157     1.0000 0.48260  0.77020  0.33760  Biso   1.000  C
  C158     1.0000 0.51600  0.84970  0.33070  Biso   1.000  C
  C159     1.0000 0.57140  0.86090  0.29740  Biso   1.000  C
  H71      1.0000 0.59400  0.91460  0.29230  Biso   1.000  H
  C160     1.0000 0.59360  0.79380  0.27160  Biso   1.000  C
  C161     1.0000 0.56190  0.71160  0.27990  Biso   1.000  C
  H72      1.0000 0.57650  0.66530  0.26340  Biso   1.000  H
  C162     1.0000 0.50710  0.70220  0.31430  Biso   1.000  C
  H73      1.0000 0.48730  0.64830  0.32130  Biso   1.000  H
  C163     1.0000 0.34980  0.21580  0.38980  Biso   1.000  C
  C164     1.0000 0.60280  0.23790  0.52350  Biso   1.000  C
  C165     1.0000 0.41920  0.21870  0.42400  Biso   1.000  C
  C166     1.0000 0.47480  0.14920  0.43160  Biso   1.000  C
  C167     1.0000 0.52920  0.15610  0.46500  Biso   1.000  C
  H74      1.0000 0.56330  0.10980  0.47190  Biso   1.000  H
  C168     1.0000 0.53560  0.23310  0.49010  Biso   1.000  C
  C169     1.0000 0.48320  0.29900  0.48080  Biso   1.000  C
  H75      1.0000 0.48480  0.34880  0.49640  Biso   1.000  H
  C170     1.0000 0.42720  0.29120  0.44760  Biso   1.000  C
  H76      1.0000 0.39300  0.33760  0.44100  Biso   1.000  H
  C171     1.0000 0.49720  0.92470  0.35670  Biso   1.000  C
  C172     1.0000 0.49500  0.91860  0.39980  Biso   1.000  C
  H77      1.0000 0.50010  0.86580  0.41260  Biso   1.000  H
  C173     1.0000 0.48520  0.99150  0.42410  Biso   1.000  C
  H78      1.0000 0.48630  0.98580  0.45290  Biso   1.000  H
  C174     1.0000 0.47400  0.07080  0.40770  Biso   1.000  C
  C175     1.0000 0.47250  0.07700  0.36260  Biso   1.000  C
  H79      1.0000 0.46460  0.12960  0.34990  Biso   1.000  H
  C176     1.0000 0.48270  0.00580  0.33880  Biso   1.000  C
  H80      1.0000 0.48010  0.01060  0.31000  Biso   1.000  H
