data_image0
_cell_length_a       7.5417
_cell_length_b       17.885
_cell_length_c       23.764
_cell_angle_alpha    92.498
_cell_angle_beta     90
_cell_angle_gamma    90

_symmetry_space_group_name_H-M    P 1
_symmetry_int_tables_number       1

loop_
  _symmetry_equiv_pos_as_xyz
  'x, y, z'

loop_
  _atom_site_label
  _atom_site_occupancy
  _atom_site_fract_x
  _atom_site_fract_y
  _atom_site_fract_z
  _atom_site_thermal_displace_type
  _atom_site_B_iso_or_equiv
  _atom_site_type_symbol
  Zn1      1.0000 0.97385  0.92156  0.96861  Biso   1.000  Zn
  Zn2      1.0000 0.29444  0.99051  0.91267  Biso   1.000  Zn
  Zn3      1.0000 0.97385  0.57844  0.53139  Biso   1.000  Zn
  Zn4      1.0000 0.29444  0.50949  0.58733  Biso   1.000  Zn
  Zn5      1.0000 0.02615  0.07844  0.03139  Biso   1.000  Zn
  Zn6      1.0000 0.70556  0.00949  0.08733  Biso   1.000  Zn
  Zn7      1.0000 0.02615  0.42156  0.46861  Biso   1.000  Zn
  Zn8      1.0000 0.70556  0.49051  0.41267  Biso   1.000  Zn
  H1       1.0000 0.49500  0.90990  0.73120  Biso   1.000  H
  H2       1.0000 0.74300  0.17620  0.72880  Biso   1.000  H
  H3       1.0000 0.73970  0.82610  0.64010  Biso   1.000  H
  H4       1.0000 0.06540  0.00490  0.75850  Biso   1.000  H
  H5       1.0000 0.93370  0.00930  0.67000  Biso   1.000  H
  H6       1.0000 0.07700  0.21250  0.86050  Biso   1.000  H
  H7       1.0000 0.16300  0.79830  0.57190  Biso   1.000  H
  H8       1.0000 0.55510  0.10890  0.78560  Biso   1.000  H
  H9       1.0000 0.88720  0.14670  0.91720  Biso   1.000  H
  H10      1.0000 0.62420  0.90930  0.81990  Biso   1.000  H
  H11      1.0000 0.62940  0.70720  0.61770  Biso   1.000  H
  H12      1.0000 0.27620  0.91760  0.59180  Biso   1.000  H
  H13      1.0000 0.93100  0.71380  0.03030  Biso   1.000  H
  H14      1.0000 0.79020  0.65150  0.00970  Biso   1.000  H
  H15      1.0000 0.81430  0.67180  0.07550  Biso   1.000  H
  H16      1.0000 0.41730  0.77120  0.04110  Biso   1.000  H
  H17      1.0000 0.48870  0.71690  0.08790  Biso   1.000  H
  H18      1.0000 0.46040  0.68550  0.02440  Biso   1.000  H
  H19      1.0000 0.62300  0.84880  0.01120  Biso   1.000  H
  H20      1.0000 0.49500  0.59010  0.76880  Biso   1.000  H
  H21      1.0000 0.74300  0.32380  0.77120  Biso   1.000  H
  H22      1.0000 0.73970  0.67390  0.85990  Biso   1.000  H
  H23      1.0000 0.06540  0.49510  0.74150  Biso   1.000  H
  H24      1.0000 0.93370  0.49070  0.83000  Biso   1.000  H
  H25      1.0000 0.07700  0.28750  0.63950  Biso   1.000  H
  H26      1.0000 0.16300  0.70170  0.92810  Biso   1.000  H
  H27      1.0000 0.55510  0.39110  0.71440  Biso   1.000  H
  H28      1.0000 0.88720  0.35330  0.58280  Biso   1.000  H
  H29      1.0000 0.62420  0.59070  0.68010  Biso   1.000  H
  H30      1.0000 0.62940  0.79280  0.88230  Biso   1.000  H
  H31      1.0000 0.27620  0.58240  0.90820  Biso   1.000  H
  H32      1.0000 0.93100  0.78620  0.46970  Biso   1.000  H
  H33      1.0000 0.79020  0.84850  0.49030  Biso   1.000  H
  H34      1.0000 0.81430  0.82820  0.42450  Biso   1.000  H
  H35      1.0000 0.41730  0.72880  0.45890  Biso   1.000  H
  H36      1.0000 0.48870  0.78310  0.41210  Biso   1.000  H
  H37      1.0000 0.46040  0.81450  0.47560  Biso   1.000  H
  H38      1.0000 0.62300  0.65120  0.48880  Biso   1.000  H
  H39      1.0000 0.50500  0.09010  0.26880  Biso   1.000  H
  H40      1.0000 0.25700  0.82380  0.27120  Biso   1.000  H
  H41      1.0000 0.26030  0.17390  0.35990  Biso   1.000  H
  H42      1.0000 0.93460  0.99510  0.24150  Biso   1.000  H
  H43      1.0000 0.06630  0.99070  0.33000  Biso   1.000  H
  H44      1.0000 0.92300  0.78750  0.13950  Biso   1.000  H
  H45      1.0000 0.83700  0.20170  0.42810  Biso   1.000  H
  H46      1.0000 0.44490  0.89110  0.21440  Biso   1.000  H
  H47      1.0000 0.11280  0.85330  0.08280  Biso   1.000  H
  H48      1.0000 0.37580  0.09070  0.18010  Biso   1.000  H
  H49      1.0000 0.37060  0.29280  0.38230  Biso   1.000  H
  H50      1.0000 0.72380  0.08240  0.40820  Biso   1.000  H
  H51      1.0000 0.06900  0.28620  0.96970  Biso   1.000  H
  H52      1.0000 0.20980  0.34850  0.99030  Biso   1.000  H
  H53      1.0000 0.18570  0.32820  0.92450  Biso   1.000  H
  H54      1.0000 0.58270  0.22880  0.95890  Biso   1.000  H
  H55      1.0000 0.51130  0.28310  0.91210  Biso   1.000  H
  H56      1.0000 0.53960  0.31450  0.97560  Biso   1.000  H
  H57      1.0000 0.37700  0.15120  0.98880  Biso   1.000  H
  H58      1.0000 0.50500  0.40990  0.23120  Biso   1.000  H
  H59      1.0000 0.25700  0.67620  0.22880  Biso   1.000  H
  H60      1.0000 0.26030  0.32610  0.14010  Biso   1.000  H
  H61      1.0000 0.93460  0.50490  0.25850  Biso   1.000  H
  H62      1.0000 0.06630  0.50930  0.17000  Biso   1.000  H
  H63      1.0000 0.92300  0.71250  0.36050  Biso   1.000  H
  H64      1.0000 0.83700  0.29830  0.07190  Biso   1.000  H
  H65      1.0000 0.44490  0.60890  0.28560  Biso   1.000  H
  H66      1.0000 0.11280  0.64670  0.41720  Biso   1.000  H
  H67      1.0000 0.37580  0.40930  0.31990  Biso   1.000  H
  H68      1.0000 0.37060  0.20720  0.11770  Biso   1.000  H
  H69      1.0000 0.72380  0.41760  0.09180  Biso   1.000  H
  H70      1.0000 0.06900  0.21380  0.53030  Biso   1.000  H
  H71      1.0000 0.20980  0.15150  0.50970  Biso   1.000  H
  H72      1.0000 0.18570  0.17180  0.57550  Biso   1.000  H
  H73      1.0000 0.58270  0.27120  0.54110  Biso   1.000  H
  H74      1.0000 0.51130  0.21690  0.58790  Biso   1.000  H
  H75      1.0000 0.53960  0.18550  0.52440  Biso   1.000  H
  H76      1.0000 0.37700  0.34880  0.51120  Biso   1.000  H
  C1       1.0000 0.30860  0.66409  0.58051  Biso   1.000  C
  C2       1.0000 0.61080  0.92980  0.73673  Biso   1.000  C
  C3       1.0000 0.92560  0.20415  0.78948  Biso   1.000  C
  C4       1.0000 0.77150  0.17115  0.76740  Biso   1.000  C
  C5       1.0000 0.69940  0.12328  0.85752  Biso   1.000  C
  C6       1.0000 0.94510  0.95721  0.85424  Biso   1.000  C
  C7       1.0000 0.60300  0.96104  0.63424  Biso   1.000  C
  C8       1.0000 0.51870  0.88390  0.61899  Biso   1.000  C
  C9       1.0000 0.70100  0.95960  0.69138  Biso   1.000  C
  C10      1.0000 0.85790  0.95706  0.79751  Biso   1.000  C
  C11      1.0000 0.62220  0.82057  0.62606  Biso   1.000  C
  C12      1.0000 0.94860  0.98614  0.75291  Biso   1.000  C
  C13      1.0000 0.46250  0.02466  0.64050  Biso   1.000  C
  C14      1.0000 0.87100  0.98826  0.70020  Biso   1.000  C
  C15      1.0000 0.96920  0.19290  0.84541  Biso   1.000  C
  C16      1.0000 0.16250  0.30663  0.78268  Biso   1.000  C
  C17      1.0000 0.28080  0.80396  0.58562  Biso   1.000  C
  C18      1.0000 0.65970  0.13113  0.80119  Biso   1.000  C
  C19      1.0000 0.72740  0.97944  0.58494  Biso   1.000  C
  C20      1.0000 0.85680  0.15341  0.87895  Biso   1.000  C
  C21      1.0000 0.57440  0.08264  0.89454  Biso   1.000  C
  C22      1.0000 0.68750  0.92898  0.78935  Biso   1.000  C
  C23      1.0000 0.55660  0.74986  0.61305  Biso   1.000  C
  C24      1.0000 0.34740  0.87493  0.59784  Biso   1.000  C
  C25      1.0000 0.38410  0.74080  0.59310  Biso   1.000  C
  C26      1.0000 0.71940  0.81687  0.01823  Biso   1.000  C
  C27      1.0000 0.81460  0.69194  0.03782  Biso   1.000  C
  C28      1.0000 0.49620  0.72910  0.04811  Biso   1.000  C
  C29      1.0000 0.30860  0.83591  0.91949  Biso   1.000  C
  C30      1.0000 0.61080  0.57020  0.76327  Biso   1.000  C
  C31      1.0000 0.92560  0.29585  0.71052  Biso   1.000  C
  C32      1.0000 0.77150  0.32885  0.73260  Biso   1.000  C
  C33      1.0000 0.69940  0.37672  0.64248  Biso   1.000  C
  C34      1.0000 0.94510  0.54279  0.64576  Biso   1.000  C
  C35      1.0000 0.60300  0.53896  0.86576  Biso   1.000  C
  C36      1.0000 0.51870  0.61610  0.88101  Biso   1.000  C
  C37      1.0000 0.70100  0.54040  0.80862  Biso   1.000  C
  C38      1.0000 0.85790  0.54294  0.70249  Biso   1.000  C
  C39      1.0000 0.62220  0.67943  0.87394  Biso   1.000  C
  C40      1.0000 0.94860  0.51386  0.74709  Biso   1.000  C
  C41      1.0000 0.46250  0.47534  0.85950  Biso   1.000  C
  C42      1.0000 0.87100  0.51174  0.79980  Biso   1.000  C
  C43      1.0000 0.96920  0.30710  0.65459  Biso   1.000  C
  C44      1.0000 0.16250  0.19337  0.71732  Biso   1.000  C
  C45      1.0000 0.28080  0.69604  0.91438  Biso   1.000  C
  C46      1.0000 0.65970  0.36887  0.69881  Biso   1.000  C
  C47      1.0000 0.72740  0.52056  0.91506  Biso   1.000  C
  C48      1.0000 0.85680  0.34659  0.62105  Biso   1.000  C
  C49      1.0000 0.57440  0.41736  0.60546  Biso   1.000  C
  C50      1.0000 0.68750  0.57102  0.71065  Biso   1.000  C
  C51      1.0000 0.55660  0.75014  0.88695  Biso   1.000  C
  C52      1.0000 0.34740  0.62507  0.90216  Biso   1.000  C
  C53      1.0000 0.38410  0.75920  0.90690  Biso   1.000  C
  C54      1.0000 0.71940  0.68313  0.48177  Biso   1.000  C
  C55      1.0000 0.81460  0.80806  0.46218  Biso   1.000  C
  C56      1.0000 0.49620  0.77090  0.45189  Biso   1.000  C
  C57      1.0000 0.69140  0.33591  0.41949  Biso   1.000  C
  C58      1.0000 0.38920  0.07020  0.26327  Biso   1.000  C
  C59      1.0000 0.07440  0.79585  0.21052  Biso   1.000  C
  C60      1.0000 0.22850  0.82885  0.23260  Biso   1.000  C
  C61      1.0000 0.30060  0.87672  0.14248  Biso   1.000  C
  C62      1.0000 0.05490  0.04279  0.14576  Biso   1.000  C
  C63      1.0000 0.39700  0.03896  0.36576  Biso   1.000  C
  C64      1.0000 0.48130  0.11610  0.38101  Biso   1.000  C
  C65      1.0000 0.29900  0.04040  0.30862  Biso   1.000  C
  C66      1.0000 0.14210  0.04294  0.20249  Biso   1.000  C
  C67      1.0000 0.37780  0.17943  0.37394  Biso   1.000  C
  C68      1.0000 0.05140  0.01386  0.24709  Biso   1.000  C
  C69      1.0000 0.53750  0.97534  0.35950  Biso   1.000  C
  C70      1.0000 0.12900  0.01174  0.29980  Biso   1.000  C
  C71      1.0000 0.03080  0.80710  0.15459  Biso   1.000  C
  C72      1.0000 0.83750  0.69337  0.21732  Biso   1.000  C
  C73      1.0000 0.71920  0.19604  0.41438  Biso   1.000  C
  C74      1.0000 0.34030  0.86887  0.19881  Biso   1.000  C
  C75      1.0000 0.27260  0.02056  0.41506  Biso   1.000  C
  C76      1.0000 0.14320  0.84659  0.12105  Biso   1.000  C
  C77      1.0000 0.42560  0.91736  0.10546  Biso   1.000  C
  C78      1.0000 0.31250  0.07102  0.21065  Biso   1.000  C
  C79      1.0000 0.44340  0.25014  0.38695  Biso   1.000  C
  C80      1.0000 0.65260  0.12507  0.40216  Biso   1.000  C
  C81      1.0000 0.61590  0.25920  0.40690  Biso   1.000  C
  C82      1.0000 0.28060  0.18313  0.98177  Biso   1.000  C
  C83      1.0000 0.18540  0.30806  0.96218  Biso   1.000  C
  C84      1.0000 0.50380  0.27090  0.95189  Biso   1.000  C
  C85      1.0000 0.69140  0.16409  0.08051  Biso   1.000  C
  C86      1.0000 0.38920  0.42980  0.23673  Biso   1.000  C
  C87      1.0000 0.07440  0.70415  0.28948  Biso   1.000  C
  C88      1.0000 0.22850  0.67115  0.26740  Biso   1.000  C
  C89      1.0000 0.30060  0.62328  0.35752  Biso   1.000  C
  C90      1.0000 0.05490  0.45721  0.35424  Biso   1.000  C
  C91      1.0000 0.39700  0.46104  0.13424  Biso   1.000  C
  C92      1.0000 0.48130  0.38390  0.11899  Biso   1.000  C
  C93      1.0000 0.29900  0.45960  0.19138  Biso   1.000  C
  C94      1.0000 0.14210  0.45706  0.29751  Biso   1.000  C
  C95      1.0000 0.37780  0.32057  0.12606  Biso   1.000  C
  C96      1.0000 0.05140  0.48614  0.25291  Biso   1.000  C
  C97      1.0000 0.53750  0.52466  0.14050  Biso   1.000  C
  C98      1.0000 0.12900  0.48826  0.20020  Biso   1.000  C
  C99      1.0000 0.03080  0.69290  0.34541  Biso   1.000  C
  C100     1.0000 0.83750  0.80663  0.28268  Biso   1.000  C
  C101     1.0000 0.71920  0.30396  0.08562  Biso   1.000  C
  C102     1.0000 0.34030  0.63113  0.30119  Biso   1.000  C
  C103     1.0000 0.27260  0.47944  0.08494  Biso   1.000  C
  C104     1.0000 0.14320  0.65341  0.37895  Biso   1.000  C
  C105     1.0000 0.42560  0.58264  0.39454  Biso   1.000  C
  C106     1.0000 0.31250  0.42898  0.28935  Biso   1.000  C
  C107     1.0000 0.44340  0.24986  0.11305  Biso   1.000  C
  C108     1.0000 0.65260  0.37493  0.09784  Biso   1.000  C
  C109     1.0000 0.61590  0.24080  0.09310  Biso   1.000  C
  C110     1.0000 0.28060  0.31687  0.51823  Biso   1.000  C
  C111     1.0000 0.18540  0.19194  0.53782  Biso   1.000  C
  C112     1.0000 0.50380  0.22910  0.54811  Biso   1.000  C
  C113     1.0000 0.04170  0.25000  0.75000  Biso   1.000  C
  C114     1.0000 0.95830  0.75000  0.25000  Biso   1.000  C
  N1       1.0000 0.67840  0.74946  0.03465  Biso   1.000  N
  N2       1.0000 0.67840  0.75054  0.46535  Biso   1.000  N
  N3       1.0000 0.32160  0.25054  0.96535  Biso   1.000  N
  N4       1.0000 0.32160  0.24946  0.53465  Biso   1.000  N
  O1       1.0000 0.43040  0.06046  0.87148  Biso   1.000  O
  O2       1.0000 0.15420  0.66049  0.56140  Biso   1.000  O
  O3       1.0000 0.85900  0.93212  0.89463  Biso   1.000  O
  O4       1.0000 0.61030  0.07438  0.94489  Biso   1.000  O
  O5       1.0000 0.09990  0.98246  0.85715  Biso   1.000  O
  O6       1.0000 0.40620  0.60904  0.59075  Biso   1.000  O
  O7       1.0000 0.17440  0.99690  0.98628  Biso   1.000  O
  O8       1.0000 0.87420  0.83533  0.00826  Biso   1.000  O
  O9       1.0000 0.43040  0.43954  0.62852  Biso   1.000  O
  O10      1.0000 0.15420  0.83951  0.93860  Biso   1.000  O
  O11      1.0000 0.85900  0.56788  0.60537  Biso   1.000  O
  O12      1.0000 0.61030  0.42562  0.55511  Biso   1.000  O
  O13      1.0000 0.09990  0.51754  0.64285  Biso   1.000  O
  O14      1.0000 0.40620  0.89096  0.90925  Biso   1.000  O
  O15      1.0000 0.17440  0.50310  0.51372  Biso   1.000  O
  O16      1.0000 0.87420  0.66467  0.49174  Biso   1.000  O
  O17      1.0000 0.56960  0.93954  0.12852  Biso   1.000  O
  O18      1.0000 0.84580  0.33951  0.43860  Biso   1.000  O
  O19      1.0000 0.14100  0.06788  0.10537  Biso   1.000  O
  O20      1.0000 0.38970  0.92562  0.05511  Biso   1.000  O
  O21      1.0000 0.90010  0.01754  0.14285  Biso   1.000  O
  O22      1.0000 0.59380  0.39096  0.40925  Biso   1.000  O
  O23      1.0000 0.82560  0.00310  0.01372  Biso   1.000  O
  O24      1.0000 0.12580  0.16467  0.99174  Biso   1.000  O
  O25      1.0000 0.56960  0.56046  0.37148  Biso   1.000  O
  O26      1.0000 0.84580  0.16049  0.06140  Biso   1.000  O
  O27      1.0000 0.14100  0.43212  0.39463  Biso   1.000  O
  O28      1.0000 0.38970  0.57438  0.44489  Biso   1.000  O
  O29      1.0000 0.90010  0.48246  0.35715  Biso   1.000  O
  O30      1.0000 0.59380  0.10904  0.09075  Biso   1.000  O
  O31      1.0000 0.82560  0.49690  0.48628  Biso   1.000  O
  O32      1.0000 0.12580  0.33533  0.50826  Biso   1.000  O
  F1       1.0000 0.23760  0.35488  0.74843  Biso   1.000  F
  F2       1.0000 0.29540  0.27480  0.81036  Biso   1.000  F
  F3       1.0000 0.86970  0.93495  0.58276  Biso   1.000  F
  F4       1.0000 0.78760  0.05019  0.58789  Biso   1.000  F
  F5       1.0000 0.06960  0.34766  0.82086  Biso   1.000  F
  F6       1.0000 0.53470  0.08819  0.66168  Biso   1.000  F
  F7       1.0000 0.33080  0.00690  0.67481  Biso   1.000  F
  F8       1.0000 0.64570  0.97015  0.53516  Biso   1.000  F
  F9       1.0000 0.38810  0.04121  0.59121  Biso   1.000  F
  F10      1.0000 0.23760  0.14512  0.75157  Biso   1.000  F
  F11      1.0000 0.29540  0.22520  0.68964  Biso   1.000  F
  F12      1.0000 0.86970  0.56505  0.91724  Biso   1.000  F
  F13      1.0000 0.78760  0.44981  0.91211  Biso   1.000  F
  F14      1.0000 0.06960  0.15234  0.67914  Biso   1.000  F
  F15      1.0000 0.53470  0.41181  0.83832  Biso   1.000  F
  F16      1.0000 0.33080  0.49310  0.82519  Biso   1.000  F
  F17      1.0000 0.64570  0.52985  0.96484  Biso   1.000  F
  F18      1.0000 0.38810  0.45879  0.90879  Biso   1.000  F
  F19      1.0000 0.76240  0.64512  0.25157  Biso   1.000  F
  F20      1.0000 0.70460  0.72520  0.18964  Biso   1.000  F
  F21      1.0000 0.13030  0.06505  0.41724  Biso   1.000  F
  F22      1.0000 0.21240  0.94981  0.41211  Biso   1.000  F
  F23      1.0000 0.93040  0.65234  0.17914  Biso   1.000  F
  F24      1.0000 0.46530  0.91181  0.33832  Biso   1.000  F
  F25      1.0000 0.66920  0.99310  0.32519  Biso   1.000  F
  F26      1.0000 0.35430  0.02985  0.46484  Biso   1.000  F
  F27      1.0000 0.61190  0.95879  0.40879  Biso   1.000  F
  F28      1.0000 0.76240  0.85488  0.24843  Biso   1.000  F
  F29      1.0000 0.70460  0.77480  0.31036  Biso   1.000  F
  F30      1.0000 0.13030  0.43495  0.08276  Biso   1.000  F
  F31      1.0000 0.21240  0.55019  0.08789  Biso   1.000  F
  F32      1.0000 0.93040  0.84766  0.32086  Biso   1.000  F
  F33      1.0000 0.46530  0.58819  0.16168  Biso   1.000  F
  F34      1.0000 0.66920  0.50690  0.17481  Biso   1.000  F
  F35      1.0000 0.35430  0.47015  0.03516  Biso   1.000  F
  F36      1.0000 0.61190  0.54121  0.09121  Biso   1.000  F
