data_image0
_cell_length_a       8.629
_cell_length_b       9.8397
_cell_length_c       24.95
_cell_angle_alpha    90.512
_cell_angle_beta     90
_cell_angle_gamma    90

_symmetry_space_group_name_H-M    P 1
_symmetry_int_tables_number       1

loop_
  _symmetry_equiv_pos_as_xyz
  'x, y, z'

loop_
  _atom_site_label
  _atom_site_occupancy
  _atom_site_fract_x
  _atom_site_fract_y
  _atom_site_fract_z
  _atom_site_thermal_displace_type
  _atom_site_B_iso_or_equiv
  _atom_site_type_symbol
  Zn1      1.0000 0.20058  0.68731  0.39875  Biso   1.000  Zn
  Zn2      1.0000 0.31487  0.76706  0.07862  Biso   1.000  Zn
  Zn3      1.0000 0.70058  0.81269  0.10125  Biso   1.000  Zn
  Zn4      1.0000 0.81487  0.73294  0.42138  Biso   1.000  Zn
  Zn5      1.0000 0.79942  0.31269  0.60125  Biso   1.000  Zn
  Zn6      1.0000 0.68513  0.23294  0.92138  Biso   1.000  Zn
  Zn7      1.0000 0.29942  0.18731  0.89875  Biso   1.000  Zn
  Zn8      1.0000 0.18513  0.26706  0.57862  Biso   1.000  Zn
  Zn9      1.0000 0.50000  0.00000  0.00000  Biso   1.000  Zn
  Zn10     1.0000 0.00000  0.50000  0.50000  Biso   1.000  Zn
  H1       1.0000 0.26550  0.31040  0.07090  Biso   1.000  H
  H2       1.0000 0.97240  0.45830  0.18230  Biso   1.000  H
  H3       1.0000 0.02190  0.05340  0.16470  Biso   1.000  H
  H4       1.0000 0.79450  0.14590  0.21510  Biso   1.000  H
  H5       1.0000 0.78820  0.30270  0.22700  Biso   1.000  H
  H6       1.0000 0.95800  0.39610  0.29890  Biso   1.000  H
  H7       1.0000 0.14290  0.14700  0.40680  Biso   1.000  H
  H8       1.0000 0.93220  0.99600  0.27410  Biso   1.000  H
  H9       1.0000 0.53030  0.75780  0.01970  Biso   1.000  H
  H10      1.0000 0.16540  0.85540  0.99650  Biso   1.000  H
  H11      1.0000 0.19630  0.71970  0.98570  Biso   1.000  H
  H12      1.0000 0.36530  0.73610  0.33020  Biso   1.000  H
  H13      1.0000 0.45060  0.68150  0.37210  Biso   1.000  H
  H14      1.0000 0.35690  0.71920  0.48080  Biso   1.000  H
  H15      1.0000 0.34490  0.57980  0.47350  Biso   1.000  H
  H16      1.0000 0.76550  0.18960  0.42910  Biso   1.000  H
  H17      1.0000 0.47240  0.04170  0.31770  Biso   1.000  H
  H18      1.0000 0.52190  0.44660  0.33530  Biso   1.000  H
  H19      1.0000 0.29450  0.35410  0.28490  Biso   1.000  H
  H20      1.0000 0.28820  0.19730  0.27300  Biso   1.000  H
  H21      1.0000 0.45800  0.10390  0.20110  Biso   1.000  H
  H22      1.0000 0.64290  0.35300  0.09320  Biso   1.000  H
  H23      1.0000 0.43220  0.50400  0.22590  Biso   1.000  H
  H24      1.0000 0.03030  0.74220  0.48030  Biso   1.000  H
  H25      1.0000 0.66540  0.64460  0.50350  Biso   1.000  H
  H26      1.0000 0.69630  0.78030  0.51430  Biso   1.000  H
  H27      1.0000 0.86530  0.76390  0.16980  Biso   1.000  H
  H28      1.0000 0.95060  0.81850  0.12790  Biso   1.000  H
  H29      1.0000 0.85690  0.78080  0.01920  Biso   1.000  H
  H30      1.0000 0.84490  0.92020  0.02650  Biso   1.000  H
  H31      1.0000 0.73450  0.68960  0.92910  Biso   1.000  H
  H32      1.0000 0.02760  0.54170  0.81770  Biso   1.000  H
  H33      1.0000 0.97810  0.94660  0.83530  Biso   1.000  H
  H34      1.0000 0.20550  0.85410  0.78490  Biso   1.000  H
  H35      1.0000 0.21180  0.69730  0.77300  Biso   1.000  H
  H36      1.0000 0.04200  0.60390  0.70110  Biso   1.000  H
  H37      1.0000 0.85710  0.85300  0.59320  Biso   1.000  H
  H38      1.0000 0.06780  0.00400  0.72590  Biso   1.000  H
  H39      1.0000 0.46970  0.24220  0.98030  Biso   1.000  H
  H40      1.0000 0.83460  0.14460  0.00350  Biso   1.000  H
  H41      1.0000 0.80370  0.28030  0.01430  Biso   1.000  H
  H42      1.0000 0.63470  0.26390  0.66980  Biso   1.000  H
  H43      1.0000 0.54940  0.31850  0.62790  Biso   1.000  H
  H44      1.0000 0.64310  0.28080  0.51920  Biso   1.000  H
  H45      1.0000 0.65510  0.42020  0.52650  Biso   1.000  H
  H46      1.0000 0.23450  0.81040  0.57090  Biso   1.000  H
  H47      1.0000 0.52760  0.95830  0.68230  Biso   1.000  H
  H48      1.0000 0.47810  0.55340  0.66470  Biso   1.000  H
  H49      1.0000 0.70550  0.64590  0.71510  Biso   1.000  H
  H50      1.0000 0.71180  0.80270  0.72700  Biso   1.000  H
  H51      1.0000 0.54200  0.89610  0.79890  Biso   1.000  H
  H52      1.0000 0.35710  0.64700  0.90680  Biso   1.000  H
  H53      1.0000 0.56780  0.49600  0.77410  Biso   1.000  H
  H54      1.0000 0.96970  0.25780  0.51970  Biso   1.000  H
  H55      1.0000 0.33460  0.35540  0.49650  Biso   1.000  H
  H56      1.0000 0.30370  0.21970  0.48570  Biso   1.000  H
  H57      1.0000 0.13470  0.23610  0.83020  Biso   1.000  H
  H58      1.0000 0.04940  0.18150  0.87210  Biso   1.000  H
  H59      1.0000 0.14310  0.21920  0.98080  Biso   1.000  H
  H60      1.0000 0.15510  0.07980  0.97350  Biso   1.000  H
  C1       1.0000 0.15550  0.16040  0.11456  Biso   1.000  C
  C2       1.0000 0.19620  0.29560  0.09880  Biso   1.000  C
  C3       1.0000 0.12880  0.40440  0.12666  Biso   1.000  C
  C4       1.0000 0.01840  0.38400  0.16537  Biso   1.000  C
  C5       1.0000 0.97370  0.24920  0.17986  Biso   1.000  C
  C6       1.0000 0.04670  0.14150  0.15453  Biso   1.000  C
  C7       1.0000 0.85690  0.22490  0.22408  Biso   1.000  C
  C8       1.0000 0.93750  0.20230  0.27785  Biso   1.000  C
  C9       1.0000 0.98060  0.30830  0.30991  Biso   1.000  C
  C10      1.0000 0.05630  0.29110  0.35800  Biso   1.000  C
  C11      1.0000 0.09060  0.16050  0.37467  Biso   1.000  C
  C12      1.0000 0.04610  0.04920  0.34305  Biso   1.000  C
  C13      1.0000 0.96580  0.06970  0.29456  Biso   1.000  C
  C14      1.0000 0.23760  0.04070  0.08918  Biso   1.000  C
  C15      1.0000 0.17550  0.54700  0.11255  Biso   1.000  C
  C16      1.0000 0.10570  0.41220  0.39147  Biso   1.000  C
  C17      1.0000 0.08310  0.90920  0.36196  Biso   1.000  C
  C18      1.0000 0.65550  0.33960  0.38544  Biso   1.000  C
  C19      1.0000 0.69620  0.20440  0.40120  Biso   1.000  C
  C20      1.0000 0.62880  0.09560  0.37334  Biso   1.000  C
  C21      1.0000 0.51840  0.11600  0.33463  Biso   1.000  C
  C22      1.0000 0.47370  0.25080  0.32014  Biso   1.000  C
  C23      1.0000 0.54670  0.35850  0.34547  Biso   1.000  C
  C24      1.0000 0.35690  0.27510  0.27592  Biso   1.000  C
  C25      1.0000 0.43750  0.29770  0.22215  Biso   1.000  C
  C26      1.0000 0.48060  0.19170  0.19009  Biso   1.000  C
  C27      1.0000 0.55630  0.20890  0.14200  Biso   1.000  C
  C28      1.0000 0.59060  0.33950  0.12533  Biso   1.000  C
  C29      1.0000 0.54610  0.45080  0.15695  Biso   1.000  C
  C30      1.0000 0.46580  0.43030  0.20544  Biso   1.000  C
  C31      1.0000 0.73760  0.45930  0.41082  Biso   1.000  C
  C32      1.0000 0.67550  0.95300  0.38745  Biso   1.000  C
  C33      1.0000 0.60570  0.08780  0.10853  Biso   1.000  C
  C34      1.0000 0.58310  0.59080  0.13804  Biso   1.000  C
  C35      1.0000 0.84450  0.83960  0.88544  Biso   1.000  C
  C36      1.0000 0.80380  0.70440  0.90120  Biso   1.000  C
  C37      1.0000 0.87120  0.59560  0.87334  Biso   1.000  C
  C38      1.0000 0.98160  0.61600  0.83463  Biso   1.000  C
  C39      1.0000 0.02630  0.75080  0.82014  Biso   1.000  C
  C40      1.0000 0.95330  0.85850  0.84547  Biso   1.000  C
  C41      1.0000 0.14310  0.77510  0.77592  Biso   1.000  C
  C42      1.0000 0.06250  0.79770  0.72215  Biso   1.000  C
  C43      1.0000 0.01940  0.69170  0.69009  Biso   1.000  C
  C44      1.0000 0.94370  0.70890  0.64200  Biso   1.000  C
  C45      1.0000 0.90940  0.83950  0.62533  Biso   1.000  C
  C46      1.0000 0.95390  0.95080  0.65695  Biso   1.000  C
  C47      1.0000 0.03420  0.93030  0.70544  Biso   1.000  C
  C48      1.0000 0.76240  0.95930  0.91082  Biso   1.000  C
  C49      1.0000 0.82450  0.45300  0.88745  Biso   1.000  C
  C50      1.0000 0.89430  0.58780  0.60853  Biso   1.000  C
  C51      1.0000 0.91690  0.09080  0.63804  Biso   1.000  C
  C52      1.0000 0.34450  0.66040  0.61456  Biso   1.000  C
  C53      1.0000 0.30380  0.79560  0.59880  Biso   1.000  C
  C54      1.0000 0.37120  0.90440  0.62666  Biso   1.000  C
  C55      1.0000 0.48160  0.88400  0.66537  Biso   1.000  C
  C56      1.0000 0.52630  0.74920  0.67986  Biso   1.000  C
  C57      1.0000 0.45330  0.64150  0.65453  Biso   1.000  C
  C58      1.0000 0.64310  0.72490  0.72408  Biso   1.000  C
  C59      1.0000 0.56250  0.70230  0.77785  Biso   1.000  C
  C60      1.0000 0.51940  0.80830  0.80991  Biso   1.000  C
  C61      1.0000 0.44370  0.79110  0.85800  Biso   1.000  C
  C62      1.0000 0.40940  0.66050  0.87467  Biso   1.000  C
  C63      1.0000 0.45390  0.54920  0.84305  Biso   1.000  C
  C64      1.0000 0.53420  0.56970  0.79456  Biso   1.000  C
  C65      1.0000 0.26240  0.54070  0.58918  Biso   1.000  C
  C66      1.0000 0.32450  0.04700  0.61255  Biso   1.000  C
  C67      1.0000 0.39430  0.91220  0.89147  Biso   1.000  C
  C68      1.0000 0.41690  0.40920  0.86196  Biso   1.000  C
  O1       1.0000 0.23780  0.93330  0.11345  Biso   1.000  O
  O2       1.0000 0.29250  0.06040  0.04199  Biso   1.000  O
  O3       1.0000 0.29080  0.56550  0.08047  Biso   1.000  O
  O4       1.0000 0.11660  0.64510  0.13418  Biso   1.000  O
  O5       1.0000 0.12300  0.52160  0.36520  Biso   1.000  O
  O6       1.0000 0.13100  0.39780  0.43934  Biso   1.000  O
  O7       1.0000 0.18560  0.89570  0.39816  Biso   1.000  O
  O8       1.0000 0.01100  0.80980  0.34484  Biso   1.000  O
  O9       1.0000 0.51120  0.81980  0.04252  Biso   1.000  O
  O10      1.0000 0.16450  0.77540  0.00932  Biso   1.000  O
  O11      1.0000 0.36820  0.67370  0.35369  Biso   1.000  O
  O12      1.0000 0.36260  0.65520  0.45806  Biso   1.000  O
  O13      1.0000 0.73780  0.56670  0.38655  Biso   1.000  O
  O14      1.0000 0.79250  0.43960  0.45801  Biso   1.000  O
  O15      1.0000 0.79080  0.93450  0.41953  Biso   1.000  O
  O16      1.0000 0.61660  0.85490  0.36582  Biso   1.000  O
  O17      1.0000 0.62300  0.97840  0.13480  Biso   1.000  O
  O18      1.0000 0.63100  0.10220  0.06066  Biso   1.000  O
  O19      1.0000 0.68560  0.60430  0.10184  Biso   1.000  O
  O20      1.0000 0.51100  0.69020  0.15516  Biso   1.000  O
  O21      1.0000 0.01120  0.68020  0.45748  Biso   1.000  O
  O22      1.0000 0.66450  0.72460  0.49068  Biso   1.000  O
  O23      1.0000 0.86820  0.82630  0.14631  Biso   1.000  O
  O24      1.0000 0.86260  0.84480  0.04194  Biso   1.000  O
  O25      1.0000 0.76220  0.06670  0.88655  Biso   1.000  O
  O26      1.0000 0.70750  0.93960  0.95801  Biso   1.000  O
  O27      1.0000 0.70920  0.43450  0.91953  Biso   1.000  O
  O28      1.0000 0.88340  0.35490  0.86582  Biso   1.000  O
  O29      1.0000 0.87700  0.47840  0.63480  Biso   1.000  O
  O30      1.0000 0.86900  0.60220  0.56066  Biso   1.000  O
  O31      1.0000 0.81440  0.10430  0.60184  Biso   1.000  O
  O32      1.0000 0.98900  0.19020  0.65516  Biso   1.000  O
  O33      1.0000 0.48880  0.18020  0.95748  Biso   1.000  O
  O34      1.0000 0.83550  0.22460  0.99068  Biso   1.000  O
  O35      1.0000 0.63180  0.32630  0.64631  Biso   1.000  O
  O36      1.0000 0.63740  0.34480  0.54194  Biso   1.000  O
  O37      1.0000 0.26220  0.43330  0.61345  Biso   1.000  O
  O38      1.0000 0.20750  0.56040  0.54199  Biso   1.000  O
  O39      1.0000 0.20920  0.06550  0.58047  Biso   1.000  O
  O40      1.0000 0.38340  0.14510  0.63418  Biso   1.000  O
  O41      1.0000 0.37700  0.02160  0.86520  Biso   1.000  O
  O42      1.0000 0.36900  0.89780  0.93934  Biso   1.000  O
  O43      1.0000 0.31440  0.39570  0.89816  Biso   1.000  O
  O44      1.0000 0.48900  0.30980  0.84484  Biso   1.000  O
  O45      1.0000 0.98880  0.31980  0.54252  Biso   1.000  O
  O46      1.0000 0.33550  0.27540  0.50932  Biso   1.000  O
  O47      1.0000 0.13180  0.17370  0.85369  Biso   1.000  O
  O48      1.0000 0.13740  0.15520  0.95806  Biso   1.000  O
