data_image0
_cell_length_a       10.2776
_cell_length_b       18.339
_cell_length_c       22.788
_cell_angle_alpha    90
_cell_angle_beta     90
_cell_angle_gamma    90

_symmetry_space_group_name_H-M    "P 1"
_symmetry_int_tables_number       1

loop_
  _symmetry_equiv_pos_as_xyz
  'x, y, z'

loop_
  _atom_site_label
  _atom_site_occupancy
  _atom_site_fract_x
  _atom_site_fract_y
  _atom_site_fract_z
  _atom_site_thermal_displace_type
  _atom_site_B_iso_or_equiv
  _atom_site_type_symbol
  U1       1.0000 0.95532  0.74066  0.97453  Biso   1.000  U
  U2       1.0000 0.12499  0.53169  0.11667  Biso   1.000  U
  U3       1.0000 0.75685  0.74037  0.74596  Biso   1.000  U
  S1       1.0000 0.14870  0.73230  0.10550  Biso   1.000  S
  S2       1.0000 0.24130  0.61470  0.97940  Biso   1.000  S
  S3       1.0000 0.98950  0.64420  0.83650  Biso   1.000  S
  O1       1.0000 0.05000  0.79770  0.93460  Biso   1.000  O
  O2       1.0000 0.86800  0.68340  0.01490  Biso   1.000  O
  O3       1.0000 0.26300  0.53820  0.16020  Biso   1.000  O
  O4       1.0000 0.98400  0.52290  0.07630  Biso   1.000  O
  O5       1.0000 0.64880  0.66970  0.72230  Biso   1.000  O
  O6       1.0000 0.87300  0.80580  0.77470  Biso   1.000  O
  O7       1.0000 0.72900  0.80030  0.64690  Biso   1.000  O
  O8       1.0000 0.09100  0.66290  0.11410  Biso   1.000  O
  O9       1.0000 0.07790  0.77420  0.05900  Biso   1.000  O
  O10      1.0000 0.28220  0.71810  0.08650  Biso   1.000  O
  O11      1.0000 0.94220  0.65580  0.89700  Biso   1.000  O
  O12      1.0000 0.99800  0.57240  0.19660  Biso   1.000  O
  O13      1.0000 0.87840  0.64480  0.79490  Biso   1.000  O
  O14      1.0000 0.14690  0.77270  0.16100  Biso   1.000  O
  O15      1.0000 0.23850  0.56890  0.92580  Biso   1.000  O
  O16      1.0000 0.05590  0.57390  0.83150  Biso   1.000  O
  O17      1.0000 0.08370  0.70410  0.82140  Biso   1.000  O
  O18      1.0000 0.13300  0.66830  0.97930  Biso   1.000  O
  O19      1.0000 0.35900  0.65850  0.97780  Biso   1.000  O
  O20      1.0000 0.23900  0.57280  0.03220  Biso   1.000  O
  O21      1.0000 0.89000  0.66170  0.25200  Biso   1.000  O
  U4       1.0000 0.45532  0.24066  0.97453  Biso   1.000  U
  U5       1.0000 0.62499  0.03169  0.11667  Biso   1.000  U
  U6       1.0000 0.25685  0.24037  0.74596  Biso   1.000  U
  S4       1.0000 0.64870  0.23230  0.10550  Biso   1.000  S
  S5       1.0000 0.74130  0.11470  0.97940  Biso   1.000  S
  S6       1.0000 0.48950  0.14420  0.83650  Biso   1.000  S
  O22      1.0000 0.55000  0.29770  0.93460  Biso   1.000  O
  O23      1.0000 0.36800  0.18340  0.01490  Biso   1.000  O
  O24      1.0000 0.76300  0.03820  0.16020  Biso   1.000  O
  O25      1.0000 0.48400  0.02290  0.07630  Biso   1.000  O
  O26      1.0000 0.14880  0.16970  0.72230  Biso   1.000  O
  O27      1.0000 0.37300  0.30580  0.77470  Biso   1.000  O
  O28      1.0000 0.22900  0.30030  0.64690  Biso   1.000  O
  O29      1.0000 0.59100  0.16290  0.11410  Biso   1.000  O
  O30      1.0000 0.57790  0.27420  0.05900  Biso   1.000  O
  O31      1.0000 0.78220  0.21810  0.08650  Biso   1.000  O
  O32      1.0000 0.44220  0.15580  0.89700  Biso   1.000  O
  O33      1.0000 0.49800  0.07240  0.19660  Biso   1.000  O
  O34      1.0000 0.37840  0.14480  0.79490  Biso   1.000  O
  O35      1.0000 0.64690  0.27270  0.16100  Biso   1.000  O
  O36      1.0000 0.73850  0.06890  0.92580  Biso   1.000  O
  O37      1.0000 0.55590  0.07390  0.83150  Biso   1.000  O
  O38      1.0000 0.58370  0.20410  0.82140  Biso   1.000  O
  O39      1.0000 0.63300  0.16830  0.97930  Biso   1.000  O
  O40      1.0000 0.85900  0.15850  0.97780  Biso   1.000  O
  O41      1.0000 0.73900  0.07280  0.03220  Biso   1.000  O
  O42      1.0000 0.39000  0.16170  0.25200  Biso   1.000  O
  U7       1.0000 0.04468  0.25934  0.47453  Biso   1.000  U
  U8       1.0000 0.87501  0.46831  0.61667  Biso   1.000  U
  U9       1.0000 0.24315  0.25963  0.24596  Biso   1.000  U
  S7       1.0000 0.85130  0.26770  0.60550  Biso   1.000  S
  S8       1.0000 0.75870  0.38530  0.47940  Biso   1.000  S
  S9       1.0000 0.01050  0.35580  0.33650  Biso   1.000  S
  O43      1.0000 0.95000  0.20230  0.43460  Biso   1.000  O
  O44      1.0000 0.13200  0.31660  0.51490  Biso   1.000  O
  O45      1.0000 0.73700  0.46180  0.66020  Biso   1.000  O
  O46      1.0000 0.01600  0.47710  0.57630  Biso   1.000  O
  O47      1.0000 0.35120  0.33030  0.22230  Biso   1.000  O
  O48      1.0000 0.12700  0.19420  0.27470  Biso   1.000  O
  O49      1.0000 0.27100  0.19970  0.14690  Biso   1.000  O
  O50      1.0000 0.90900  0.33710  0.61410  Biso   1.000  O
  O51      1.0000 0.92210  0.22580  0.55900  Biso   1.000  O
  O52      1.0000 0.71780  0.28190  0.58650  Biso   1.000  O
  O53      1.0000 0.05780  0.34420  0.39700  Biso   1.000  O
  O54      1.0000 0.00200  0.42760  0.69660  Biso   1.000  O
  O55      1.0000 0.12160  0.35520  0.29490  Biso   1.000  O
  O56      1.0000 0.85310  0.22730  0.66100  Biso   1.000  O
  O57      1.0000 0.76150  0.43110  0.42580  Biso   1.000  O
  O58      1.0000 0.94410  0.42610  0.33150  Biso   1.000  O
  O59      1.0000 0.91630  0.29590  0.32140  Biso   1.000  O
  O60      1.0000 0.86700  0.33170  0.47930  Biso   1.000  O
  O61      1.0000 0.64100  0.34150  0.47780  Biso   1.000  O
  O62      1.0000 0.76100  0.42720  0.53220  Biso   1.000  O
  O63      1.0000 0.11000  0.33830  0.75200  Biso   1.000  O
  U10      1.0000 0.54468  0.75934  0.47453  Biso   1.000  U
  U11      1.0000 0.37501  0.96831  0.61667  Biso   1.000  U
  U12      1.0000 0.74315  0.75963  0.24596  Biso   1.000  U
  S10      1.0000 0.35130  0.76770  0.60550  Biso   1.000  S
  S11      1.0000 0.25870  0.88530  0.47940  Biso   1.000  S
  S12      1.0000 0.51050  0.85580  0.33650  Biso   1.000  S
  O64      1.0000 0.45000  0.70230  0.43460  Biso   1.000  O
  O65      1.0000 0.63200  0.81660  0.51490  Biso   1.000  O
  O66      1.0000 0.23700  0.96180  0.66020  Biso   1.000  O
  O67      1.0000 0.51600  0.97710  0.57630  Biso   1.000  O
  O68      1.0000 0.85120  0.83030  0.22230  Biso   1.000  O
  O69      1.0000 0.62700  0.69420  0.27470  Biso   1.000  O
  O70      1.0000 0.77100  0.69970  0.14690  Biso   1.000  O
  O71      1.0000 0.40900  0.83710  0.61410  Biso   1.000  O
  O72      1.0000 0.42210  0.72580  0.55900  Biso   1.000  O
  O73      1.0000 0.21780  0.78190  0.58650  Biso   1.000  O
  O74      1.0000 0.55780  0.84420  0.39700  Biso   1.000  O
  O75      1.0000 0.50200  0.92760  0.69660  Biso   1.000  O
  O76      1.0000 0.62160  0.85520  0.29490  Biso   1.000  O
  O77      1.0000 0.35310  0.72730  0.66100  Biso   1.000  O
  O78      1.0000 0.26150  0.93110  0.42580  Biso   1.000  O
  O79      1.0000 0.44410  0.92610  0.33150  Biso   1.000  O
  O80      1.0000 0.41630  0.79590  0.32140  Biso   1.000  O
  O81      1.0000 0.36700  0.83170  0.47930  Biso   1.000  O
  O82      1.0000 0.14100  0.84150  0.47780  Biso   1.000  O
  O83      1.0000 0.26100  0.92720  0.53220  Biso   1.000  O
  O84      1.0000 0.61000  0.83830  0.75200  Biso   1.000  O
  U13      1.0000 0.04468  0.74066  0.52547  Biso   1.000  U
  U14      1.0000 0.87501  0.53169  0.38333  Biso   1.000  U
  U15      1.0000 0.24315  0.74037  0.75404  Biso   1.000  U
  S13      1.0000 0.85130  0.73230  0.39450  Biso   1.000  S
  S14      1.0000 0.75870  0.61470  0.52060  Biso   1.000  S
  S15      1.0000 0.01050  0.64420  0.66350  Biso   1.000  S
  O85      1.0000 0.95000  0.79770  0.56540  Biso   1.000  O
  O86      1.0000 0.13200  0.68340  0.48510  Biso   1.000  O
  O87      1.0000 0.73700  0.53820  0.33980  Biso   1.000  O
  O88      1.0000 0.01600  0.52290  0.42370  Biso   1.000  O
  O89      1.0000 0.35120  0.66970  0.77770  Biso   1.000  O
  O90      1.0000 0.12700  0.80580  0.72530  Biso   1.000  O
  O91      1.0000 0.27100  0.80030  0.85310  Biso   1.000  O
  O92      1.0000 0.90900  0.66290  0.38590  Biso   1.000  O
  O93      1.0000 0.92210  0.77420  0.44100  Biso   1.000  O
  O94      1.0000 0.71780  0.71810  0.41350  Biso   1.000  O
  O95      1.0000 0.05780  0.65580  0.60300  Biso   1.000  O
  O96      1.0000 0.00200  0.57240  0.30340  Biso   1.000  O
  O97      1.0000 0.12160  0.64480  0.70510  Biso   1.000  O
  O98      1.0000 0.85310  0.77270  0.33900  Biso   1.000  O
  O99      1.0000 0.76150  0.56890  0.57420  Biso   1.000  O
  O100     1.0000 0.94410  0.57390  0.66850  Biso   1.000  O
  O101     1.0000 0.91630  0.70410  0.67860  Biso   1.000  O
  O102     1.0000 0.86700  0.66830  0.52070  Biso   1.000  O
  O103     1.0000 0.64100  0.65850  0.52220  Biso   1.000  O
  O104     1.0000 0.76100  0.57280  0.46780  Biso   1.000  O
  O105     1.0000 0.11000  0.66170  0.24800  Biso   1.000  O
  U16      1.0000 0.54468  0.24066  0.52547  Biso   1.000  U
  U17      1.0000 0.37501  0.03169  0.38333  Biso   1.000  U
  U18      1.0000 0.74315  0.24037  0.75404  Biso   1.000  U
  S16      1.0000 0.35130  0.23230  0.39450  Biso   1.000  S
  S17      1.0000 0.25870  0.11470  0.52060  Biso   1.000  S
  S18      1.0000 0.51050  0.14420  0.66350  Biso   1.000  S
  O106     1.0000 0.45000  0.29770  0.56540  Biso   1.000  O
  O107     1.0000 0.63200  0.18340  0.48510  Biso   1.000  O
  O108     1.0000 0.23700  0.03820  0.33980  Biso   1.000  O
  O109     1.0000 0.51600  0.02290  0.42370  Biso   1.000  O
  O110     1.0000 0.85120  0.16970  0.77770  Biso   1.000  O
  O111     1.0000 0.62700  0.30580  0.72530  Biso   1.000  O
  O112     1.0000 0.77100  0.30030  0.85310  Biso   1.000  O
  O113     1.0000 0.40900  0.16290  0.38590  Biso   1.000  O
  O114     1.0000 0.42210  0.27420  0.44100  Biso   1.000  O
  O115     1.0000 0.21780  0.21810  0.41350  Biso   1.000  O
  O116     1.0000 0.55780  0.15580  0.60300  Biso   1.000  O
  O117     1.0000 0.50200  0.07240  0.30340  Biso   1.000  O
  O118     1.0000 0.62160  0.14480  0.70510  Biso   1.000  O
  O119     1.0000 0.35310  0.27270  0.33900  Biso   1.000  O
  O120     1.0000 0.26150  0.06890  0.57420  Biso   1.000  O
  O121     1.0000 0.44410  0.07390  0.66850  Biso   1.000  O
  O122     1.0000 0.41630  0.20410  0.67860  Biso   1.000  O
  O123     1.0000 0.36700  0.16830  0.52070  Biso   1.000  O
  O124     1.0000 0.14100  0.15850  0.52220  Biso   1.000  O
  O125     1.0000 0.26100  0.07280  0.46780  Biso   1.000  O
  O126     1.0000 0.61000  0.16170  0.24800  Biso   1.000  O
  U19      1.0000 0.95532  0.25934  0.02547  Biso   1.000  U
  U20      1.0000 0.12499  0.46831  0.88333  Biso   1.000  U
  U21      1.0000 0.75685  0.25963  0.25404  Biso   1.000  U
  S19      1.0000 0.14870  0.26770  0.89450  Biso   1.000  S
  S20      1.0000 0.24130  0.38530  0.02060  Biso   1.000  S
  S21      1.0000 0.98950  0.35580  0.16350  Biso   1.000  S
  O127     1.0000 0.05000  0.20230  0.06540  Biso   1.000  O
  O128     1.0000 0.86800  0.31660  0.98510  Biso   1.000  O
  O129     1.0000 0.26300  0.46180  0.83980  Biso   1.000  O
  O130     1.0000 0.98400  0.47710  0.92370  Biso   1.000  O
  O131     1.0000 0.64880  0.33030  0.27770  Biso   1.000  O
  O132     1.0000 0.87300  0.19420  0.22530  Biso   1.000  O
  O133     1.0000 0.72900  0.19970  0.35310  Biso   1.000  O
  O134     1.0000 0.09100  0.33710  0.88590  Biso   1.000  O
  O135     1.0000 0.07790  0.22580  0.94100  Biso   1.000  O
  O136     1.0000 0.28220  0.28190  0.91350  Biso   1.000  O
  O137     1.0000 0.94220  0.34420  0.10300  Biso   1.000  O
  O138     1.0000 0.99800  0.42760  0.80340  Biso   1.000  O
  O139     1.0000 0.87840  0.35520  0.20510  Biso   1.000  O
  O140     1.0000 0.14690  0.22730  0.83900  Biso   1.000  O
  O141     1.0000 0.23850  0.43110  0.07420  Biso   1.000  O
  O142     1.0000 0.05590  0.42610  0.16850  Biso   1.000  O
  O143     1.0000 0.08370  0.29590  0.17860  Biso   1.000  O
  O144     1.0000 0.13300  0.33170  0.02070  Biso   1.000  O
  O145     1.0000 0.35900  0.34150  0.02220  Biso   1.000  O
  O146     1.0000 0.23900  0.42720  0.96780  Biso   1.000  O
  O147     1.0000 0.89000  0.33830  0.74800  Biso   1.000  O
  U22      1.0000 0.45532  0.75934  0.02547  Biso   1.000  U
  U23      1.0000 0.62499  0.96831  0.88333  Biso   1.000  U
  U24      1.0000 0.25685  0.75963  0.25404  Biso   1.000  U
  S22      1.0000 0.64870  0.76770  0.89450  Biso   1.000  S
  S23      1.0000 0.74130  0.88530  0.02060  Biso   1.000  S
  S24      1.0000 0.48950  0.85580  0.16350  Biso   1.000  S
  O148     1.0000 0.55000  0.70230  0.06540  Biso   1.000  O
  O149     1.0000 0.36800  0.81660  0.98510  Biso   1.000  O
  O150     1.0000 0.76300  0.96180  0.83980  Biso   1.000  O
  O151     1.0000 0.48400  0.97710  0.92370  Biso   1.000  O
  O152     1.0000 0.14880  0.83030  0.27770  Biso   1.000  O
  O153     1.0000 0.37300  0.69420  0.22530  Biso   1.000  O
  O154     1.0000 0.22900  0.69970  0.35310  Biso   1.000  O
  O155     1.0000 0.59100  0.83710  0.88590  Biso   1.000  O
  O156     1.0000 0.57790  0.72580  0.94100  Biso   1.000  O
  O157     1.0000 0.78220  0.78190  0.91350  Biso   1.000  O
  O158     1.0000 0.44220  0.84420  0.10300  Biso   1.000  O
  O159     1.0000 0.49800  0.92760  0.80340  Biso   1.000  O
  O160     1.0000 0.37840  0.85520  0.20510  Biso   1.000  O
  O161     1.0000 0.64690  0.72730  0.83900  Biso   1.000  O
  O162     1.0000 0.73850  0.93110  0.07420  Biso   1.000  O
  O163     1.0000 0.55590  0.92610  0.16850  Biso   1.000  O
  O164     1.0000 0.58370  0.79590  0.17860  Biso   1.000  O
  O165     1.0000 0.63300  0.83170  0.02070  Biso   1.000  O
  O166     1.0000 0.85900  0.84150  0.02220  Biso   1.000  O
  O167     1.0000 0.73900  0.92720  0.96780  Biso   1.000  O
  O168     1.0000 0.39000  0.83830  0.74800  Biso   1.000  O
  S25      1.0000 0.00000  0.61470  0.25000  Biso   1.000  S
  S26      1.0000 0.50000  0.11470  0.25000  Biso   1.000  S
  S27      1.0000 0.00000  0.38530  0.75000  Biso   1.000  S
  S28      1.0000 0.50000  0.88530  0.75000  Biso   1.000  S
