data_image0
_cell_length_a       8.7632
_cell_length_b       8.7632
_cell_length_c       18.8197
_cell_angle_alpha    90
_cell_angle_beta     90
_cell_angle_gamma    120

_symmetry_space_group_name_H-M    "P 1"
_symmetry_int_tables_number       1

loop_
  _symmetry_equiv_pos_as_xyz
  'x, y, z'

loop_
  _atom_site_label
  _atom_site_occupancy
  _atom_site_fract_x
  _atom_site_fract_y
  _atom_site_fract_z
  _atom_site_thermal_displace_type
  _atom_site_B_iso_or_equiv
  _atom_site_type_symbol
  Fe1      1.0000 0.66667  0.33333  0.33333  Biso   1.000  Fe
  Fe2      1.0000 0.33333  0.66667  0.66667  Biso   1.000  Fe
  Fe3      1.0000 0.00000  0.00000  0.00000  Biso   1.000  Fe
  K1       1.0000 0.00000  0.00000  0.50000  Biso   1.000  K
  K2       1.0000 0.66667  0.33333  0.83333  Biso   1.000  K
  K3       1.0000 0.33333  0.66667  0.16667  Biso   1.000  K
  N1       1.0000 0.83660  0.16340  0.42360  Biso   1.000  N
  C1       1.0000 0.77320  0.22680  0.39120  Biso   1.000  C
  N2       1.0000 0.50327  0.49673  0.75693  Biso   1.000  N
  C2       1.0000 0.43987  0.56013  0.72453  Biso   1.000  C
  N3       1.0000 0.16993  0.83007  0.09027  Biso   1.000  N
  C3       1.0000 0.10653  0.89347  0.05787  Biso   1.000  C
  N4       1.0000 0.83660  0.67320  0.42360  Biso   1.000  N
  C4       1.0000 0.77320  0.54640  0.39120  Biso   1.000  C
  N5       1.0000 0.50327  0.00653  0.75693  Biso   1.000  N
  C5       1.0000 0.43987  0.87973  0.72453  Biso   1.000  C
  N6       1.0000 0.16993  0.33987  0.09027  Biso   1.000  N
  C6       1.0000 0.10653  0.21307  0.05787  Biso   1.000  C
  N7       1.0000 0.32680  0.16340  0.42360  Biso   1.000  N
  C7       1.0000 0.45360  0.22680  0.39120  Biso   1.000  C
  N8       1.0000 0.99347  0.49673  0.75693  Biso   1.000  N
  C8       1.0000 0.12027  0.56013  0.72453  Biso   1.000  C
  N9       1.0000 0.66013  0.83007  0.09027  Biso   1.000  N
  C9       1.0000 0.78693  0.89347  0.05787  Biso   1.000  C
  N10      1.0000 0.16340  0.83660  0.57640  Biso   1.000  N
  C10      1.0000 0.22680  0.77320  0.60880  Biso   1.000  C
  N11      1.0000 0.83007  0.16993  0.90973  Biso   1.000  N
  C11      1.0000 0.89347  0.10653  0.94213  Biso   1.000  C
  N12      1.0000 0.49673  0.50327  0.24307  Biso   1.000  N
  C12      1.0000 0.56013  0.43987  0.27547  Biso   1.000  C
  N13      1.0000 0.67320  0.83660  0.57640  Biso   1.000  N
  C13      1.0000 0.54640  0.77320  0.60880  Biso   1.000  C
  N14      1.0000 0.33987  0.16993  0.90973  Biso   1.000  N
  C14      1.0000 0.21307  0.10653  0.94213  Biso   1.000  C
  N15      1.0000 0.00653  0.50327  0.24307  Biso   1.000  N
  C15      1.0000 0.87973  0.43987  0.27547  Biso   1.000  C
  N16      1.0000 0.16340  0.32680  0.57640  Biso   1.000  N
  C16      1.0000 0.22680  0.45360  0.60880  Biso   1.000  C
  N17      1.0000 0.83007  0.66013  0.90973  Biso   1.000  N
  C17      1.0000 0.89347  0.78693  0.94213  Biso   1.000  C
  N18      1.0000 0.49673  0.99347  0.24307  Biso   1.000  N
  C18      1.0000 0.56013  0.12027  0.27547  Biso   1.000  C
