data_image0
_cell_length_a       8.7498
_cell_length_b       8.7498
_cell_length_c       19.029
_cell_angle_alpha    90
_cell_angle_beta     90
_cell_angle_gamma    120

_symmetry_space_group_name_H-M    "P 1"
_symmetry_int_tables_number       1

loop_
  _symmetry_equiv_pos_as_xyz
  'x, y, z'

loop_
  _atom_site_label
  _atom_site_occupancy
  _atom_site_fract_x
  _atom_site_fract_y
  _atom_site_fract_z
  _atom_site_thermal_displace_type
  _atom_site_B_iso_or_equiv
  _atom_site_type_symbol
  Fe1      1.0000 0.00000  0.00000  0.50000  Biso   1.000  Fe
  Fe2      1.0000 0.66667  0.33333  0.83333  Biso   1.000  Fe
  Fe3      1.0000 0.33333  0.66667  0.16667  Biso   1.000  Fe
  K1       1.0000 0.33333  0.66667  0.66667  Biso   1.000  K
  K2       1.0000 0.00000  0.00000  0.00000  Biso   1.000  K
  K3       1.0000 0.66667  0.33333  0.33333  Biso   1.000  K
  N1       1.0000 0.17005  0.34010  0.58933  Biso   1.000  N
  C1       1.0000 0.10600  0.21200  0.55711  Biso   1.000  C
  N2       1.0000 0.83672  0.67343  0.92266  Biso   1.000  N
  C2       1.0000 0.77267  0.54533  0.89044  Biso   1.000  C
  N3       1.0000 0.50338  0.00677  0.25600  Biso   1.000  N
  C3       1.0000 0.43933  0.87867  0.22378  Biso   1.000  C
  N4       1.0000 0.65990  0.82995  0.58933  Biso   1.000  N
  C4       1.0000 0.78800  0.89400  0.55711  Biso   1.000  C
  N5       1.0000 0.32657  0.16328  0.92266  Biso   1.000  N
  C5       1.0000 0.45467  0.22733  0.89044  Biso   1.000  C
  N6       1.0000 0.99323  0.49662  0.25600  Biso   1.000  N
  C6       1.0000 0.12133  0.56067  0.22378  Biso   1.000  C
  N7       1.0000 0.17005  0.82995  0.58933  Biso   1.000  N
  C7       1.0000 0.10600  0.89400  0.55711  Biso   1.000  C
  N8       1.0000 0.83672  0.16328  0.92266  Biso   1.000  N
  C8       1.0000 0.77267  0.22733  0.89044  Biso   1.000  C
  N9       1.0000 0.50338  0.49662  0.25600  Biso   1.000  N
  C9       1.0000 0.43933  0.56067  0.22378  Biso   1.000  C
  N10      1.0000 0.34010  0.17005  0.41067  Biso   1.000  N
  C10      1.0000 0.21200  0.10600  0.44289  Biso   1.000  C
  N11      1.0000 0.00677  0.50338  0.74400  Biso   1.000  N
  C11      1.0000 0.87867  0.43933  0.77622  Biso   1.000  C
  N12      1.0000 0.67343  0.83672  0.07734  Biso   1.000  N
  C12      1.0000 0.54533  0.77267  0.10956  Biso   1.000  C
  N13      1.0000 0.82995  0.65990  0.41067  Biso   1.000  N
  C13      1.0000 0.89400  0.78800  0.44289  Biso   1.000  C
  N14      1.0000 0.49662  0.99323  0.74400  Biso   1.000  N
  C14      1.0000 0.56067  0.12133  0.77622  Biso   1.000  C
  N15      1.0000 0.16328  0.32657  0.07734  Biso   1.000  N
  C15      1.0000 0.22733  0.45467  0.10956  Biso   1.000  C
  N16      1.0000 0.82995  0.17005  0.41067  Biso   1.000  N
  C16      1.0000 0.89400  0.10600  0.44289  Biso   1.000  C
  N17      1.0000 0.49662  0.50338  0.74400  Biso   1.000  N
  C17      1.0000 0.56067  0.43933  0.77622  Biso   1.000  C
  N18      1.0000 0.16328  0.83672  0.07734  Biso   1.000  N
  C18      1.0000 0.22733  0.77267  0.10956  Biso   1.000  C
