data_image0
_cell_length_a       9.4204
_cell_length_b       9.4204
_cell_length_c       16.449
_cell_angle_alpha    88.5121
_cell_angle_beta     88.5121
_cell_angle_gamma    83.7222

_symmetry_space_group_name_H-M    P 1
_symmetry_int_tables_number       1

loop_
  _symmetry_equiv_pos_as_xyz
  'x, y, z'

loop_
  _atom_site_label
  _atom_site_occupancy
  _atom_site_fract_x
  _atom_site_fract_y
  _atom_site_fract_z
  _atom_site_thermal_displace_type
  _atom_site_B_iso_or_equiv
  _atom_site_type_symbol
  Cu1      1.0000 0.49409  0.13507  0.00207  Biso   1.000  Cu
  Cu2      1.0000 0.86493  0.50591  0.49793  Biso   1.000  Cu
  Cu3      1.0000 0.50591  0.86493  0.99793  Biso   1.000  Cu
  Cu4      1.0000 0.13507  0.49409  0.50207  Biso   1.000  Cu
  Cu5      1.0000 0.00000  0.00000  0.00000  Biso   1.000  Cu
  Cu6      1.0000 0.00000  0.00000  0.50000  Biso   1.000  Cu
  Cu7      1.0000 0.63460  0.36540  0.25000  Biso   1.000  Cu
  Cu8      1.0000 0.36540  0.63460  0.75000  Biso   1.000  Cu
  Cu9      1.0000 0.59840  0.40160  0.75000  Biso   1.000  Cu
  Cu10     1.0000 0.40160  0.59840  0.25000  Biso   1.000  Cu
  C1       1.0000 0.68180  0.96200  0.98860  Biso   1.000  C
  C2       1.0000 0.57050  0.28450  0.16070  Biso   1.000  C
  C3       1.0000 0.51340  0.24120  0.90170  Biso   1.000  C
  C4       1.0000 0.10970  0.08650  0.84010  Biso   1.000  C
  C5       1.0000 0.00680  0.26360  0.74340  Biso   1.000  C
  C6       1.0000 0.24810  0.14170  0.71900  Biso   1.000  C
  C7       1.0000 0.03800  0.31820  0.51140  Biso   1.000  C
  C8       1.0000 0.71550  0.42950  0.33930  Biso   1.000  C
  C9       1.0000 0.75880  0.48660  0.59830  Biso   1.000  C
  C10      1.0000 0.91350  0.89030  0.65990  Biso   1.000  C
  C11      1.0000 0.73640  0.99320  0.75660  Biso   1.000  C
  C12      1.0000 0.85830  0.75190  0.78100  Biso   1.000  C
  C13      1.0000 0.31820  0.03800  0.01140  Biso   1.000  C
  C14      1.0000 0.42950  0.71550  0.83930  Biso   1.000  C
  C15      1.0000 0.48660  0.75880  0.09830  Biso   1.000  C
  C16      1.0000 0.89030  0.91350  0.15990  Biso   1.000  C
  C17      1.0000 0.99320  0.73640  0.25660  Biso   1.000  C
  C18      1.0000 0.75190  0.85830  0.28100  Biso   1.000  C
  C19      1.0000 0.96200  0.68180  0.48860  Biso   1.000  C
  C20      1.0000 0.28450  0.57050  0.66070  Biso   1.000  C
  C21      1.0000 0.24120  0.51340  0.40170  Biso   1.000  C
  C22      1.0000 0.08650  0.10970  0.34010  Biso   1.000  C
  C23      1.0000 0.26360  0.00680  0.24340  Biso   1.000  C
  C24      1.0000 0.14170  0.24810  0.21900  Biso   1.000  C
  N1       1.0000 0.80140  0.97580  0.98650  Biso   1.000  N
  N2       1.0000 0.54160  0.22980  0.10110  Biso   1.000  N
  N3       1.0000 0.53390  0.30550  0.84270  Biso   1.000  N
  N4       1.0000 0.12050  0.16030  0.77150  Biso   1.000  N
  N5       1.0000 0.02420  0.19860  0.51350  Biso   1.000  N
  N6       1.0000 0.77020  0.45840  0.39890  Biso   1.000  N
  N7       1.0000 0.69450  0.46610  0.65730  Biso   1.000  N
  N8       1.0000 0.83970  0.87950  0.72850  Biso   1.000  N
  N9       1.0000 0.19860  0.02420  0.01350  Biso   1.000  N
  N10      1.0000 0.45840  0.77020  0.89890  Biso   1.000  N
  N11      1.0000 0.46610  0.69450  0.15730  Biso   1.000  N
  N12      1.0000 0.87950  0.83970  0.22850  Biso   1.000  N
  N13      1.0000 0.97580  0.80140  0.48650  Biso   1.000  N
  N14      1.0000 0.22980  0.54160  0.60110  Biso   1.000  N
  N15      1.0000 0.30550  0.53390  0.34270  Biso   1.000  N
  N16      1.0000 0.16030  0.12050  0.27150  Biso   1.000  N
  O1       1.0000 0.00220  0.09900  0.88640  Biso   1.000  O
  O2       1.0000 0.90100  0.99780  0.61360  Biso   1.000  O
  O3       1.0000 0.99780  0.90100  0.11360  Biso   1.000  O
  O4       1.0000 0.09900  0.00220  0.38640  Biso   1.000  O
