data_image0
_cell_length_a       19.21
_cell_length_b       19.21
_cell_length_c       6.9158
_cell_angle_alpha    90
_cell_angle_beta     90
_cell_angle_gamma    90

_symmetry_space_group_name_H-M    "P 1"
_symmetry_int_tables_number       1

loop_
  _symmetry_equiv_pos_as_xyz
  'x, y, z'

loop_
  _atom_site_label
  _atom_site_occupancy
  _atom_site_fract_x
  _atom_site_fract_y
  _atom_site_fract_z
  _atom_site_thermal_displace_type
  _atom_site_B_iso_or_equiv
  _atom_site_type_symbol
  O1       1.0000 0.63198  0.19197  0.73350  Biso   1.000  O
  O2       1.0000 0.53227  0.43386  0.26150  Biso   1.000  O
  O3       1.0000 0.48410  0.38177  0.51240  Biso   1.000  O
  C1       1.0000 0.55650  0.31241  0.07240  Biso   1.000  C
  H1       1.0000 0.56590  0.35510  0.00830  Biso   1.000  H
  C2       1.0000 0.52472  0.31270  0.25460  Biso   1.000  C
  C3       1.0000 0.51203  0.38111  0.35080  Biso   1.000  C
  O4       1.0000 0.86802  0.30803  0.73350  Biso   1.000  O
  O5       1.0000 0.96773  0.06614  0.26150  Biso   1.000  O
  O6       1.0000 0.01590  0.11823  0.51240  Biso   1.000  O
  C4       1.0000 0.94350  0.18759  0.07240  Biso   1.000  C
  H2       1.0000 0.93410  0.14490  0.00830  Biso   1.000  H
  C5       1.0000 0.97528  0.18730  0.25460  Biso   1.000  C
  C6       1.0000 0.98797  0.11889  0.35080  Biso   1.000  C
  O7       1.0000 0.30803  0.63198  0.73350  Biso   1.000  O
  O8       1.0000 0.06614  0.53227  0.26150  Biso   1.000  O
  O9       1.0000 0.11823  0.48410  0.51240  Biso   1.000  O
  C7       1.0000 0.18759  0.55650  0.07240  Biso   1.000  C
  H3       1.0000 0.14490  0.56590  0.00830  Biso   1.000  H
  C8       1.0000 0.18730  0.52472  0.25460  Biso   1.000  C
  C9       1.0000 0.11889  0.51203  0.35080  Biso   1.000  C
  O10      1.0000 0.19197  0.86802  0.73350  Biso   1.000  O
  O11      1.0000 0.43386  0.96773  0.26150  Biso   1.000  O
  O12      1.0000 0.38177  0.01590  0.51240  Biso   1.000  O
  C10      1.0000 0.31241  0.94350  0.07240  Biso   1.000  C
  H4       1.0000 0.35510  0.93410  0.00830  Biso   1.000  H
  C11      1.0000 0.31270  0.97528  0.25460  Biso   1.000  C
  C12      1.0000 0.38111  0.98797  0.35080  Biso   1.000  C
  O13      1.0000 0.36802  0.69197  0.26650  Biso   1.000  O
  O14      1.0000 0.46773  0.93386  0.73850  Biso   1.000  O
  O15      1.0000 0.51590  0.88177  0.48760  Biso   1.000  O
  C13      1.0000 0.44350  0.81241  0.92760  Biso   1.000  C
  H5       1.0000 0.43410  0.85510  0.99170  Biso   1.000  H
  C14      1.0000 0.47528  0.81270  0.74540  Biso   1.000  C
  C15      1.0000 0.48797  0.88111  0.64920  Biso   1.000  C
  O16      1.0000 0.13198  0.80803  0.26650  Biso   1.000  O
  O17      1.0000 0.03227  0.56614  0.73850  Biso   1.000  O
  O18      1.0000 0.98410  0.61823  0.48760  Biso   1.000  O
  C16      1.0000 0.05650  0.68759  0.92760  Biso   1.000  C
  H6       1.0000 0.06590  0.64490  0.99170  Biso   1.000  H
  C17      1.0000 0.02472  0.68730  0.74540  Biso   1.000  C
  C18      1.0000 0.01203  0.61889  0.64920  Biso   1.000  C
  O19      1.0000 0.69197  0.13198  0.26650  Biso   1.000  O
  O20      1.0000 0.93386  0.03227  0.73850  Biso   1.000  O
  O21      1.0000 0.88177  0.98410  0.48760  Biso   1.000  O
  C19      1.0000 0.81241  0.05650  0.92760  Biso   1.000  C
  H7       1.0000 0.85510  0.06590  0.99170  Biso   1.000  H
  C20      1.0000 0.81270  0.02472  0.74540  Biso   1.000  C
  C21      1.0000 0.88111  0.01203  0.64920  Biso   1.000  C
  O22      1.0000 0.80803  0.36802  0.26650  Biso   1.000  O
  O23      1.0000 0.56614  0.46773  0.73850  Biso   1.000  O
  O24      1.0000 0.61823  0.51590  0.48760  Biso   1.000  O
  C22      1.0000 0.68759  0.44350  0.92760  Biso   1.000  C
  H8       1.0000 0.64490  0.43410  0.99170  Biso   1.000  H
  C23      1.0000 0.68730  0.47528  0.74540  Biso   1.000  C
  C24      1.0000 0.61889  0.48797  0.64920  Biso   1.000  C
  O25      1.0000 0.36802  0.80803  0.26650  Biso   1.000  O
  O26      1.0000 0.46773  0.56614  0.73850  Biso   1.000  O
  O27      1.0000 0.51590  0.61823  0.48760  Biso   1.000  O
  C25      1.0000 0.44350  0.68759  0.92760  Biso   1.000  C
  H9       1.0000 0.43410  0.64490  0.99170  Biso   1.000  H
  C26      1.0000 0.47528  0.68730  0.74540  Biso   1.000  C
  C27      1.0000 0.48797  0.61889  0.64920  Biso   1.000  C
  O28      1.0000 0.13198  0.69197  0.26650  Biso   1.000  O
  O29      1.0000 0.03227  0.93386  0.73850  Biso   1.000  O
  O30      1.0000 0.98410  0.88177  0.48760  Biso   1.000  O
  C28      1.0000 0.05650  0.81241  0.92760  Biso   1.000  C
  H10      1.0000 0.06590  0.85510  0.99170  Biso   1.000  H
  C29      1.0000 0.02472  0.81270  0.74540  Biso   1.000  C
  C30      1.0000 0.01203  0.88111  0.64920  Biso   1.000  C
  O31      1.0000 0.69197  0.36802  0.26650  Biso   1.000  O
  O32      1.0000 0.93386  0.46773  0.73850  Biso   1.000  O
  O33      1.0000 0.88177  0.51590  0.48760  Biso   1.000  O
  C31      1.0000 0.81241  0.44350  0.92760  Biso   1.000  C
  H11      1.0000 0.85510  0.43410  0.99170  Biso   1.000  H
  C32      1.0000 0.81270  0.47528  0.74540  Biso   1.000  C
  C33      1.0000 0.88111  0.48797  0.64920  Biso   1.000  C
  O34      1.0000 0.80803  0.13198  0.26650  Biso   1.000  O
  O35      1.0000 0.56614  0.03227  0.73850  Biso   1.000  O
  O36      1.0000 0.61823  0.98410  0.48760  Biso   1.000  O
  C34      1.0000 0.68759  0.05650  0.92760  Biso   1.000  C
  H12      1.0000 0.64490  0.06590  0.99170  Biso   1.000  H
  C35      1.0000 0.68730  0.02472  0.74540  Biso   1.000  C
  C36      1.0000 0.61889  0.01203  0.64920  Biso   1.000  C
  O37      1.0000 0.63198  0.30803  0.73350  Biso   1.000  O
  O38      1.0000 0.53227  0.06614  0.26150  Biso   1.000  O
  O39      1.0000 0.48410  0.11823  0.51240  Biso   1.000  O
  C37      1.0000 0.55650  0.18759  0.07240  Biso   1.000  C
  H13      1.0000 0.56590  0.14490  0.00830  Biso   1.000  H
  C38      1.0000 0.52472  0.18730  0.25460  Biso   1.000  C
  C39      1.0000 0.51203  0.11889  0.35080  Biso   1.000  C
  O40      1.0000 0.86802  0.19197  0.73350  Biso   1.000  O
  O41      1.0000 0.96773  0.43386  0.26150  Biso   1.000  O
  O42      1.0000 0.01590  0.38177  0.51240  Biso   1.000  O
  C40      1.0000 0.94350  0.31241  0.07240  Biso   1.000  C
  H14      1.0000 0.93410  0.35510  0.00830  Biso   1.000  H
  C41      1.0000 0.97528  0.31270  0.25460  Biso   1.000  C
  C42      1.0000 0.98797  0.38111  0.35080  Biso   1.000  C
  O43      1.0000 0.30803  0.86802  0.73350  Biso   1.000  O
  O44      1.0000 0.06614  0.96773  0.26150  Biso   1.000  O
  O45      1.0000 0.11823  0.01590  0.51240  Biso   1.000  O
  C43      1.0000 0.18759  0.94350  0.07240  Biso   1.000  C
  H15      1.0000 0.14490  0.93410  0.00830  Biso   1.000  H
  C44      1.0000 0.18730  0.97528  0.25460  Biso   1.000  C
  C45      1.0000 0.11889  0.98797  0.35080  Biso   1.000  C
  O46      1.0000 0.19197  0.63198  0.73350  Biso   1.000  O
  O47      1.0000 0.43386  0.53227  0.26150  Biso   1.000  O
  O48      1.0000 0.38177  0.48410  0.51240  Biso   1.000  O
  C46      1.0000 0.31241  0.55650  0.07240  Biso   1.000  C
  H16      1.0000 0.35510  0.56590  0.00830  Biso   1.000  H
  C47      1.0000 0.31270  0.52472  0.25460  Biso   1.000  C
  C48      1.0000 0.38111  0.51203  0.35080  Biso   1.000  C
  Cu1      1.0000 0.67264  0.17264  0.50000  Biso   1.000  Cu
  Cu2      1.0000 0.82736  0.32736  0.50000  Biso   1.000  Cu
  Cu3      1.0000 0.32736  0.67264  0.50000  Biso   1.000  Cu
  Cu4      1.0000 0.17264  0.82736  0.50000  Biso   1.000  Cu
  Cu5      1.0000 0.32736  0.82736  0.50000  Biso   1.000  Cu
  Cu6      1.0000 0.17264  0.67264  0.50000  Biso   1.000  Cu
  Cu7      1.0000 0.67264  0.32736  0.50000  Biso   1.000  Cu
  Cu8      1.0000 0.82736  0.17264  0.50000  Biso   1.000  Cu
  Cu9      1.0000 0.53003  0.53003  0.35189  Biso   1.000  Cu
  O49      1.0000 0.57098  0.57098  0.08600  Biso   1.000  O
  H17      1.0000 0.60250  0.60250  0.05500  Biso   1.000  H
  H18      1.0000 0.55900  0.55900  0.97000  Biso   1.000  H
  Cu10     1.0000 0.96997  0.96997  0.35189  Biso   1.000  Cu
  O50      1.0000 0.92902  0.92902  0.08600  Biso   1.000  O
  H19      1.0000 0.89750  0.89750  0.05500  Biso   1.000  H
  H20      1.0000 0.94100  0.94100  0.97000  Biso   1.000  H
  Cu11     1.0000 0.96997  0.53003  0.35189  Biso   1.000  Cu
  O51      1.0000 0.92902  0.57098  0.08600  Biso   1.000  O
  H21      1.0000 0.89750  0.60250  0.05500  Biso   1.000  H
  H22      1.0000 0.94100  0.55900  0.97000  Biso   1.000  H
  Cu12     1.0000 0.53003  0.96997  0.35189  Biso   1.000  Cu
  O52      1.0000 0.57098  0.92902  0.08600  Biso   1.000  O
  H23      1.0000 0.60250  0.89750  0.05500  Biso   1.000  H
  H24      1.0000 0.55900  0.94100  0.97000  Biso   1.000  H
  Cu13     1.0000 0.46997  0.03003  0.64811  Biso   1.000  Cu
  O53      1.0000 0.42902  0.07098  0.91400  Biso   1.000  O
  H25      1.0000 0.39750  0.10250  0.94500  Biso   1.000  H
  H26      1.0000 0.44100  0.05900  0.03000  Biso   1.000  H
  Cu14     1.0000 0.03003  0.46997  0.64811  Biso   1.000  Cu
  O54      1.0000 0.07098  0.42902  0.91400  Biso   1.000  O
  H27      1.0000 0.10250  0.39750  0.94500  Biso   1.000  H
  H28      1.0000 0.05900  0.44100  0.03000  Biso   1.000  H
  Cu15     1.0000 0.03003  0.03003  0.64811  Biso   1.000  Cu
  O55      1.0000 0.07098  0.07098  0.91400  Biso   1.000  O
  H29      1.0000 0.10250  0.10250  0.94500  Biso   1.000  H
  H30      1.0000 0.05900  0.05900  0.03000  Biso   1.000  H
  Cu16     1.0000 0.46997  0.46997  0.64811  Biso   1.000  Cu
  O56      1.0000 0.42902  0.42902  0.91400  Biso   1.000  O
  H31      1.0000 0.39750  0.39750  0.94500  Biso   1.000  H
  H32      1.0000 0.44100  0.44100  0.03000  Biso   1.000  H
  C49      1.0000 0.61530  0.25000  0.80180  Biso   1.000  C
  C50      1.0000 0.57420  0.25000  0.98550  Biso   1.000  C
  C51      1.0000 0.50920  0.25000  0.34680  Biso   1.000  C
  H33      1.0000 0.48840  0.25000  0.47140  Biso   1.000  H
  C52      1.0000 0.88470  0.25000  0.80180  Biso   1.000  C
  C53      1.0000 0.92580  0.25000  0.98550  Biso   1.000  C
  C54      1.0000 0.99080  0.25000  0.34680  Biso   1.000  C
  H34      1.0000 0.01160  0.25000  0.47140  Biso   1.000  H
  C55      1.0000 0.25000  0.61530  0.80180  Biso   1.000  C
  C56      1.0000 0.25000  0.57420  0.98550  Biso   1.000  C
  C57      1.0000 0.25000  0.50920  0.34680  Biso   1.000  C
  H35      1.0000 0.25000  0.48840  0.47140  Biso   1.000  H
  C58      1.0000 0.25000  0.88470  0.80180  Biso   1.000  C
  C59      1.0000 0.25000  0.92580  0.98550  Biso   1.000  C
  C60      1.0000 0.25000  0.99080  0.34680  Biso   1.000  C
  H36      1.0000 0.25000  0.01160  0.47140  Biso   1.000  H
  C61      1.0000 0.38470  0.75000  0.19820  Biso   1.000  C
  C62      1.0000 0.42580  0.75000  0.01450  Biso   1.000  C
  C63      1.0000 0.49080  0.75000  0.65320  Biso   1.000  C
  H37      1.0000 0.51160  0.75000  0.52860  Biso   1.000  H
  C64      1.0000 0.11530  0.75000  0.19820  Biso   1.000  C
  C65      1.0000 0.07420  0.75000  0.01450  Biso   1.000  C
  C66      1.0000 0.00920  0.75000  0.65320  Biso   1.000  C
  H38      1.0000 0.98840  0.75000  0.52860  Biso   1.000  H
  C67      1.0000 0.75000  0.11530  0.19820  Biso   1.000  C
  C68      1.0000 0.75000  0.07420  0.01450  Biso   1.000  C
  C69      1.0000 0.75000  0.00920  0.65320  Biso   1.000  C
  H39      1.0000 0.75000  0.98840  0.52860  Biso   1.000  H
  C70      1.0000 0.75000  0.38470  0.19820  Biso   1.000  C
  C71      1.0000 0.75000  0.42580  0.01450  Biso   1.000  C
  C72      1.0000 0.75000  0.49080  0.65320  Biso   1.000  C
  H40      1.0000 0.75000  0.51160  0.52860  Biso   1.000  H
