data_image0
_cell_length_a       14.2719
_cell_length_b       14.272
_cell_length_c       17.5688
_cell_angle_alpha    76.4632
_cell_angle_beta     76.4631
_cell_angle_gamma    115.07

_symmetry_space_group_name_H-M    P 1
_symmetry_int_tables_number       1

loop_
  _symmetry_equiv_pos_as_xyz
  'x, y, z'

loop_
  _atom_site_label
  _atom_site_occupancy
  _atom_site_fract_x
  _atom_site_fract_y
  _atom_site_fract_z
  _atom_site_thermal_displace_type
  _atom_site_B_iso_or_equiv
  _atom_site_type_symbol
  Ni1      1.0000 0.19325  0.21499  0.81474  Biso   1.000  Ni
  Ni2      1.0000 0.99201  0.97027  0.81474  Biso   1.000  Ni
  Ni3      1.0000 0.96499  0.44325  0.31474  Biso   1.000  Ni
  Ni4      1.0000 0.72027  0.24201  0.31474  Biso   1.000  Ni
  H1       1.0000 0.10700  0.15500  0.70200  Biso   1.000  H
  H2       1.0000 0.40440  0.28760  0.84860  Biso   1.000  H
  H3       1.0000 0.49820  0.38660  0.91900  Biso   1.000  H
  H4       1.0000 0.23830  0.42830  0.00660  Biso   1.000  H
  H5       1.0000 0.15190  0.32870  0.93480  Biso   1.000  H
  H6       1.0000 0.42490  0.54370  0.01640  Biso   1.000  H
  H7       1.0000 0.35570  0.32630  0.13480  Biso   1.000  H
  H8       1.0000 0.16300  0.25520  0.19840  Biso   1.000  H
  H9       1.0000 0.01490  0.27010  0.27020  Biso   1.000  H
  H10      1.0000 0.21440  0.58000  0.23120  Biso   1.000  H
  H11      1.0000 0.36670  0.57330  0.16100  Biso   1.000  H
  H12      1.0000 0.31460  0.05400  0.95980  Biso   1.000  H
  H13      1.0000 0.35130  0.96470  0.06540  Biso   1.000  H
  H14      1.0000 0.22240  0.78420  0.15820  Biso   1.000  H
  H15      1.0000 0.02170  0.77530  0.02700  Biso   1.000  H
  H16      1.0000 0.19100  0.14300  0.70200  Biso   1.000  H
  H17      1.0000 0.74700  0.86380  0.84860  Biso   1.000  H
  H18      1.0000 0.58280  0.69440  0.91900  Biso   1.000  H
  H19      1.0000 0.75510  0.56510  0.00660  Biso   1.000  H
  H20      1.0000 0.91330  0.73650  0.93480  Biso   1.000  H
  H21      1.0000 0.55870  0.43990  0.01640  Biso   1.000  H
  H22      1.0000 0.50950  0.53890  0.13480  Biso   1.000  H
  H23      1.0000 0.63860  0.54640  0.19840  Biso   1.000  H
  H24      1.0000 0.71490  0.45970  0.27020  Biso   1.000  H
  H25      1.0000 0.55440  0.18880  0.23120  Biso   1.000  H
  H26      1.0000 0.47230  0.26570  0.16100  Biso   1.000  H
  H27      1.0000 0.72560  0.98620  0.95980  Biso   1.000  H
  H28      1.0000 0.58330  0.96990  0.06540  Biso   1.000  H
  H29      1.0000 0.61940  0.05760  0.15820  Biso   1.000  H
  H30      1.0000 0.95130  0.19770  0.02700  Biso   1.000  H
  H31      1.0000 0.90500  0.35700  0.20200  Biso   1.000  H
  H32      1.0000 0.03760  0.65440  0.34860  Biso   1.000  H
  H33      1.0000 0.13660  0.74820  0.41900  Biso   1.000  H
  H34      1.0000 0.17830  0.48830  0.50660  Biso   1.000  H
  H35      1.0000 0.07870  0.40190  0.43480  Biso   1.000  H
  H36      1.0000 0.29370  0.67490  0.51640  Biso   1.000  H
  H37      1.0000 0.07630  0.60570  0.63480  Biso   1.000  H
  H38      1.0000 0.00520  0.41300  0.69840  Biso   1.000  H
  H39      1.0000 0.02010  0.26490  0.77020  Biso   1.000  H
  H40      1.0000 0.33000  0.46440  0.73120  Biso   1.000  H
  H41      1.0000 0.32330  0.61670  0.66100  Biso   1.000  H
  H42      1.0000 0.80400  0.56460  0.45980  Biso   1.000  H
  H43      1.0000 0.71470  0.60130  0.56540  Biso   1.000  H
  H44      1.0000 0.53420  0.47240  0.65820  Biso   1.000  H
  H45      1.0000 0.52530  0.27170  0.52700  Biso   1.000  H
  H46      1.0000 0.89300  0.44100  0.20200  Biso   1.000  H
  H47      1.0000 0.61380  0.99700  0.34860  Biso   1.000  H
  H48      1.0000 0.44440  0.83280  0.41900  Biso   1.000  H
  H49      1.0000 0.31510  0.00510  0.50660  Biso   1.000  H
  H50      1.0000 0.48650  0.16330  0.43480  Biso   1.000  H
  H51      1.0000 0.18990  0.80870  0.51640  Biso   1.000  H
  H52      1.0000 0.28890  0.75950  0.63480  Biso   1.000  H
  H53      1.0000 0.29640  0.88860  0.69840  Biso   1.000  H
  H54      1.0000 0.20970  0.96490  0.77020  Biso   1.000  H
  H55      1.0000 0.93880  0.80440  0.73120  Biso   1.000  H
  H56      1.0000 0.01570  0.72230  0.66100  Biso   1.000  H
  H57      1.0000 0.73620  0.97560  0.45980  Biso   1.000  H
  H58      1.0000 0.71990  0.83330  0.56540  Biso   1.000  H
  H59      1.0000 0.80760  0.86940  0.65820  Biso   1.000  H
  H60      1.0000 0.94770  0.20130  0.52700  Biso   1.000  H
  C1       1.0000 0.37007  0.31607  0.88146  Biso   1.000  C
  C2       1.0000 0.42650  0.37450  0.92420  Biso   1.000  C
  C3       1.0000 0.37699  0.41499  0.97462  Biso   1.000  C
  C4       1.0000 0.27357  0.39877  0.97566  Biso   1.000  C
  C5       1.0000 0.22266  0.34026  0.93188  Biso   1.000  C
  C6       1.0000 0.42835  0.47415  0.02650  Biso   1.000  C
  C7       1.0000 0.37787  0.40547  0.12406  Biso   1.000  C
  C8       1.0000 0.28334  0.41214  0.17452  Biso   1.000  C
  C9       1.0000 0.17600  0.32240  0.20540  Biso   1.000  C
  C10      1.0000 0.08730  0.33290  0.24720  Biso   1.000  C
  C11      1.0000 0.20340  0.51300  0.22480  Biso   1.000  C
  C12      1.0000 0.29530  0.50910  0.18340  Biso   1.000  C
  C13      1.0000 0.16216  0.92596  0.98568  Biso   1.000  C
  C14      1.0000 0.26120  0.97960  0.99640  Biso   1.000  C
  C15      1.0000 0.28300  0.92640  0.05940  Biso   1.000  C
  C16      1.0000 0.20780  0.81860  0.11360  Biso   1.000  C
  C17      1.0000 0.10808  0.75968  0.10164  Biso   1.000  C
  C18      1.0000 0.08715  0.81435  0.03650  Biso   1.000  C
  C19      1.0000 0.02605  0.63745  0.15850  Biso   1.000  C
  C20      1.0000 0.13722  0.98742  0.91756  Biso   1.000  C
  C21      1.0000 0.74847  0.80247  0.88146  Biso   1.000  C
  C22      1.0000 0.64930  0.70130  0.92420  Biso   1.000  C
  C23      1.0000 0.64839  0.61039  0.97462  Biso   1.000  C
  C24      1.0000 0.75077  0.62557  0.97566  Biso   1.000  C
  C25      1.0000 0.84546  0.72786  0.93188  Biso   1.000  C
  C26      1.0000 0.54515  0.49935  0.02650  Biso   1.000  C
  C27      1.0000 0.49807  0.47047  0.12406  Biso   1.000  C
  C28      1.0000 0.54214  0.41334  0.17452  Biso   1.000  C
  C29      1.0000 0.61860  0.47220  0.20540  Biso   1.000  C
  C30      1.0000 0.66550  0.41990  0.24720  Biso   1.000  C
  C31      1.0000 0.57180  0.26220  0.22480  Biso   1.000  C
  C32      1.0000 0.52130  0.30750  0.18340  Biso   1.000  C
  C33      1.0000 0.85216  0.08836  0.98568  Biso   1.000  C
  C34      1.0000 0.74240  0.02400  0.99640  Biso   1.000  C
  C35      1.0000 0.65760  0.01420  0.05940  Biso   1.000  C
  C36      1.0000 0.67860  0.06780  0.11360  Biso   1.000  C
  C37      1.0000 0.79028  0.13868  0.10164  Biso   1.000  C
  C38      1.0000 0.87635  0.14915  0.03650  Biso   1.000  C
  C39      1.0000 0.81545  0.20405  0.15850  Biso   1.000  C
  C40      1.0000 0.94522  0.09502  0.91756  Biso   1.000  C
  C41      1.0000 0.06607  0.62007  0.38146  Biso   1.000  C
  C42      1.0000 0.12450  0.67650  0.42420  Biso   1.000  C
  C43      1.0000 0.16499  0.62699  0.47462  Biso   1.000  C
  C44      1.0000 0.14877  0.52357  0.47566  Biso   1.000  C
  C45      1.0000 0.09026  0.47266  0.43188  Biso   1.000  C
  C46      1.0000 0.22415  0.67835  0.52650  Biso   1.000  C
  C47      1.0000 0.15547  0.62787  0.62406  Biso   1.000  C
  C48      1.0000 0.16214  0.53334  0.67452  Biso   1.000  C
  C49      1.0000 0.07240  0.42600  0.70540  Biso   1.000  C
  C50      1.0000 0.08290  0.33730  0.74720  Biso   1.000  C
  C51      1.0000 0.26300  0.45340  0.72480  Biso   1.000  C
  C52      1.0000 0.25910  0.54530  0.68340  Biso   1.000  C
  C53      1.0000 0.67596  0.41216  0.48568  Biso   1.000  C
  C54      1.0000 0.72960  0.51120  0.49640  Biso   1.000  C
  C55      1.0000 0.67640  0.53300  0.55940  Biso   1.000  C
  C56      1.0000 0.56860  0.45780  0.61360  Biso   1.000  C
  C57      1.0000 0.50968  0.35808  0.60164  Biso   1.000  C
  C58      1.0000 0.56435  0.33715  0.53650  Biso   1.000  C
  C59      1.0000 0.38745  0.27605  0.65850  Biso   1.000  C
  C60      1.0000 0.73742  0.38722  0.41756  Biso   1.000  C
  C61      1.0000 0.55247  0.99847  0.38146  Biso   1.000  C
  C62      1.0000 0.45130  0.89930  0.42420  Biso   1.000  C
  C63      1.0000 0.36039  0.89839  0.47462  Biso   1.000  C
  C64      1.0000 0.37557  0.00077  0.47566  Biso   1.000  C
  C65      1.0000 0.47786  0.09546  0.43188  Biso   1.000  C
  C66      1.0000 0.24935  0.79515  0.52650  Biso   1.000  C
  C67      1.0000 0.22047  0.74807  0.62406  Biso   1.000  C
  C68      1.0000 0.16334  0.79214  0.67452  Biso   1.000  C
  C69      1.0000 0.22220  0.86860  0.70540  Biso   1.000  C
  C70      1.0000 0.16990  0.91550  0.74720  Biso   1.000  C
  C71      1.0000 0.01220  0.82180  0.72480  Biso   1.000  C
  C72      1.0000 0.05750  0.77130  0.68340  Biso   1.000  C
  C73      1.0000 0.83836  0.10216  0.48568  Biso   1.000  C
  C74      1.0000 0.77400  0.99240  0.49640  Biso   1.000  C
  C75      1.0000 0.76420  0.90760  0.55940  Biso   1.000  C
  C76      1.0000 0.81780  0.92860  0.61360  Biso   1.000  C
  C77      1.0000 0.88868  0.04028  0.60164  Biso   1.000  C
  C78      1.0000 0.89915  0.12635  0.53650  Biso   1.000  C
  C79      1.0000 0.95405  0.06545  0.65850  Biso   1.000  C
  C80      1.0000 0.84502  0.19522  0.41756  Biso   1.000  C
  N1       1.0000 0.27050  0.29828  0.88442  Biso   1.000  N
  N2       1.0000 0.09953  0.42653  0.25614  Biso   1.000  N
  N3       1.0000 0.84508  0.81730  0.88442  Biso   1.000  N
  N4       1.0000 0.64433  0.31733  0.25614  Biso   1.000  N
  N5       1.0000 0.04828  0.52050  0.38442  Biso   1.000  N
  N6       1.0000 0.17653  0.34953  0.75614  Biso   1.000  N
  N7       1.0000 0.56730  0.09508  0.38442  Biso   1.000  N
  N8       1.0000 0.06733  0.89433  0.75614  Biso   1.000  N
  O1       1.0000 0.21419  0.08763  0.87138  Biso   1.000  O
  O2       1.0000 0.04638  0.93520  0.91082  Biso   1.000  O
  O3       1.0000 0.94695  0.58135  0.14010  Biso   1.000  O
  O4       1.0000 0.04496  0.60178  0.22266  Biso   1.000  O
  O5       1.0000 0.91443  0.04099  0.87138  Biso   1.000  O
  O6       1.0000 0.04280  0.15398  0.91082  Biso   1.000  O
  O7       1.0000 0.91295  0.27855  0.14010  Biso   1.000  O
  O8       1.0000 0.73238  0.17556  0.22266  Biso   1.000  O
  O9       1.0000 0.83763  0.46419  0.37138  Biso   1.000  O
  O10      1.0000 0.68520  0.29638  0.41082  Biso   1.000  O
  O11      1.0000 0.33135  0.19695  0.64010  Biso   1.000  O
  O12      1.0000 0.35178  0.29496  0.72266  Biso   1.000  O
  O13      1.0000 0.79099  0.16443  0.37138  Biso   1.000  O
  O14      1.0000 0.90398  0.29280  0.41082  Biso   1.000  O
  O15      1.0000 0.02855  0.16295  0.64010  Biso   1.000  O
  O16      1.0000 0.92556  0.98238  0.72266  Biso   1.000  O
  O17      1.0000 0.13042  0.13042  0.73916  Biso   1.000  O
  O18      1.0000 0.88042  0.38042  0.23916  Biso   1.000  O
