data_image0
_cell_length_a       14.0243
_cell_length_b       14.0243
_cell_length_c       17.9178
_cell_angle_alpha    103.787
_cell_angle_beta     103.787
_cell_angle_gamma    113.02

_symmetry_space_group_name_H-M    P 1
_symmetry_int_tables_number       1

loop_
  _symmetry_equiv_pos_as_xyz
  'x, y, z'

loop_
  _atom_site_label
  _atom_site_occupancy
  _atom_site_fract_x
  _atom_site_fract_y
  _atom_site_fract_z
  _atom_site_thermal_displace_type
  _atom_site_B_iso_or_equiv
  _atom_site_type_symbol
  Ni1      1.0000 0.19918  0.21810  0.19506  Biso   1.000  Ni
  Ni2      1.0000 0.99588  0.97696  0.19506  Biso   1.000  Ni
  Ni3      1.0000 0.96810  0.44918  0.69506  Biso   1.000  Ni
  Ni4      1.0000 0.72696  0.24588  0.69506  Biso   1.000  Ni
  H1       1.0000 0.02380  0.27560  0.24240  Biso   1.000  H
  H2       1.0000 0.01050  0.42490  0.31140  Biso   1.000  H
  H3       1.0000 0.33060  0.61920  0.35580  Biso   1.000  H
  H4       1.0000 0.33650  0.46630  0.28220  Biso   1.000  H
  H5       1.0000 0.08710  0.62010  0.38700  Biso   1.000  H
  H6       1.0000 0.30250  0.68030  0.49900  Biso   1.000  H
  H7       1.0000 0.18090  0.48930  0.50460  Biso   1.000  H
  H8       1.0000 0.07710  0.40550  0.57340  Biso   1.000  H
  H9       1.0000 0.04650  0.66770  0.66820  Biso   1.000  H
  H10      1.0000 0.14490  0.76030  0.59760  Biso   1.000  H
  H11      1.0000 0.31520  0.04760  0.05020  Biso   1.000  H
  H12      1.0000 0.35140  0.95300  0.94380  Biso   1.000  H
  H13      1.0000 0.21760  0.77320  0.85260  Biso   1.000  H
  H14      1.0000 0.01110  0.78230  0.97400  Biso   1.000  H
  H15      1.0000 0.21860  0.96680  0.24240  Biso   1.000  H
  H16      1.0000 0.30090  0.88650  0.31140  Biso   1.000  H
  H17      1.0000 0.02520  0.73660  0.35580  Biso   1.000  H
  H18      1.0000 0.94570  0.81590  0.28220  Biso   1.000  H
  H19      1.0000 0.29990  0.76690  0.38700  Biso   1.000  H
  H20      1.0000 0.19650  0.81870  0.49900  Biso   1.000  H
  H21      1.0000 0.32370  0.01530  0.50460  Biso   1.000  H
  H22      1.0000 0.49630  0.16790  0.57340  Biso   1.000  H
  H23      1.0000 0.62170  0.00050  0.66820  Biso   1.000  H
  H24      1.0000 0.45270  0.83730  0.59760  Biso   1.000  H
  H25      1.0000 0.73500  0.00260  0.05020  Biso   1.000  H
  H26      1.0000 0.59240  0.99080  0.94380  Biso   1.000  H
  H27      1.0000 0.63500  0.07940  0.85260  Biso   1.000  H
  H28      1.0000 0.96290  0.19170  0.97400  Biso   1.000  H
  H29      1.0000 0.02560  0.27380  0.74240  Biso   1.000  H
  H30      1.0000 0.17490  0.26050  0.81140  Biso   1.000  H
  H31      1.0000 0.36920  0.58060  0.85580  Biso   1.000  H
  H32      1.0000 0.21630  0.58650  0.78220  Biso   1.000  H
  H33      1.0000 0.37010  0.33710  0.88700  Biso   1.000  H
  H34      1.0000 0.43030  0.55250  0.99900  Biso   1.000  H
  H35      1.0000 0.23930  0.43090  0.00460  Biso   1.000  H
  H36      1.0000 0.15550  0.32710  0.07340  Biso   1.000  H
  H37      1.0000 0.41770  0.29650  0.16820  Biso   1.000  H
  H38      1.0000 0.51030  0.39490  0.09760  Biso   1.000  H
  H39      1.0000 0.79760  0.56520  0.55020  Biso   1.000  H
  H40      1.0000 0.70300  0.60140  0.44380  Biso   1.000  H
  H41      1.0000 0.52320  0.46760  0.35260  Biso   1.000  H
  H42      1.0000 0.53230  0.26110  0.47400  Biso   1.000  H
  H43      1.0000 0.71680  0.46860  0.74240  Biso   1.000  H
  H44      1.0000 0.63650  0.55090  0.81140  Biso   1.000  H
  H45      1.0000 0.48660  0.27520  0.85580  Biso   1.000  H
  H46      1.0000 0.56590  0.19570  0.78220  Biso   1.000  H
  H47      1.0000 0.51690  0.54990  0.88700  Biso   1.000  H
  H48      1.0000 0.56870  0.44650  0.99900  Biso   1.000  H
  H49      1.0000 0.76530  0.57370  0.00460  Biso   1.000  H
  H50      1.0000 0.91790  0.74630  0.07340  Biso   1.000  H
  H51      1.0000 0.75050  0.87170  0.16820  Biso   1.000  H
  H52      1.0000 0.58730  0.70270  0.09760  Biso   1.000  H
  H53      1.0000 0.75260  0.98500  0.55020  Biso   1.000  H
  H54      1.0000 0.74080  0.84240  0.44380  Biso   1.000  H
  H55      1.0000 0.82940  0.88500  0.35260  Biso   1.000  H
  H56      1.0000 0.94170  0.21290  0.47400  Biso   1.000  H
  C1       1.0000 0.08710  0.34630  0.26520  Biso   1.000  C
  C2       1.0000 0.07910  0.43530  0.30720  Biso   1.000  C
  C3       1.0000 0.17120  0.54180  0.34460  Biso   1.000  C
  C4       1.0000 0.26620  0.54940  0.33300  Biso   1.000  C
  C5       1.0000 0.26930  0.45710  0.28860  Biso   1.000  C
  C6       1.0000 0.16580  0.63880  0.39680  Biso   1.000  C
  C7       1.0000 0.23290  0.68610  0.48980  Biso   1.000  C
  C8       1.0000 0.17460  0.63640  0.54180  Biso   1.000  C
  C9       1.0000 0.15360  0.52760  0.53660  Biso   1.000  C
  C10      1.0000 0.09290  0.47910  0.57900  Biso   1.000  C
  C11      1.0000 0.07370  0.63170  0.63440  Biso   1.000  C
  C12      1.0000 0.13310  0.68770  0.59200  Biso   1.000  C
  C13      1.0000 0.15960  0.92400  0.02220  Biso   1.000  C
  C14      1.0000 0.26120  0.97500  0.01340  Biso   1.000  C
  C15      1.0000 0.28280  0.91860  0.95000  Biso   1.000  C
  C16      1.0000 0.20300  0.81140  0.89560  Biso   1.000  C
  C17      1.0000 0.10130  0.76030  0.90440  Biso   1.000  C
  C18      1.0000 0.07970  0.81670  0.96780  Biso   1.000  C
  C19      1.0000 0.14060  0.98860  0.09260  Biso   1.000  C
  C20      1.0000 0.02030  0.64150  0.84640  Biso   1.000  C
  C21      1.0000 0.17810  0.91890  0.26520  Biso   1.000  C
  C22      1.0000 0.22810  0.87190  0.30720  Biso   1.000  C
  C23      1.0000 0.17340  0.80280  0.34460  Biso   1.000  C
  C24      1.0000 0.06680  0.78360  0.33300  Biso   1.000  C
  C25      1.0000 0.01930  0.83150  0.28860  Biso   1.000  C
  C26      1.0000 0.23100  0.75800  0.39680  Biso   1.000  C
  C27      1.0000 0.25690  0.80370  0.48980  Biso   1.000  C
  C28      1.0000 0.36720  0.90540  0.54180  Biso   1.000  C
  C29      1.0000 0.38300  0.00900  0.53660  Biso   1.000  C
  C30      1.0000 0.48610  0.09990  0.57900  Biso   1.000  C
  C31      1.0000 0.56070  0.00270  0.63440  Biso   1.000  C
  C32      1.0000 0.45890  0.90430  0.59200  Biso   1.000  C
  C33      1.0000 0.86260  0.09820  0.02220  Biso   1.000  C
  C34      1.0000 0.75220  0.03840  0.01340  Biso   1.000  C
  C35      1.0000 0.66720  0.03140  0.95000  Biso   1.000  C
  C36      1.0000 0.69260  0.08420  0.89560  Biso   1.000  C
  C37      1.0000 0.80310  0.14410  0.90440  Biso   1.000  C
  C38      1.0000 0.88810  0.15110  0.96780  Biso   1.000  C
  C39      1.0000 0.95200  0.10400  0.09260  Biso   1.000  C
  C40      1.0000 0.82610  0.20490  0.84640  Biso   1.000  C
  C41      1.0000 0.09630  0.33710  0.76520  Biso   1.000  C
  C42      1.0000 0.18530  0.32910  0.80720  Biso   1.000  C
  C43      1.0000 0.29180  0.42120  0.84460  Biso   1.000  C
  C44      1.0000 0.29940  0.51620  0.83300  Biso   1.000  C
  C45      1.0000 0.20710  0.51930  0.78860  Biso   1.000  C
  C46      1.0000 0.38880  0.41580  0.89680  Biso   1.000  C
  C47      1.0000 0.43610  0.48290  0.98980  Biso   1.000  C
  C48      1.0000 0.38640  0.42460  0.04180  Biso   1.000  C
  C49      1.0000 0.27760  0.40360  0.03660  Biso   1.000  C
  C50      1.0000 0.22910  0.34290  0.07900  Biso   1.000  C
  C51      1.0000 0.38170  0.32370  0.13440  Biso   1.000  C
  C52      1.0000 0.43770  0.38310  0.09200  Biso   1.000  C
  C53      1.0000 0.67400  0.40960  0.52220  Biso   1.000  C
  C54      1.0000 0.72500  0.51120  0.51340  Biso   1.000  C
  C55      1.0000 0.66860  0.53280  0.45000  Biso   1.000  C
  C56      1.0000 0.56140  0.45300  0.39560  Biso   1.000  C
  C57      1.0000 0.51030  0.35130  0.40440  Biso   1.000  C
  C58      1.0000 0.56670  0.32970  0.46780  Biso   1.000  C
  C59      1.0000 0.73860  0.39060  0.59260  Biso   1.000  C
  C60      1.0000 0.39150  0.27030  0.34640  Biso   1.000  C
  C61      1.0000 0.66890  0.42810  0.76520  Biso   1.000  C
  C62      1.0000 0.62190  0.47810  0.80720  Biso   1.000  C
  C63      1.0000 0.55280  0.42340  0.84460  Biso   1.000  C
  C64      1.0000 0.53360  0.31680  0.83300  Biso   1.000  C
  C65      1.0000 0.58150  0.26930  0.78860  Biso   1.000  C
  C66      1.0000 0.50800  0.48100  0.89680  Biso   1.000  C
  C67      1.0000 0.55370  0.50690  0.98980  Biso   1.000  C
  C68      1.0000 0.65540  0.61720  0.04180  Biso   1.000  C
  C69      1.0000 0.75900  0.63300  0.03660  Biso   1.000  C
  C70      1.0000 0.84990  0.73610  0.07900  Biso   1.000  C
  C71      1.0000 0.75270  0.81070  0.13440  Biso   1.000  C
  C72      1.0000 0.65430  0.70890  0.09200  Biso   1.000  C
  C73      1.0000 0.84820  0.11260  0.52220  Biso   1.000  C
  C74      1.0000 0.78840  0.00220  0.51340  Biso   1.000  C
  C75      1.0000 0.78140  0.91720  0.45000  Biso   1.000  C
  C76      1.0000 0.83420  0.94260  0.39560  Biso   1.000  C
  C77      1.0000 0.89410  0.05310  0.40440  Biso   1.000  C
  C78      1.0000 0.90110  0.13810  0.46780  Biso   1.000  C
  C79      1.0000 0.85400  0.20200  0.59260  Biso   1.000  C
  C80      1.0000 0.95490  0.07610  0.34640  Biso   1.000  C
  N1       1.0000 0.18110  0.35430  0.25420  Biso   1.000  N
  N2       1.0000 0.05489  0.52929  0.62798  Biso   1.000  N
  N3       1.0000 0.07310  0.89990  0.25420  Biso   1.000  N
  N4       1.0000 0.57309  0.09869  0.62798  Biso   1.000  N
  N5       1.0000 0.10430  0.43110  0.75420  Biso   1.000  N
  N6       1.0000 0.27929  0.30489  0.12798  Biso   1.000  N
  N7       1.0000 0.64990  0.32310  0.75420  Biso   1.000  N
  N8       1.0000 0.84869  0.82309  0.12798  Biso   1.000  N
  O1       1.0000 0.21710  0.08470  0.13720  Biso   1.000  O
  O2       1.0000 0.05025  0.93805  0.10090  Biso   1.000  O
  O3       1.0000 0.93637  0.58697  0.86214  Biso   1.000  O
  O4       1.0000 0.04330  0.60590  0.78500  Biso   1.000  O
  O5       1.0000 0.92010  0.05250  0.13720  Biso   1.000  O
  O6       1.0000 0.05065  0.16285  0.10090  Biso   1.000  O
  O7       1.0000 0.92577  0.27517  0.86214  Biso   1.000  O
  O8       1.0000 0.74170  0.17910  0.78500  Biso   1.000  O
  O9       1.0000 0.83470  0.46710  0.63720  Biso   1.000  O
  O10      1.0000 0.68805  0.30025  0.60090  Biso   1.000  O
  O11      1.0000 0.33697  0.18637  0.36214  Biso   1.000  O
  O12      1.0000 0.35590  0.29330  0.28500  Biso   1.000  O
  O13      1.0000 0.80250  0.17010  0.63720  Biso   1.000  O
  O14      1.0000 0.91285  0.30065  0.60090  Biso   1.000  O
  O15      1.0000 0.02517  0.17577  0.36214  Biso   1.000  O
  O16      1.0000 0.92910  0.99170  0.28500  Biso   1.000  O
  O17      1.0000 0.13410  0.13410  0.26820  Biso   1.000  O
  O18      1.0000 0.88410  0.38410  0.76820  Biso   1.000  O
