data_image0
_cell_length_a       10.885
_cell_length_b       10.93
_cell_length_c       18.518
_cell_angle_alpha    87.42
_cell_angle_beta     84.99
_cell_angle_gamma    70.57

_symmetry_space_group_name_H-M    P 1
_symmetry_int_tables_number       1

loop_
  _symmetry_equiv_pos_as_xyz
  'x, y, z'

loop_
  _atom_site_label
  _atom_site_occupancy
  _atom_site_fract_x
  _atom_site_fract_y
  _atom_site_fract_z
  _atom_site_thermal_displace_type
  _atom_site_B_iso_or_equiv
  _atom_site_type_symbol
  Zn1      1.0000 0.34332  0.24176  0.57692  Biso   1.000  Zn
  Zn2      1.0000 0.31858  0.23809  0.73963  Biso   1.000  Zn
  H1       1.0000 0.76010  0.21030  0.55170  Biso   1.000  H
  H2       1.0000 0.95950  0.24350  0.55730  Biso   1.000  H
  H3       1.0000 0.90920  0.24980  0.77460  Biso   1.000  H
  H4       1.0000 0.71150  0.21410  0.76910  Biso   1.000  H
  H5       1.0000 0.36060  0.63320  0.54490  Biso   1.000  H
  H6       1.0000 0.36650  0.84350  0.54600  Biso   1.000  H
  H7       1.0000 0.32150  0.83940  0.76490  Biso   1.000  H
  H8       1.0000 0.30900  0.62880  0.76300  Biso   1.000  H
  H9       1.0000 0.35010  0.06950  0.45380  Biso   1.000  H
  H10      1.0000 0.33860  0.07540  0.33180  Biso   1.000  H
  H11      1.0000 0.30440  0.45470  0.33060  Biso   1.000  H
  H12      1.0000 0.31670  0.43760  0.45370  Biso   1.000  H
  H13      1.0000 0.44790  0.08700  0.21780  Biso   1.000  H
  H14      1.0000 0.44210  0.08460  0.09450  Biso   1.000  H
  H15      1.0000 0.50600  0.16140  0.98090  Biso   1.000  H
  H16      1.0000 0.50180  0.15300  0.85680  Biso   1.000  H
  H17      1.0000 0.12890  0.34690  0.86600  Biso   1.000  H
  H18      1.0000 0.12190  0.36360  0.98990  Biso   1.000  H
  C1       1.0000 0.71380  0.21240  0.65990  Biso   1.000  C
  C2       1.0000 0.78910  0.21900  0.59630  Biso   1.000  C
  C3       1.0000 0.90900  0.23880  0.59980  Biso   1.000  C
  C4       1.0000 0.95320  0.25140  0.66580  Biso   1.000  C
  C5       1.0000 0.87940  0.24230  0.73000  Biso   1.000  C
  C6       1.0000 0.76050  0.22170  0.72650  Biso   1.000  C
  C7       1.0000 0.58030  0.19870  0.65700  Biso   1.000  C
  C8       1.0000 0.08460  0.27080  0.66910  Biso   1.000  C
  C9       1.0000 0.33200  0.61250  0.65430  Biso   1.000  C
  C10      1.0000 0.35120  0.67530  0.58870  Biso   1.000  C
  C11      1.0000 0.35580  0.80090  0.58940  Biso   1.000  C
  C12      1.0000 0.34470  0.86340  0.65500  Biso   1.000  C
  C13      1.0000 0.32790  0.79880  0.72100  Biso   1.000  C
  C14      1.0000 0.32100  0.67190  0.71990  Biso   1.000  C
  C15      1.0000 0.32090  0.47740  0.65360  Biso   1.000  C
  C16      1.0000 0.34920  0.00050  0.65560  Biso   1.000  C
  C17      1.0000 0.34070  0.14750  0.42880  Biso   1.000  C
  C18      1.0000 0.33470  0.15020  0.35530  Biso   1.000  C
  C19      1.0000 0.32260  0.26480  0.31510  Biso   1.000  C
  C20      1.0000 0.31430  0.37560  0.35440  Biso   1.000  C
  C21      1.0000 0.32100  0.36450  0.42840  Biso   1.000  C
  C22      1.0000 0.32010  0.26730  0.23490  Biso   1.000  C
  C23      1.0000 0.39460  0.15980  0.19430  Biso   1.000  C
  C24      1.0000 0.39140  0.15840  0.11960  Biso   1.000  C
  C25      1.0000 0.31410  0.26530  0.08100  Biso   1.000  C
  C26      1.0000 0.24040  0.37290  0.12160  Biso   1.000  C
  C27      1.0000 0.24490  0.37590  0.19610  Biso   1.000  C
  C28      1.0000 0.31100  0.25990  0.00110  Biso   1.000  C
  C29      1.0000 0.42790  0.19830  0.95910  Biso   1.000  C
  C30      1.0000 0.42410  0.19370  0.88420  Biso   1.000  C
  C31      1.0000 0.20490  0.30800  0.88940  Biso   1.000  C
  C32      1.0000 0.20000  0.31790  0.96440  Biso   1.000  C
  N1       1.0000 0.33380  0.25170  0.46690  Biso   1.000  N
  N2       1.0000 0.31490  0.24450  0.84950  Biso   1.000  N
  O1       1.0000 0.53950  0.19750  0.59570  Biso   1.000  O
  O2       1.0000 0.51720  0.19480  0.71770  Biso   1.000  O
  O3       1.0000 0.12360  0.27400  0.73130  Biso   1.000  O
  O4       1.0000 0.14540  0.28160  0.60920  Biso   1.000  O
  O5       1.0000 0.33090  0.42750  0.59220  Biso   1.000  O
  O6       1.0000 0.30480  0.42470  0.71350  Biso   1.000  O
  O7       1.0000 0.34220  0.05010  0.71620  Biso   1.000  O
  O8       1.0000 0.35880  0.05270  0.59420  Biso   1.000  O
  F1       1.0000 0.16740  0.48460  0.23090  Biso   1.000  F
  F2       1.0000 0.16430  0.48380  0.08890  Biso   1.000  F
  Zn3      1.0000 0.65668  0.75824  0.42308  Biso   1.000  Zn
  Zn4      1.0000 0.68142  0.76191  0.26037  Biso   1.000  Zn
  H19      1.0000 0.23990  0.78970  0.44830  Biso   1.000  H
  H20      1.0000 0.04050  0.75650  0.44270  Biso   1.000  H
  H21      1.0000 0.09080  0.75020  0.22540  Biso   1.000  H
  H22      1.0000 0.28850  0.78590  0.23090  Biso   1.000  H
  H23      1.0000 0.63940  0.36680  0.45510  Biso   1.000  H
  H24      1.0000 0.63350  0.15650  0.45400  Biso   1.000  H
  H25      1.0000 0.67850  0.16060  0.23510  Biso   1.000  H
  H26      1.0000 0.69100  0.37120  0.23700  Biso   1.000  H
  H27      1.0000 0.64990  0.93050  0.54620  Biso   1.000  H
  H28      1.0000 0.66140  0.92460  0.66820  Biso   1.000  H
  H29      1.0000 0.69560  0.54530  0.66940  Biso   1.000  H
  H30      1.0000 0.68330  0.56240  0.54630  Biso   1.000  H
  H31      1.0000 0.55210  0.91300  0.78220  Biso   1.000  H
  H32      1.0000 0.55790  0.91540  0.90550  Biso   1.000  H
  H33      1.0000 0.49400  0.83860  0.01910  Biso   1.000  H
  H34      1.0000 0.49820  0.84700  0.14320  Biso   1.000  H
  H35      1.0000 0.87110  0.65310  0.13400  Biso   1.000  H
  H36      1.0000 0.87810  0.63640  0.01010  Biso   1.000  H
  C33      1.0000 0.28620  0.78760  0.34010  Biso   1.000  C
  C34      1.0000 0.21090  0.78100  0.40370  Biso   1.000  C
  C35      1.0000 0.09100  0.76120  0.40020  Biso   1.000  C
  C36      1.0000 0.04680  0.74860  0.33420  Biso   1.000  C
  C37      1.0000 0.12060  0.75770  0.27000  Biso   1.000  C
  C38      1.0000 0.23950  0.77830  0.27350  Biso   1.000  C
  C39      1.0000 0.41970  0.80130  0.34300  Biso   1.000  C
  C40      1.0000 0.91540  0.72920  0.33090  Biso   1.000  C
  C41      1.0000 0.66800  0.38750  0.34570  Biso   1.000  C
  C42      1.0000 0.64880  0.32470  0.41130  Biso   1.000  C
  C43      1.0000 0.64420  0.19910  0.41060  Biso   1.000  C
  C44      1.0000 0.65530  0.13660  0.34500  Biso   1.000  C
  C45      1.0000 0.67210  0.20120  0.27900  Biso   1.000  C
  C46      1.0000 0.67900  0.32810  0.28010  Biso   1.000  C
  C47      1.0000 0.67910  0.52260  0.34640  Biso   1.000  C
  C48      1.0000 0.65080  0.99950  0.34440  Biso   1.000  C
  C49      1.0000 0.65930  0.85250  0.57120  Biso   1.000  C
  C50      1.0000 0.66530  0.84980  0.64470  Biso   1.000  C
  C51      1.0000 0.67740  0.73520  0.68490  Biso   1.000  C
  C52      1.0000 0.68570  0.62440  0.64560  Biso   1.000  C
  C53      1.0000 0.67900  0.63550  0.57160  Biso   1.000  C
  C54      1.0000 0.67990  0.73270  0.76510  Biso   1.000  C
  C55      1.0000 0.60540  0.84020  0.80570  Biso   1.000  C
  C56      1.0000 0.60860  0.84160  0.88040  Biso   1.000  C
  C57      1.0000 0.68590  0.73470  0.91900  Biso   1.000  C
  C58      1.0000 0.75960  0.62710  0.87840  Biso   1.000  C
  C59      1.0000 0.75510  0.62410  0.80390  Biso   1.000  C
  C60      1.0000 0.68900  0.74010  0.99890  Biso   1.000  C
  C61      1.0000 0.57210  0.80170  0.04090  Biso   1.000  C
  C62      1.0000 0.57590  0.80630  0.11580  Biso   1.000  C
  C63      1.0000 0.79510  0.69200  0.11060  Biso   1.000  C
  C64      1.0000 0.80000  0.68210  0.03560  Biso   1.000  C
  N3       1.0000 0.66620  0.74830  0.53310  Biso   1.000  N
  N4       1.0000 0.68510  0.75550  0.15050  Biso   1.000  N
  O9       1.0000 0.46050  0.80250  0.40430  Biso   1.000  O
  O10      1.0000 0.48280  0.80520  0.28230  Biso   1.000  O
  O11      1.0000 0.87640  0.72600  0.26870  Biso   1.000  O
  O12      1.0000 0.85460  0.71840  0.39080  Biso   1.000  O
  O13      1.0000 0.66910  0.57250  0.40780  Biso   1.000  O
  O14      1.0000 0.69520  0.57530  0.28650  Biso   1.000  O
  O15      1.0000 0.65780  0.94990  0.28380  Biso   1.000  O
  O16      1.0000 0.64120  0.94730  0.40580  Biso   1.000  O
  F3       1.0000 0.83260  0.51540  0.76910  Biso   1.000  F
  F4       1.0000 0.83570  0.51620  0.91110  Biso   1.000  F
