data_image0
_cell_length_a       24.6661
_cell_length_b       24.6661
_cell_length_c       24.6661
_cell_angle_alpha    109.471
_cell_angle_beta     109.471
_cell_angle_gamma    109.471

_symmetry_space_group_name_H-M    P 1
_symmetry_int_tables_number       1

loop_
  _symmetry_equiv_pos_as_xyz
  'x, y, z'

loop_
  _atom_site_label
  _atom_site_occupancy
  _atom_site_fract_x
  _atom_site_fract_y
  _atom_site_fract_z
  _atom_site_thermal_displace_type
  _atom_site_B_iso_or_equiv
  _atom_site_type_symbol
  Ni1      1.0000 0.40682  0.08010  0.08957  Biso   1.000  Ni
  Ni2      1.0000 0.99053  0.31725  0.91043  Biso   1.000  Ni
  Ni3      1.0000 0.00947  0.91990  0.32672  Biso   1.000  Ni
  Ni4      1.0000 0.59318  0.68275  0.67328  Biso   1.000  Ni
  Ni5      1.0000 0.32672  0.00947  0.91990  Biso   1.000  Ni
  Ni6      1.0000 0.67328  0.59318  0.68275  Biso   1.000  Ni
  Ni7      1.0000 0.08957  0.40682  0.08010  Biso   1.000  Ni
  Ni8      1.0000 0.91043  0.99053  0.31725  Biso   1.000  Ni
  Ni9      1.0000 0.31725  0.91043  0.99053  Biso   1.000  Ni
  Ni10     1.0000 0.08010  0.08957  0.40682  Biso   1.000  Ni
  Ni11     1.0000 0.68275  0.67328  0.59318  Biso   1.000  Ni
  Ni12     1.0000 0.91990  0.32672  0.00947  Biso   1.000  Ni
  H1       1.0000 0.85440  0.08110  0.34070  Biso   1.000  H
  H2       1.0000 0.75470  0.08060  0.29910  Biso   1.000  H
  H3       1.0000 0.66210  0.88310  0.18020  Biso   1.000  H
  H4       1.0000 0.76100  0.88670  0.22370  Biso   1.000  H
  H5       1.0000 0.65950  0.06630  0.27980  Biso   1.000  H
  H6       1.0000 0.56350  0.07120  0.22730  Biso   1.000  H
  H7       1.0000 0.48950  0.89480  0.06690  Biso   1.000  H
  H8       1.0000 0.58640  0.89140  0.11960  Biso   1.000  H
  H9       1.0000 0.31310  0.08010  0.20900  Biso   1.000  H
  H10      1.0000 0.28710  0.13100  0.29390  Biso   1.000  H
  H11      1.0000 0.22480  0.87990  0.10210  Biso   1.000  H
  H12      1.0000 0.74040  0.51370  0.65930  Biso   1.000  H
  H13      1.0000 0.78150  0.45560  0.70090  Biso   1.000  H
  H14      1.0000 0.70290  0.48190  0.81980  Biso   1.000  H
  H15      1.0000 0.66300  0.53730  0.77630  Biso   1.000  H
  H16      1.0000 0.78650  0.37970  0.72020  Biso   1.000  H
  H17      1.0000 0.84390  0.33620  0.77270  Biso   1.000  H
  H18      1.0000 0.82790  0.42260  0.93310  Biso   1.000  H
  H19      1.0000 0.77180  0.46680  0.88040  Biso   1.000  H
  H20      1.0000 0.87110  0.10410  0.79100  Biso   1.000  H
  H21      1.0000 0.83710  0.99320  0.70610  Biso   1.000  H
  H22      1.0000 0.77780  0.12270  0.89790  Biso   1.000  H
  H23      1.0000 0.25960  0.91890  0.77330  Biso   1.000  H
  H24      1.0000 0.21850  0.91940  0.67410  Biso   1.000  H
  H25      1.0000 0.29710  0.11690  0.77900  Biso   1.000  H
  H26      1.0000 0.33700  0.11330  0.87430  Biso   1.000  H
  H27      1.0000 0.21350  0.93370  0.59320  Biso   1.000  H
  H28      1.0000 0.15610  0.92880  0.49230  Biso   1.000  H
  H29      1.0000 0.17210  0.10520  0.59470  Biso   1.000  H
  H30      1.0000 0.22820  0.10860  0.69500  Biso   1.000  H
  H31      1.0000 0.12890  0.91990  0.23300  Biso   1.000  H
  H32      1.0000 0.16290  0.86900  0.15610  Biso   1.000  H
  H33      1.0000 0.22220  0.12010  0.34490  Biso   1.000  H
  H34      1.0000 0.14560  0.48630  0.22670  Biso   1.000  H
  H35      1.0000 0.24530  0.54440  0.32590  Biso   1.000  H
  H36      1.0000 0.33790  0.51810  0.22100  Biso   1.000  H
  H37      1.0000 0.23900  0.46270  0.12570  Biso   1.000  H
  H38      1.0000 0.34050  0.62030  0.40680  Biso   1.000  H
  H39      1.0000 0.43650  0.66380  0.50770  Biso   1.000  H
  H40      1.0000 0.51050  0.57740  0.40530  Biso   1.000  H
  H41      1.0000 0.41360  0.53320  0.30500  Biso   1.000  H
  H42      1.0000 0.68690  0.89590  0.76700  Biso   1.000  H
  H43      1.0000 0.71290  0.00680  0.84390  Biso   1.000  H
  H44      1.0000 0.77520  0.87730  0.65510  Biso   1.000  H
  H45      1.0000 0.77330  0.25960  0.91890  Biso   1.000  H
  H46      1.0000 0.67410  0.21850  0.91940  Biso   1.000  H
  H47      1.0000 0.77900  0.29710  0.11690  Biso   1.000  H
  H48      1.0000 0.87430  0.33700  0.11330  Biso   1.000  H
  H49      1.0000 0.59320  0.21350  0.93370  Biso   1.000  H
  H50      1.0000 0.49230  0.15610  0.92880  Biso   1.000  H
  H51      1.0000 0.59470  0.17210  0.10520  Biso   1.000  H
  H52      1.0000 0.69500  0.22820  0.10860  Biso   1.000  H
  H53      1.0000 0.23300  0.12890  0.91990  Biso   1.000  H
  H54      1.0000 0.15610  0.16290  0.86900  Biso   1.000  H
  H55      1.0000 0.34490  0.22220  0.12010  Biso   1.000  H
  H56      1.0000 0.22670  0.14560  0.48630  Biso   1.000  H
  H57      1.0000 0.32590  0.24530  0.54440  Biso   1.000  H
  H58      1.0000 0.22100  0.33790  0.51810  Biso   1.000  H
  H59      1.0000 0.12570  0.23900  0.46270  Biso   1.000  H
  H60      1.0000 0.40680  0.34050  0.62030  Biso   1.000  H
  H61      1.0000 0.50770  0.43650  0.66380  Biso   1.000  H
  H62      1.0000 0.40530  0.51050  0.57740  Biso   1.000  H
  H63      1.0000 0.30500  0.41360  0.53320  Biso   1.000  H
  H64      1.0000 0.76700  0.68690  0.89590  Biso   1.000  H
  H65      1.0000 0.84390  0.71290  0.00680  Biso   1.000  H
  H66      1.0000 0.65510  0.77520  0.87730  Biso   1.000  H
  H67      1.0000 0.34070  0.85440  0.08110  Biso   1.000  H
  H68      1.0000 0.29910  0.75470  0.08060  Biso   1.000  H
  H69      1.0000 0.18020  0.66210  0.88310  Biso   1.000  H
  H70      1.0000 0.22370  0.76100  0.88670  Biso   1.000  H
  H71      1.0000 0.27980  0.65950  0.06630  Biso   1.000  H
  H72      1.0000 0.22730  0.56350  0.07120  Biso   1.000  H
  H73      1.0000 0.06690  0.48950  0.89480  Biso   1.000  H
  H74      1.0000 0.11960  0.58640  0.89140  Biso   1.000  H
  H75      1.0000 0.20900  0.31310  0.08010  Biso   1.000  H
  H76      1.0000 0.29390  0.28710  0.13100  Biso   1.000  H
  H77      1.0000 0.10210  0.22480  0.87990  Biso   1.000  H
  H78      1.0000 0.65930  0.74040  0.51370  Biso   1.000  H
  H79      1.0000 0.70090  0.78150  0.45560  Biso   1.000  H
  H80      1.0000 0.81980  0.70290  0.48190  Biso   1.000  H
  H81      1.0000 0.77630  0.66300  0.53730  Biso   1.000  H
  H82      1.0000 0.72020  0.78650  0.37970  Biso   1.000  H
  H83      1.0000 0.77270  0.84390  0.33620  Biso   1.000  H
  H84      1.0000 0.93310  0.82790  0.42260  Biso   1.000  H
  H85      1.0000 0.88040  0.77180  0.46680  Biso   1.000  H
  H86      1.0000 0.79100  0.87110  0.10410  Biso   1.000  H
  H87      1.0000 0.70610  0.83710  0.99320  Biso   1.000  H
  H88      1.0000 0.89790  0.77780  0.12270  Biso   1.000  H
  H89      1.0000 0.51370  0.65930  0.74040  Biso   1.000  H
  H90      1.0000 0.45560  0.70090  0.78150  Biso   1.000  H
  H91      1.0000 0.48190  0.81980  0.70290  Biso   1.000  H
  H92      1.0000 0.53730  0.77630  0.66300  Biso   1.000  H
  H93      1.0000 0.37970  0.72020  0.78650  Biso   1.000  H
  H94      1.0000 0.33620  0.77270  0.84390  Biso   1.000  H
  H95      1.0000 0.42260  0.93310  0.82790  Biso   1.000  H
  H96      1.0000 0.46680  0.88040  0.77180  Biso   1.000  H
  H97      1.0000 0.10410  0.79100  0.87110  Biso   1.000  H
  H98      1.0000 0.99320  0.70610  0.83710  Biso   1.000  H
  H99      1.0000 0.12270  0.89790  0.77780  Biso   1.000  H
  H100     1.0000 0.08110  0.34070  0.85440  Biso   1.000  H
  H101     1.0000 0.08060  0.29910  0.75470  Biso   1.000  H
  H102     1.0000 0.88310  0.18020  0.66210  Biso   1.000  H
  H103     1.0000 0.88670  0.22370  0.76100  Biso   1.000  H
  H104     1.0000 0.06630  0.27980  0.65950  Biso   1.000  H
  H105     1.0000 0.07120  0.22730  0.56350  Biso   1.000  H
  H106     1.0000 0.89480  0.06690  0.48950  Biso   1.000  H
  H107     1.0000 0.89140  0.11960  0.58640  Biso   1.000  H
  H108     1.0000 0.08010  0.20900  0.31310  Biso   1.000  H
  H109     1.0000 0.13100  0.29390  0.28710  Biso   1.000  H
  H110     1.0000 0.87990  0.10210  0.22480  Biso   1.000  H
  H111     1.0000 0.48630  0.22670  0.14560  Biso   1.000  H
  H112     1.0000 0.54440  0.32590  0.24530  Biso   1.000  H
  H113     1.0000 0.51810  0.22100  0.33790  Biso   1.000  H
  H114     1.0000 0.46270  0.12570  0.23900  Biso   1.000  H
  H115     1.0000 0.62030  0.40680  0.34050  Biso   1.000  H
  H116     1.0000 0.66380  0.50770  0.43650  Biso   1.000  H
  H117     1.0000 0.57740  0.40530  0.51050  Biso   1.000  H
  H118     1.0000 0.53320  0.30500  0.41360  Biso   1.000  H
  H119     1.0000 0.89590  0.76700  0.68690  Biso   1.000  H
  H120     1.0000 0.00680  0.84390  0.71290  Biso   1.000  H
  H121     1.0000 0.87730  0.65510  0.77520  Biso   1.000  H
  H122     1.0000 0.91890  0.77330  0.25960  Biso   1.000  H
  H123     1.0000 0.91940  0.67410  0.21850  Biso   1.000  H
  H124     1.0000 0.11690  0.77900  0.29710  Biso   1.000  H
  H125     1.0000 0.11330  0.87430  0.33700  Biso   1.000  H
  H126     1.0000 0.93370  0.59320  0.21350  Biso   1.000  H
  H127     1.0000 0.92880  0.49230  0.15610  Biso   1.000  H
  H128     1.0000 0.10520  0.59470  0.17210  Biso   1.000  H
  H129     1.0000 0.10860  0.69500  0.22820  Biso   1.000  H
  H130     1.0000 0.91990  0.23300  0.12890  Biso   1.000  H
  H131     1.0000 0.86900  0.15610  0.16290  Biso   1.000  H
  H132     1.0000 0.12010  0.34490  0.22220  Biso   1.000  H
  C1       1.0000 0.81476  0.04040  0.30712  Biso   1.000  C
  C2       1.0000 0.75563  0.04037  0.28294  Biso   1.000  C
  C3       1.0000 0.69696  0.98036  0.23424  Biso   1.000  C
  C4       1.0000 0.70120  0.92461  0.21329  Biso   1.000  C
  C5       1.0000 0.76028  0.92718  0.23878  Biso   1.000  C
  C6       1.0000 0.63242  0.97985  0.20523  Biso   1.000  C
  C7       1.0000 0.62517  0.03142  0.23619  Biso   1.000  C
  C8       1.0000 0.56765  0.03449  0.20494  Biso   1.000  C
  C9       1.0000 0.51749  0.98388  0.14201  Biso   1.000  C
  C10      1.0000 0.52418  0.93016  0.11014  Biso   1.000  C
  C11      1.0000 0.58178  0.92791  0.14149  Biso   1.000  C
  C12      1.0000 0.45719  0.98701  0.10496  Biso   1.000  C
  C13      1.0000 0.30779  0.98921  0.10910  Biso   1.000  C
  C14      1.0000 0.27286  0.98184  0.14856  Biso   1.000  C
  C15      1.0000 0.28174  0.03737  0.19749  Biso   1.000  C
  C16      1.0000 0.24508  0.03190  0.23084  Biso   1.000  C
  C17      1.0000 0.25431  0.08816  0.28063  Biso   1.000  C
  C18      1.0000 0.22920  0.91832  0.13392  Biso   1.000  C
  C19      1.0000 0.73328  0.50764  0.69288  Biso   1.000  C
  C20      1.0000 0.75743  0.47269  0.71706  Biso   1.000  C
  C21      1.0000 0.74612  0.46272  0.76576  Biso   1.000  C
  C22      1.0000 0.71132  0.48791  0.78671  Biso   1.000  C
  C23      1.0000 0.68840  0.52150  0.76122  Biso   1.000  C
  C24      1.0000 0.77462  0.42719  0.79477  Biso   1.000  C
  C25      1.0000 0.79523  0.38898  0.76381  Biso   1.000  C
  C26      1.0000 0.82955  0.36271  0.79506  Biso   1.000  C
  C27      1.0000 0.84187  0.37548  0.85799  Biso   1.000  C
  C28      1.0000 0.82002  0.41404  0.88986  Biso   1.000  C
  C29      1.0000 0.78642  0.44029  0.85851  Biso   1.000  C
  C30      1.0000 0.88205  0.35223  0.89504  Biso   1.000  C
  C31      1.0000 0.88011  0.19869  0.89090  Biso   1.000  C
  C32      1.0000 0.83328  0.12430  0.85144  Biso   1.000  C
  C33      1.0000 0.83988  0.08425  0.80251  Biso   1.000  C
  C34      1.0000 0.80106  0.01424  0.76916  Biso   1.000  C
  C35      1.0000 0.80753  0.97368  0.71937  Biso   1.000  C
  C36      1.0000 0.78440  0.09528  0.86608  Biso   1.000  C
  C37      1.0000 0.26672  0.95960  0.77436  Biso   1.000  C
  C38      1.0000 0.24257  0.95963  0.71526  Biso   1.000  C
  C39      1.0000 0.25388  0.01964  0.71660  Biso   1.000  C
  C40      1.0000 0.28868  0.07539  0.77659  Biso   1.000  C
  C41      1.0000 0.31160  0.07282  0.83310  Biso   1.000  C
  C42      1.0000 0.22538  0.02015  0.65257  Biso   1.000  C
  C43      1.0000 0.20477  0.96858  0.59375  Biso   1.000  C
  C44      1.0000 0.17045  0.96551  0.53316  Biso   1.000  C
  C45      1.0000 0.15813  0.01612  0.53361  Biso   1.000  C
  C46      1.0000 0.17998  0.06984  0.59402  Biso   1.000  C
  C47      1.0000 0.21358  0.07209  0.65387  Biso   1.000  C
  C48      1.0000 0.11795  0.01299  0.47018  Biso   1.000  C
  C49      1.0000 0.11989  0.01079  0.31858  Biso   1.000  C
  C50      1.0000 0.16672  0.01816  0.29102  Biso   1.000  C
  C51      1.0000 0.16012  0.96263  0.24437  Biso   1.000  C
  C52      1.0000 0.19894  0.96810  0.21318  Biso   1.000  C
  C53      1.0000 0.19247  0.91184  0.16615  Biso   1.000  C
  C54      1.0000 0.21560  0.08168  0.31088  Biso   1.000  C
  C55      1.0000 0.18524  0.49236  0.22564  Biso   1.000  C
  C56      1.0000 0.24437  0.52731  0.28474  Biso   1.000  C
  C57      1.0000 0.30304  0.53728  0.28340  Biso   1.000  C
  C58      1.0000 0.29880  0.51209  0.22341  Biso   1.000  C
  C59      1.0000 0.23972  0.47850  0.16690  Biso   1.000  C
  C60      1.0000 0.36758  0.57281  0.34743  Biso   1.000  C
  C61      1.0000 0.37483  0.61102  0.40625  Biso   1.000  C
  C62      1.0000 0.43235  0.63729  0.46684  Biso   1.000  C
  C63      1.0000 0.48251  0.62452  0.46639  Biso   1.000  C
  C64      1.0000 0.47582  0.58596  0.40598  Biso   1.000  C
  C65      1.0000 0.41822  0.55971  0.34613  Biso   1.000  C
  C66      1.0000 0.54281  0.64777  0.52982  Biso   1.000  C
  C67      1.0000 0.69221  0.80131  0.68142  Biso   1.000  C
  C68      1.0000 0.72714  0.87570  0.70898  Biso   1.000  C
  C69      1.0000 0.71826  0.91575  0.75563  Biso   1.000  C
  C70      1.0000 0.75492  0.98576  0.78682  Biso   1.000  C
  C71      1.0000 0.74569  0.02632  0.83385  Biso   1.000  C
  C72      1.0000 0.77080  0.90472  0.68912  Biso   1.000  C
  C73      1.0000 0.77436  0.26672  0.95960  Biso   1.000  C
  C74      1.0000 0.71526  0.24257  0.95963  Biso   1.000  C
  C75      1.0000 0.71660  0.25388  0.01964  Biso   1.000  C
  C76      1.0000 0.77659  0.28868  0.07539  Biso   1.000  C
  C77      1.0000 0.83310  0.31160  0.07282  Biso   1.000  C
  C78      1.0000 0.65257  0.22538  0.02015  Biso   1.000  C
  C79      1.0000 0.59375  0.20477  0.96858  Biso   1.000  C
  C80      1.0000 0.53316  0.17045  0.96551  Biso   1.000  C
  C81      1.0000 0.53361  0.15813  0.01612  Biso   1.000  C
  C82      1.0000 0.59402  0.17998  0.06984  Biso   1.000  C
  C83      1.0000 0.65387  0.21358  0.07209  Biso   1.000  C
  C84      1.0000 0.47018  0.11795  0.01299  Biso   1.000  C
  C85      1.0000 0.31858  0.11989  0.01079  Biso   1.000  C
  C86      1.0000 0.29102  0.16672  0.01816  Biso   1.000  C
  C87      1.0000 0.24437  0.16012  0.96263  Biso   1.000  C
  C88      1.0000 0.21318  0.19894  0.96810  Biso   1.000  C
  C89      1.0000 0.16615  0.19247  0.91184  Biso   1.000  C
  C90      1.0000 0.31088  0.21560  0.08168  Biso   1.000  C
  C91      1.0000 0.22564  0.18524  0.49236  Biso   1.000  C
  C92      1.0000 0.28474  0.24437  0.52731  Biso   1.000  C
  C93      1.0000 0.28340  0.30304  0.53728  Biso   1.000  C
  C94      1.0000 0.22341  0.29880  0.51209  Biso   1.000  C
  C95      1.0000 0.16690  0.23972  0.47850  Biso   1.000  C
  C96      1.0000 0.34743  0.36758  0.57281  Biso   1.000  C
  C97      1.0000 0.40625  0.37483  0.61102  Biso   1.000  C
  C98      1.0000 0.46684  0.43235  0.63729  Biso   1.000  C
  C99      1.0000 0.46639  0.48251  0.62452  Biso   1.000  C
  C100     1.0000 0.40598  0.47582  0.58596  Biso   1.000  C
  C101     1.0000 0.34613  0.41822  0.55971  Biso   1.000  C
  C102     1.0000 0.52982  0.54281  0.64777  Biso   1.000  C
  C103     1.0000 0.68142  0.69221  0.80131  Biso   1.000  C
  C104     1.0000 0.70898  0.72714  0.87570  Biso   1.000  C
  C105     1.0000 0.75563  0.71826  0.91575  Biso   1.000  C
  C106     1.0000 0.78682  0.75492  0.98576  Biso   1.000  C
  C107     1.0000 0.83385  0.74569  0.02632  Biso   1.000  C
  C108     1.0000 0.68912  0.77080  0.90472  Biso   1.000  C
  C109     1.0000 0.30712  0.81476  0.04040  Biso   1.000  C
  C110     1.0000 0.28294  0.75563  0.04037  Biso   1.000  C
  C111     1.0000 0.23424  0.69696  0.98036  Biso   1.000  C
  C112     1.0000 0.21329  0.70120  0.92461  Biso   1.000  C
  C113     1.0000 0.23878  0.76028  0.92718  Biso   1.000  C
  C114     1.0000 0.20523  0.63242  0.97985  Biso   1.000  C
  C115     1.0000 0.23619  0.62517  0.03142  Biso   1.000  C
  C116     1.0000 0.20494  0.56765  0.03449  Biso   1.000  C
  C117     1.0000 0.14201  0.51749  0.98388  Biso   1.000  C
  C118     1.0000 0.11014  0.52418  0.93016  Biso   1.000  C
  C119     1.0000 0.14149  0.58178  0.92791  Biso   1.000  C
  C120     1.0000 0.10496  0.45719  0.98701  Biso   1.000  C
  C121     1.0000 0.10910  0.30779  0.98921  Biso   1.000  C
  C122     1.0000 0.14856  0.27286  0.98184  Biso   1.000  C
  C123     1.0000 0.19749  0.28174  0.03737  Biso   1.000  C
  C124     1.0000 0.23084  0.24508  0.03190  Biso   1.000  C
  C125     1.0000 0.28063  0.25431  0.08816  Biso   1.000  C
  C126     1.0000 0.13392  0.22920  0.91832  Biso   1.000  C
  C127     1.0000 0.69288  0.73328  0.50764  Biso   1.000  C
  C128     1.0000 0.71706  0.75743  0.47269  Biso   1.000  C
  C129     1.0000 0.76576  0.74612  0.46272  Biso   1.000  C
  C130     1.0000 0.78671  0.71132  0.48791  Biso   1.000  C
  C131     1.0000 0.76122  0.68840  0.52150  Biso   1.000  C
  C132     1.0000 0.79477  0.77462  0.42719  Biso   1.000  C
  C133     1.0000 0.76381  0.79523  0.38898  Biso   1.000  C
  C134     1.0000 0.79506  0.82955  0.36271  Biso   1.000  C
  C135     1.0000 0.85799  0.84187  0.37548  Biso   1.000  C
  C136     1.0000 0.88986  0.82002  0.41404  Biso   1.000  C
  C137     1.0000 0.85851  0.78642  0.44029  Biso   1.000  C
  C138     1.0000 0.89504  0.88205  0.35223  Biso   1.000  C
  C139     1.0000 0.89090  0.88011  0.19869  Biso   1.000  C
  C140     1.0000 0.85144  0.83328  0.12430  Biso   1.000  C
  C141     1.0000 0.80251  0.83988  0.08425  Biso   1.000  C
  C142     1.0000 0.76916  0.80106  0.01424  Biso   1.000  C
  C143     1.0000 0.71937  0.80753  0.97368  Biso   1.000  C
  C144     1.0000 0.86608  0.78440  0.09528  Biso   1.000  C
  C145     1.0000 0.50764  0.69288  0.73328  Biso   1.000  C
  C146     1.0000 0.47269  0.71706  0.75743  Biso   1.000  C
  C147     1.0000 0.46272  0.76576  0.74612  Biso   1.000  C
  C148     1.0000 0.48791  0.78671  0.71132  Biso   1.000  C
  C149     1.0000 0.52150  0.76122  0.68840  Biso   1.000  C
  C150     1.0000 0.42719  0.79477  0.77462  Biso   1.000  C
  C151     1.0000 0.38898  0.76381  0.79523  Biso   1.000  C
  C152     1.0000 0.36271  0.79506  0.82955  Biso   1.000  C
  C153     1.0000 0.37548  0.85799  0.84187  Biso   1.000  C
  C154     1.0000 0.41404  0.88986  0.82002  Biso   1.000  C
  C155     1.0000 0.44029  0.85851  0.78642  Biso   1.000  C
  C156     1.0000 0.35223  0.89504  0.88205  Biso   1.000  C
  C157     1.0000 0.19869  0.89090  0.88011  Biso   1.000  C
  C158     1.0000 0.12430  0.85144  0.83328  Biso   1.000  C
  C159     1.0000 0.08425  0.80251  0.83988  Biso   1.000  C
  C160     1.0000 0.01424  0.76916  0.80106  Biso   1.000  C
  C161     1.0000 0.97368  0.71937  0.80753  Biso   1.000  C
  C162     1.0000 0.09528  0.86608  0.78440  Biso   1.000  C
  C163     1.0000 0.04040  0.30712  0.81476  Biso   1.000  C
  C164     1.0000 0.04037  0.28294  0.75563  Biso   1.000  C
  C165     1.0000 0.98036  0.23424  0.69696  Biso   1.000  C
  C166     1.0000 0.92461  0.21329  0.70120  Biso   1.000  C
  C167     1.0000 0.92718  0.23878  0.76028  Biso   1.000  C
  C168     1.0000 0.97985  0.20523  0.63242  Biso   1.000  C
  C169     1.0000 0.03142  0.23619  0.62517  Biso   1.000  C
  C170     1.0000 0.03449  0.20494  0.56765  Biso   1.000  C
  C171     1.0000 0.98388  0.14201  0.51749  Biso   1.000  C
  C172     1.0000 0.93016  0.11014  0.52418  Biso   1.000  C
  C173     1.0000 0.92791  0.14149  0.58178  Biso   1.000  C
  C174     1.0000 0.98701  0.10496  0.45719  Biso   1.000  C
  C175     1.0000 0.98921  0.10910  0.30779  Biso   1.000  C
  C176     1.0000 0.98184  0.14856  0.27286  Biso   1.000  C
  C177     1.0000 0.03737  0.19749  0.28174  Biso   1.000  C
  C178     1.0000 0.03190  0.23084  0.24508  Biso   1.000  C
  C179     1.0000 0.08816  0.28063  0.25431  Biso   1.000  C
  C180     1.0000 0.91832  0.13392  0.22920  Biso   1.000  C
  C181     1.0000 0.49236  0.22564  0.18524  Biso   1.000  C
  C182     1.0000 0.52731  0.28474  0.24437  Biso   1.000  C
  C183     1.0000 0.53728  0.28340  0.30304  Biso   1.000  C
  C184     1.0000 0.51209  0.22341  0.29880  Biso   1.000  C
  C185     1.0000 0.47850  0.16690  0.23972  Biso   1.000  C
  C186     1.0000 0.57281  0.34743  0.36758  Biso   1.000  C
  C187     1.0000 0.61102  0.40625  0.37483  Biso   1.000  C
  C188     1.0000 0.63729  0.46684  0.43235  Biso   1.000  C
  C189     1.0000 0.62452  0.46639  0.48251  Biso   1.000  C
  C190     1.0000 0.58596  0.40598  0.47582  Biso   1.000  C
  C191     1.0000 0.55971  0.34613  0.41822  Biso   1.000  C
  C192     1.0000 0.64777  0.52982  0.54281  Biso   1.000  C
  C193     1.0000 0.80131  0.68142  0.69221  Biso   1.000  C
  C194     1.0000 0.87570  0.70898  0.72714  Biso   1.000  C
  C195     1.0000 0.91575  0.75563  0.71826  Biso   1.000  C
  C196     1.0000 0.98576  0.78682  0.75492  Biso   1.000  C
  C197     1.0000 0.02632  0.83385  0.74569  Biso   1.000  C
  C198     1.0000 0.90472  0.68912  0.77080  Biso   1.000  C
  C199     1.0000 0.95960  0.77436  0.26672  Biso   1.000  C
  C200     1.0000 0.95963  0.71526  0.24257  Biso   1.000  C
  C201     1.0000 0.01964  0.71660  0.25388  Biso   1.000  C
  C202     1.0000 0.07539  0.77659  0.28868  Biso   1.000  C
  C203     1.0000 0.07282  0.83310  0.31160  Biso   1.000  C
  C204     1.0000 0.02015  0.65257  0.22538  Biso   1.000  C
  C205     1.0000 0.96858  0.59375  0.20477  Biso   1.000  C
  C206     1.0000 0.96551  0.53316  0.17045  Biso   1.000  C
  C207     1.0000 0.01612  0.53361  0.15813  Biso   1.000  C
  C208     1.0000 0.06984  0.59402  0.17998  Biso   1.000  C
  C209     1.0000 0.07209  0.65387  0.21358  Biso   1.000  C
  C210     1.0000 0.01299  0.47018  0.11795  Biso   1.000  C
  C211     1.0000 0.01079  0.31858  0.11989  Biso   1.000  C
  C212     1.0000 0.01816  0.29102  0.16672  Biso   1.000  C
  C213     1.0000 0.96263  0.24437  0.16012  Biso   1.000  C
  C214     1.0000 0.96810  0.21318  0.19894  Biso   1.000  C
  C215     1.0000 0.91184  0.16615  0.19247  Biso   1.000  C
  C216     1.0000 0.08168  0.31088  0.21560  Biso   1.000  C
  N1       1.0000 0.81783  0.98360  0.28413  Biso   1.000  N
  N2       1.0000 0.69947  0.53370  0.71587  Biso   1.000  N
  N3       1.0000 0.30053  0.01640  0.83423  Biso   1.000  N
  N4       1.0000 0.18217  0.46630  0.16577  Biso   1.000  N
  N5       1.0000 0.83423  0.30053  0.01640  Biso   1.000  N
  N6       1.0000 0.16577  0.18217  0.46630  Biso   1.000  N
  N7       1.0000 0.28413  0.81783  0.98360  Biso   1.000  N
  N8       1.0000 0.71587  0.69947  0.53370  Biso   1.000  N
  N9       1.0000 0.53370  0.71587  0.69947  Biso   1.000  N
  N10      1.0000 0.98360  0.28413  0.81783  Biso   1.000  N
  N11      1.0000 0.46630  0.16577  0.18217  Biso   1.000  N
  N12      1.0000 0.01640  0.83423  0.30053  Biso   1.000  N
  O1       1.0000 0.45959  0.04021  0.12896  Biso   1.000  O
  O2       1.0000 0.41108  0.93478  0.05246  Biso   1.000  O
  O3       1.0000 0.34192  0.04619  0.12137  Biso   1.000  O
  O4       1.0000 0.29684  0.93679  0.06705  Biso   1.000  O
  O5       1.0000 0.91125  0.33063  0.87104  Biso   1.000  O
  O6       1.0000 0.88232  0.35862  0.94754  Biso   1.000  O
  O7       1.0000 0.92482  0.22055  0.87863  Biso   1.000  O
  O8       1.0000 0.86974  0.22979  0.93295  Biso   1.000  O
  O9       1.0000 0.08875  0.95979  0.41938  Biso   1.000  O
  O10      1.0000 0.11768  0.06522  0.47630  Biso   1.000  O
  O11      1.0000 0.07518  0.95381  0.29573  Biso   1.000  O
  O12      1.0000 0.13026  0.06321  0.36005  Biso   1.000  O
  O13      1.0000 0.54041  0.66937  0.58062  Biso   1.000  O
  O14      1.0000 0.58892  0.64138  0.52370  Biso   1.000  O
  O15      1.0000 0.65808  0.77945  0.70427  Biso   1.000  O
  O16      1.0000 0.70316  0.77021  0.63995  Biso   1.000  O
  O17      1.0000 0.41938  0.08875  0.95979  Biso   1.000  O
  O18      1.0000 0.47630  0.11768  0.06522  Biso   1.000  O
  O19      1.0000 0.29573  0.07518  0.95381  Biso   1.000  O
  O20      1.0000 0.36005  0.13026  0.06321  Biso   1.000  O
  O21      1.0000 0.58062  0.54041  0.66937  Biso   1.000  O
  O22      1.0000 0.52370  0.58892  0.64138  Biso   1.000  O
  O23      1.0000 0.70427  0.65808  0.77945  Biso   1.000  O
  O24      1.0000 0.63995  0.70316  0.77021  Biso   1.000  O
  O25      1.0000 0.12896  0.45959  0.04021  Biso   1.000  O
  O26      1.0000 0.05246  0.41108  0.93478  Biso   1.000  O
  O27      1.0000 0.12137  0.34192  0.04619  Biso   1.000  O
  O28      1.0000 0.06705  0.29684  0.93679  Biso   1.000  O
  O29      1.0000 0.87104  0.91125  0.33063  Biso   1.000  O
  O30      1.0000 0.94754  0.88232  0.35862  Biso   1.000  O
  O31      1.0000 0.87863  0.92482  0.22055  Biso   1.000  O
  O32      1.0000 0.93295  0.86974  0.22979  Biso   1.000  O
  O33      1.0000 0.33063  0.87104  0.91125  Biso   1.000  O
  O34      1.0000 0.35862  0.94754  0.88232  Biso   1.000  O
  O35      1.0000 0.22055  0.87863  0.92482  Biso   1.000  O
  O36      1.0000 0.22979  0.93295  0.86974  Biso   1.000  O
  O37      1.0000 0.04021  0.12896  0.45959  Biso   1.000  O
  O38      1.0000 0.93478  0.05246  0.41108  Biso   1.000  O
  O39      1.0000 0.04619  0.12137  0.34192  Biso   1.000  O
  O40      1.0000 0.93679  0.06705  0.29684  Biso   1.000  O
  O41      1.0000 0.66937  0.58062  0.54041  Biso   1.000  O
  O42      1.0000 0.64138  0.52370  0.58892  Biso   1.000  O
  O43      1.0000 0.77945  0.70427  0.65808  Biso   1.000  O
  O44      1.0000 0.77021  0.63995  0.70316  Biso   1.000  O
  O45      1.0000 0.95979  0.41938  0.08875  Biso   1.000  O
  O46      1.0000 0.06522  0.47630  0.11768  Biso   1.000  O
  O47      1.0000 0.95381  0.29573  0.07518  Biso   1.000  O
  O48      1.0000 0.06321  0.36005  0.13026  Biso   1.000  O
  O49      1.0000 0.34878  0.00000  0.00000  Biso   1.000  O
  O50      1.0000 0.00000  0.34878  0.00000  Biso   1.000  O
  O51      1.0000 0.00000  0.00000  0.34878  Biso   1.000  O
  O52      1.0000 0.65122  0.65122  0.65122  Biso   1.000  O
