data_image0
_cell_length_a       29.2698
_cell_length_b       29.2698
_cell_length_c       29.2698
_cell_angle_alpha    109.471
_cell_angle_beta     109.471
_cell_angle_gamma    109.471

_symmetry_space_group_name_H-M    P 1
_symmetry_int_tables_number       1

loop_
  _symmetry_equiv_pos_as_xyz
  'x, y, z'

loop_
  _atom_site_label
  _atom_site_occupancy
  _atom_site_fract_x
  _atom_site_fract_y
  _atom_site_fract_z
  _atom_site_thermal_displace_type
  _atom_site_B_iso_or_equiv
  _atom_site_type_symbol
  Ni1      1.0000 0.73292  0.07546  0.00814  Biso   1.000  Ni
  Ni2      1.0000 0.06732  0.72478  0.99186  Biso   1.000  Ni
  Ni3      1.0000 0.93268  0.92454  0.65746  Biso   1.000  Ni
  Ni4      1.0000 0.26708  0.27522  0.34254  Biso   1.000  Ni
  Ni5      1.0000 0.65746  0.93268  0.92454  Biso   1.000  Ni
  Ni6      1.0000 0.34254  0.26708  0.27522  Biso   1.000  Ni
  Ni7      1.0000 0.00814  0.73292  0.07546  Biso   1.000  Ni
  Ni8      1.0000 0.99186  0.06732  0.72478  Biso   1.000  Ni
  Ni9      1.0000 0.72478  0.99186  0.06732  Biso   1.000  Ni
  Ni10     1.0000 0.07546  0.00814  0.73292  Biso   1.000  Ni
  Ni11     1.0000 0.27522  0.34254  0.26708  Biso   1.000  Ni
  Ni12     1.0000 0.92454  0.65746  0.93268  Biso   1.000  Ni
  H1       1.0000 0.15690  0.01540  0.68930  Biso   1.000  H
  H2       1.0000 0.24340  0.01930  0.71370  Biso   1.000  H
  H3       1.0000 0.25740  0.02680  0.85880  Biso   1.000  H
  H4       1.0000 0.17100  0.02290  0.83450  Biso   1.000  H
  H5       1.0000 0.31460  0.01880  0.73140  Biso   1.000  H
  H6       1.0000 0.39920  0.01860  0.75640  Biso   1.000  H
  H7       1.0000 0.41090  0.03060  0.90230  Biso   1.000  H
  H8       1.0000 0.32630  0.03080  0.87730  Biso   1.000  H
  H9       1.0000 0.42830  0.93650  0.79680  Biso   1.000  H
  H10      1.0000 0.51080  0.93250  0.82810  Biso   1.000  H
  H11      1.0000 0.59860  0.09950  0.93670  Biso   1.000  H
  H12      1.0000 0.51610  0.10350  0.90540  Biso   1.000  H
  H13      1.0000 0.73460  0.93190  0.82350  Biso   1.000  H
  H14      1.0000 0.75960  0.88930  0.75550  Biso   1.000  H
  H15      1.0000 0.81650  0.10410  0.91820  Biso   1.000  H
  H16      1.0000 0.32610  0.46760  0.31070  Biso   1.000  H
  H17      1.0000 0.30560  0.52970  0.28630  Biso   1.000  H
  H18      1.0000 0.16800  0.39860  0.14120  Biso   1.000  H
  H19      1.0000 0.18840  0.33650  0.16550  Biso   1.000  H
  H20      1.0000 0.28740  0.58320  0.26860  Biso   1.000  H
  H21      1.0000 0.26220  0.64280  0.24360  Biso   1.000  H
  H22      1.0000 0.12830  0.50860  0.09770  Biso   1.000  H
  H23      1.0000 0.15350  0.44900  0.12270  Biso   1.000  H
  H24      1.0000 0.13970  0.63150  0.20320  Biso   1.000  H
  H25      1.0000 0.10440  0.68270  0.17190  Biso   1.000  H
  H26      1.0000 0.16280  0.66190  0.06330  Biso   1.000  H
  H27      1.0000 0.19810  0.61070  0.09460  Biso   1.000  H
  H28      1.0000 0.10840  0.91110  0.17650  Biso   1.000  H
  H29      1.0000 0.13380  0.00410  0.24450  Biso   1.000  H
  H30      1.0000 0.18590  0.89830  0.08180  Biso   1.000  H
  H31      1.0000 0.67390  0.98460  0.14150  Biso   1.000  H
  H32      1.0000 0.69440  0.98070  0.22410  Biso   1.000  H
  H33      1.0000 0.83200  0.97320  0.23060  Biso   1.000  H
  H34      1.0000 0.81160  0.97710  0.14810  Biso   1.000  H
  H35      1.0000 0.71260  0.98120  0.29580  Biso   1.000  H
  H36      1.0000 0.73780  0.98140  0.38060  Biso   1.000  H
  H37      1.0000 0.87170  0.96940  0.38030  Biso   1.000  H
  H38      1.0000 0.84650  0.96920  0.29550  Biso   1.000  H
  H39      1.0000 0.86030  0.06350  0.49180  Biso   1.000  H
  H40      1.0000 0.89560  0.06750  0.57830  Biso   1.000  H
  H41      1.0000 0.83720  0.90050  0.49910  Biso   1.000  H
  H42      1.0000 0.80190  0.89650  0.41260  Biso   1.000  H
  H43      1.0000 0.89160  0.06810  0.80270  Biso   1.000  H
  H44      1.0000 0.86620  0.11070  0.87030  Biso   1.000  H
  H45      1.0000 0.81410  0.89590  0.71240  Biso   1.000  H
  H46      1.0000 0.84310  0.53240  0.85850  Biso   1.000  H
  H47      1.0000 0.75660  0.47030  0.77590  Biso   1.000  H
  H48      1.0000 0.74260  0.60140  0.76940  Biso   1.000  H
  H49      1.0000 0.82900  0.66350  0.85190  Biso   1.000  H
  H50      1.0000 0.68540  0.41680  0.70420  Biso   1.000  H
  H51      1.0000 0.60080  0.35720  0.61940  Biso   1.000  H
  H52      1.0000 0.58910  0.49140  0.61970  Biso   1.000  H
  H53      1.0000 0.67370  0.55100  0.70450  Biso   1.000  H
  H54      1.0000 0.57170  0.36850  0.50820  Biso   1.000  H
  H55      1.0000 0.48920  0.31730  0.42170  Biso   1.000  H
  H56      1.0000 0.40140  0.33810  0.50090  Biso   1.000  H
  H57      1.0000 0.48390  0.38930  0.58740  Biso   1.000  H
  H58      1.0000 0.26540  0.08890  0.19730  Biso   1.000  H
  H59      1.0000 0.24040  0.99590  0.12970  Biso   1.000  H
  H60      1.0000 0.18350  0.10170  0.28760  Biso   1.000  H
  H61      1.0000 0.14150  0.67390  0.98460  Biso   1.000  H
  H62      1.0000 0.22410  0.69440  0.98070  Biso   1.000  H
  H63      1.0000 0.23060  0.83200  0.97320  Biso   1.000  H
  H64      1.0000 0.14810  0.81160  0.97710  Biso   1.000  H
  H65      1.0000 0.29580  0.71260  0.98120  Biso   1.000  H
  H66      1.0000 0.38060  0.73780  0.98140  Biso   1.000  H
  H67      1.0000 0.38030  0.87170  0.96940  Biso   1.000  H
  H68      1.0000 0.29550  0.84650  0.96920  Biso   1.000  H
  H69      1.0000 0.49180  0.86030  0.06350  Biso   1.000  H
  H70      1.0000 0.57830  0.89560  0.06750  Biso   1.000  H
  H71      1.0000 0.49910  0.83720  0.90050  Biso   1.000  H
  H72      1.0000 0.41260  0.80190  0.89650  Biso   1.000  H
  H73      1.0000 0.80270  0.89160  0.06810  Biso   1.000  H
  H74      1.0000 0.87030  0.86620  0.11070  Biso   1.000  H
  H75      1.0000 0.71240  0.81410  0.89590  Biso   1.000  H
  H76      1.0000 0.85850  0.84310  0.53240  Biso   1.000  H
  H77      1.0000 0.77590  0.75660  0.47030  Biso   1.000  H
  H78      1.0000 0.76940  0.74260  0.60140  Biso   1.000  H
  H79      1.0000 0.85190  0.82900  0.66350  Biso   1.000  H
  H80      1.0000 0.70420  0.68540  0.41680  Biso   1.000  H
  H81      1.0000 0.61940  0.60080  0.35720  Biso   1.000  H
  H82      1.0000 0.61970  0.58910  0.49140  Biso   1.000  H
  H83      1.0000 0.70450  0.67370  0.55100  Biso   1.000  H
  H84      1.0000 0.50820  0.57170  0.36850  Biso   1.000  H
  H85      1.0000 0.42170  0.48920  0.31730  Biso   1.000  H
  H86      1.0000 0.50090  0.40140  0.33810  Biso   1.000  H
  H87      1.0000 0.58740  0.48390  0.38930  Biso   1.000  H
  H88      1.0000 0.19730  0.26540  0.08890  Biso   1.000  H
  H89      1.0000 0.12970  0.24040  0.99590  Biso   1.000  H
  H90      1.0000 0.28760  0.18350  0.10170  Biso   1.000  H
  H91      1.0000 0.68930  0.15690  0.01540  Biso   1.000  H
  H92      1.0000 0.71370  0.24340  0.01930  Biso   1.000  H
  H93      1.0000 0.85880  0.25740  0.02680  Biso   1.000  H
  H94      1.0000 0.83450  0.17100  0.02290  Biso   1.000  H
  H95      1.0000 0.73140  0.31460  0.01880  Biso   1.000  H
  H96      1.0000 0.75640  0.39920  0.01860  Biso   1.000  H
  H97      1.0000 0.90230  0.41090  0.03060  Biso   1.000  H
  H98      1.0000 0.87730  0.32630  0.03080  Biso   1.000  H
  H99      1.0000 0.79680  0.42830  0.93650  Biso   1.000  H
  H100     1.0000 0.82810  0.51080  0.93250  Biso   1.000  H
  H101     1.0000 0.93670  0.59860  0.09950  Biso   1.000  H
  H102     1.0000 0.90540  0.51610  0.10350  Biso   1.000  H
  H103     1.0000 0.82350  0.73460  0.93190  Biso   1.000  H
  H104     1.0000 0.75550  0.75960  0.88930  Biso   1.000  H
  H105     1.0000 0.91820  0.81650  0.10410  Biso   1.000  H
  H106     1.0000 0.31070  0.32610  0.46760  Biso   1.000  H
  H107     1.0000 0.28630  0.30560  0.52970  Biso   1.000  H
  H108     1.0000 0.14120  0.16800  0.39860  Biso   1.000  H
  H109     1.0000 0.16550  0.18840  0.33650  Biso   1.000  H
  H110     1.0000 0.26860  0.28740  0.58320  Biso   1.000  H
  H111     1.0000 0.24360  0.26220  0.64280  Biso   1.000  H
  H112     1.0000 0.09770  0.12830  0.50860  Biso   1.000  H
  H113     1.0000 0.12270  0.15350  0.44900  Biso   1.000  H
  H114     1.0000 0.20320  0.13970  0.63150  Biso   1.000  H
  H115     1.0000 0.17190  0.10440  0.68270  Biso   1.000  H
  H116     1.0000 0.06330  0.16280  0.66190  Biso   1.000  H
  H117     1.0000 0.09460  0.19810  0.61070  Biso   1.000  H
  H118     1.0000 0.17650  0.10840  0.91110  Biso   1.000  H
  H119     1.0000 0.24450  0.13380  0.00410  Biso   1.000  H
  H120     1.0000 0.08180  0.18590  0.89830  Biso   1.000  H
  H121     1.0000 0.46760  0.31070  0.32610  Biso   1.000  H
  H122     1.0000 0.52970  0.28630  0.30560  Biso   1.000  H
  H123     1.0000 0.39860  0.14120  0.16800  Biso   1.000  H
  H124     1.0000 0.33650  0.16550  0.18840  Biso   1.000  H
  H125     1.0000 0.58320  0.26860  0.28740  Biso   1.000  H
  H126     1.0000 0.64280  0.24360  0.26220  Biso   1.000  H
  H127     1.0000 0.50860  0.09770  0.12830  Biso   1.000  H
  H128     1.0000 0.44900  0.12270  0.15350  Biso   1.000  H
  H129     1.0000 0.63150  0.20320  0.13970  Biso   1.000  H
  H130     1.0000 0.68270  0.17190  0.10440  Biso   1.000  H
  H131     1.0000 0.66190  0.06330  0.16280  Biso   1.000  H
  H132     1.0000 0.61070  0.09460  0.19810  Biso   1.000  H
  H133     1.0000 0.91110  0.17650  0.10840  Biso   1.000  H
  H134     1.0000 0.00410  0.24450  0.13380  Biso   1.000  H
  H135     1.0000 0.89830  0.08180  0.18590  Biso   1.000  H
  H136     1.0000 0.01540  0.68930  0.15690  Biso   1.000  H
  H137     1.0000 0.01930  0.71370  0.24340  Biso   1.000  H
  H138     1.0000 0.02680  0.85880  0.25740  Biso   1.000  H
  H139     1.0000 0.02290  0.83450  0.17100  Biso   1.000  H
  H140     1.0000 0.01880  0.73140  0.31460  Biso   1.000  H
  H141     1.0000 0.01860  0.75640  0.39920  Biso   1.000  H
  H142     1.0000 0.03060  0.90230  0.41090  Biso   1.000  H
  H143     1.0000 0.03080  0.87730  0.32630  Biso   1.000  H
  H144     1.0000 0.93650  0.79680  0.42830  Biso   1.000  H
  H145     1.0000 0.93250  0.82810  0.51080  Biso   1.000  H
  H146     1.0000 0.09950  0.93670  0.59860  Biso   1.000  H
  H147     1.0000 0.10350  0.90540  0.51610  Biso   1.000  H
  H148     1.0000 0.93190  0.82350  0.73460  Biso   1.000  H
  H149     1.0000 0.88930  0.75550  0.75960  Biso   1.000  H
  H150     1.0000 0.10410  0.91820  0.81650  Biso   1.000  H
  H151     1.0000 0.53240  0.85850  0.84310  Biso   1.000  H
  H152     1.0000 0.47030  0.77590  0.75660  Biso   1.000  H
  H153     1.0000 0.60140  0.76940  0.74260  Biso   1.000  H
  H154     1.0000 0.66350  0.85190  0.82900  Biso   1.000  H
  H155     1.0000 0.41680  0.70420  0.68540  Biso   1.000  H
  H156     1.0000 0.35720  0.61940  0.60080  Biso   1.000  H
  H157     1.0000 0.49140  0.61970  0.58910  Biso   1.000  H
  H158     1.0000 0.55100  0.70450  0.67370  Biso   1.000  H
  H159     1.0000 0.36850  0.50820  0.57170  Biso   1.000  H
  H160     1.0000 0.31730  0.42170  0.48920  Biso   1.000  H
  H161     1.0000 0.33810  0.50090  0.40140  Biso   1.000  H
  H162     1.0000 0.38930  0.58740  0.48390  Biso   1.000  H
  H163     1.0000 0.08890  0.19730  0.26540  Biso   1.000  H
  H164     1.0000 0.99590  0.12970  0.24040  Biso   1.000  H
  H165     1.0000 0.10170  0.28760  0.18350  Biso   1.000  H
  H166     1.0000 0.98460  0.14150  0.67390  Biso   1.000  H
  H167     1.0000 0.98070  0.22410  0.69440  Biso   1.000  H
  H168     1.0000 0.97320  0.23060  0.83200  Biso   1.000  H
  H169     1.0000 0.97710  0.14810  0.81160  Biso   1.000  H
  H170     1.0000 0.98120  0.29580  0.71260  Biso   1.000  H
  H171     1.0000 0.98140  0.38060  0.73780  Biso   1.000  H
  H172     1.0000 0.96940  0.38030  0.87170  Biso   1.000  H
  H173     1.0000 0.96920  0.29550  0.84650  Biso   1.000  H
  H174     1.0000 0.06350  0.49180  0.86030  Biso   1.000  H
  H175     1.0000 0.06750  0.57830  0.89560  Biso   1.000  H
  H176     1.0000 0.90050  0.49910  0.83720  Biso   1.000  H
  H177     1.0000 0.89650  0.41260  0.80190  Biso   1.000  H
  H178     1.0000 0.06810  0.80270  0.89160  Biso   1.000  H
  H179     1.0000 0.11070  0.87030  0.86620  Biso   1.000  H
  H180     1.0000 0.89590  0.71240  0.81410  Biso   1.000  H
  C1       1.0000 0.17731  0.01772  0.72373  Biso   1.000  C
  C2       1.0000 0.22866  0.02002  0.73820  Biso   1.000  C
  C3       1.0000 0.25851  0.02339  0.78854  Biso   1.000  C
  C4       1.0000 0.23701  0.02446  0.82443  Biso   1.000  C
  C5       1.0000 0.18566  0.02216  0.80996  Biso   1.000  C
  C6       1.0000 0.31250  0.02484  0.80200  Biso   1.000  C
  C7       1.0000 0.33414  0.02122  0.76608  Biso   1.000  C
  C8       1.0000 0.38443  0.02112  0.78095  Biso   1.000  C
  C9       1.0000 0.41306  0.02463  0.83173  Biso   1.000  C
  C10      1.0000 0.39141  0.02824  0.86763  Biso   1.000  C
  C11      1.0000 0.34113  0.02834  0.85277  Biso   1.000  C
  C12      1.0000 0.46440  0.02035  0.84809  Biso   1.000  C
  C13      1.0000 0.46286  0.96957  0.82517  Biso   1.000  C
  C14      1.0000 0.51190  0.96720  0.84382  Biso   1.000  C
  C15      1.0000 0.56248  0.01562  0.88542  Biso   1.000  C
  C16      1.0000 0.56402  0.06641  0.90835  Biso   1.000  C
  C17      1.0000 0.51498  0.06877  0.88969  Biso   1.000  C
  C18      1.0000 0.61167  0.01137  0.91426  Biso   1.000  C
  C19      1.0000 0.74201  0.01143  0.90902  Biso   1.000  C
  C20      1.0000 0.76996  0.01649  0.87587  Biso   1.000  C
  C21      1.0000 0.76111  0.96791  0.83328  Biso   1.000  C
  C22      1.0000 0.79246  0.97362  0.80516  Biso   1.000  C
  C23      1.0000 0.78632  0.92509  0.76501  Biso   1.000  C
  C24      1.0000 0.81029  0.07116  0.88981  Biso   1.000  C
  C25      1.0000 0.29399  0.45358  0.27627  Biso   1.000  C
  C26      1.0000 0.28182  0.49046  0.26180  Biso   1.000  C
  C27      1.0000 0.23485  0.46997  0.21146  Biso   1.000  C
  C28      1.0000 0.20003  0.41258  0.17557  Biso   1.000  C
  C29      1.0000 0.21220  0.37570  0.19004  Biso   1.000  C
  C30      1.0000 0.22284  0.51050  0.19800  Biso   1.000  C
  C31      1.0000 0.25514  0.56806  0.23392  Biso   1.000  C
  C32      1.0000 0.24017  0.60348  0.21905  Biso   1.000  C
  C33      1.0000 0.19290  0.58133  0.16827  Biso   1.000  C
  C34      1.0000 0.16061  0.52378  0.13237  Biso   1.000  C
  C35      1.0000 0.17557  0.48836  0.14723  Biso   1.000  C
  C36      1.0000 0.17226  0.61631  0.15191  Biso   1.000  C
  C37      1.0000 0.14440  0.63769  0.17483  Biso   1.000  C
  C38      1.0000 0.12338  0.66808  0.15618  Biso   1.000  C
  C39      1.0000 0.13020  0.67706  0.11458  Biso   1.000  C
  C40      1.0000 0.15806  0.65567  0.09165  Biso   1.000  C
  C41      1.0000 0.17908  0.62529  0.11031  Biso   1.000  C
  C42      1.0000 0.09711  0.69741  0.08574  Biso   1.000  C
  C43      1.0000 0.10241  0.83299  0.09098  Biso   1.000  C
  C44      1.0000 0.14062  0.89409  0.12413  Biso   1.000  C
  C45      1.0000 0.13463  0.92783  0.16672  Biso   1.000  C
  C46      1.0000 0.16846  0.98730  0.19484  Biso   1.000  C
  C47      1.0000 0.16008  0.02131  0.23499  Biso   1.000  C
  C48      1.0000 0.18135  0.92048  0.11019  Biso   1.000  C
  C49      1.0000 0.70601  0.98228  0.15959  Biso   1.000  C
  C50      1.0000 0.71818  0.97998  0.20864  Biso   1.000  C
  C51      1.0000 0.76515  0.97661  0.23512  Biso   1.000  C
  C52      1.0000 0.79997  0.97554  0.21255  Biso   1.000  C
  C53      1.0000 0.78780  0.97784  0.16350  Biso   1.000  C
  C54      1.0000 0.77716  0.97516  0.28766  Biso   1.000  C
  C55      1.0000 0.74486  0.97878  0.31292  Biso   1.000  C
  C56      1.0000 0.75983  0.97888  0.36331  Biso   1.000  C
  C57      1.0000 0.80710  0.97537  0.38843  Biso   1.000  C
  C58      1.0000 0.83939  0.97176  0.36317  Biso   1.000  C
  C59      1.0000 0.82443  0.97166  0.31279  Biso   1.000  C
  C60      1.0000 0.82774  0.97965  0.44405  Biso   1.000  C
  C61      1.0000 0.85560  0.03043  0.49329  Biso   1.000  C
  C62      1.0000 0.87662  0.03280  0.54470  Biso   1.000  C
  C63      1.0000 0.86980  0.98438  0.54686  Biso   1.000  C
  C64      1.0000 0.84194  0.93359  0.49761  Biso   1.000  C
  C65      1.0000 0.82092  0.93123  0.44621  Biso   1.000  C
  C66      1.0000 0.90289  0.98863  0.60030  Biso   1.000  C
  C67      1.0000 0.89759  0.98857  0.73058  Biso   1.000  C
  C68      1.0000 0.85938  0.98351  0.75347  Biso   1.000  C
  C69      1.0000 0.86537  0.03209  0.79320  Biso   1.000  C
  C70      1.0000 0.83154  0.02638  0.81884  Biso   1.000  C
  C71      1.0000 0.83992  0.07491  0.86123  Biso   1.000  C
  C72      1.0000 0.81865  0.92884  0.73913  Biso   1.000  C
  C73      1.0000 0.82269  0.54642  0.84041  Biso   1.000  C
  C74      1.0000 0.77134  0.50954  0.79136  Biso   1.000  C
  C75      1.0000 0.74149  0.53003  0.76488  Biso   1.000  C
  C76      1.0000 0.76299  0.58742  0.78745  Biso   1.000  C
  C77      1.0000 0.81434  0.62430  0.83650  Biso   1.000  C
  C78      1.0000 0.68750  0.48950  0.71234  Biso   1.000  C
  C79      1.0000 0.66586  0.43194  0.68708  Biso   1.000  C
  C80      1.0000 0.61557  0.39652  0.63669  Biso   1.000  C
  C81      1.0000 0.58694  0.41867  0.61157  Biso   1.000  C
  C82      1.0000 0.60859  0.47622  0.63683  Biso   1.000  C
  C83      1.0000 0.65887  0.51164  0.68721  Biso   1.000  C
  C84      1.0000 0.53560  0.38369  0.55595  Biso   1.000  C
  C85      1.0000 0.53714  0.36231  0.50671  Biso   1.000  C
  C86      1.0000 0.48810  0.33192  0.45530  Biso   1.000  C
  C87      1.0000 0.43752  0.32294  0.45314  Biso   1.000  C
  C88      1.0000 0.43598  0.34433  0.50239  Biso   1.000  C
  C89      1.0000 0.48502  0.37471  0.55379  Biso   1.000  C
  C90      1.0000 0.38833  0.30259  0.39970  Biso   1.000  C
  C91      1.0000 0.25799  0.16701  0.26942  Biso   1.000  C
  C92      1.0000 0.23004  0.10591  0.24653  Biso   1.000  C
  C93      1.0000 0.23889  0.07217  0.20680  Biso   1.000  C
  C94      1.0000 0.20754  0.01270  0.18116  Biso   1.000  C
  C95      1.0000 0.21368  0.97869  0.13877  Biso   1.000  C
  C96      1.0000 0.18971  0.07952  0.26087  Biso   1.000  C
  C97      1.0000 0.15959  0.70601  0.98228  Biso   1.000  C
  C98      1.0000 0.20864  0.71818  0.97998  Biso   1.000  C
  C99      1.0000 0.23512  0.76515  0.97661  Biso   1.000  C
  C100     1.0000 0.21255  0.79997  0.97554  Biso   1.000  C
  C101     1.0000 0.16350  0.78780  0.97784  Biso   1.000  C
  C102     1.0000 0.28766  0.77716  0.97516  Biso   1.000  C
  C103     1.0000 0.31292  0.74486  0.97878  Biso   1.000  C
  C104     1.0000 0.36331  0.75983  0.97888  Biso   1.000  C
  C105     1.0000 0.38843  0.80710  0.97537  Biso   1.000  C
  C106     1.0000 0.36317  0.83939  0.97176  Biso   1.000  C
  C107     1.0000 0.31279  0.82443  0.97166  Biso   1.000  C
  C108     1.0000 0.44405  0.82774  0.97965  Biso   1.000  C
  C109     1.0000 0.49329  0.85560  0.03043  Biso   1.000  C
  C110     1.0000 0.54470  0.87662  0.03280  Biso   1.000  C
  C111     1.0000 0.54686  0.86980  0.98438  Biso   1.000  C
  C112     1.0000 0.49761  0.84194  0.93359  Biso   1.000  C
  C113     1.0000 0.44621  0.82092  0.93123  Biso   1.000  C
  C114     1.0000 0.60030  0.90289  0.98863  Biso   1.000  C
  C115     1.0000 0.73058  0.89759  0.98857  Biso   1.000  C
  C116     1.0000 0.75347  0.85938  0.98351  Biso   1.000  C
  C117     1.0000 0.79320  0.86537  0.03209  Biso   1.000  C
  C118     1.0000 0.81884  0.83154  0.02638  Biso   1.000  C
  C119     1.0000 0.86123  0.83992  0.07491  Biso   1.000  C
  C120     1.0000 0.73913  0.81865  0.92884  Biso   1.000  C
  C121     1.0000 0.84041  0.82269  0.54642  Biso   1.000  C
  C122     1.0000 0.79136  0.77134  0.50954  Biso   1.000  C
  C123     1.0000 0.76488  0.74149  0.53003  Biso   1.000  C
  C124     1.0000 0.78745  0.76299  0.58742  Biso   1.000  C
  C125     1.0000 0.83650  0.81434  0.62430  Biso   1.000  C
  C126     1.0000 0.71234  0.68750  0.48950  Biso   1.000  C
  C127     1.0000 0.68708  0.66586  0.43194  Biso   1.000  C
  C128     1.0000 0.63669  0.61557  0.39652  Biso   1.000  C
  C129     1.0000 0.61157  0.58694  0.41867  Biso   1.000  C
  C130     1.0000 0.63683  0.60859  0.47622  Biso   1.000  C
  C131     1.0000 0.68721  0.65887  0.51164  Biso   1.000  C
  C132     1.0000 0.55595  0.53560  0.38369  Biso   1.000  C
  C133     1.0000 0.50671  0.53714  0.36231  Biso   1.000  C
  C134     1.0000 0.45530  0.48810  0.33192  Biso   1.000  C
  C135     1.0000 0.45314  0.43752  0.32294  Biso   1.000  C
  C136     1.0000 0.50239  0.43598  0.34433  Biso   1.000  C
  C137     1.0000 0.55379  0.48502  0.37471  Biso   1.000  C
  C138     1.0000 0.39970  0.38833  0.30259  Biso   1.000  C
  C139     1.0000 0.26942  0.25799  0.16701  Biso   1.000  C
  C140     1.0000 0.24653  0.23004  0.10591  Biso   1.000  C
  C141     1.0000 0.20680  0.23889  0.07217  Biso   1.000  C
  C142     1.0000 0.18116  0.20754  0.01270  Biso   1.000  C
  C143     1.0000 0.13877  0.21368  0.97869  Biso   1.000  C
  C144     1.0000 0.26087  0.18971  0.07952  Biso   1.000  C
  C145     1.0000 0.72373  0.17731  0.01772  Biso   1.000  C
  C146     1.0000 0.73820  0.22866  0.02002  Biso   1.000  C
  C147     1.0000 0.78854  0.25851  0.02339  Biso   1.000  C
  C148     1.0000 0.82443  0.23701  0.02446  Biso   1.000  C
  C149     1.0000 0.80996  0.18566  0.02216  Biso   1.000  C
  C150     1.0000 0.80200  0.31250  0.02484  Biso   1.000  C
  C151     1.0000 0.76608  0.33414  0.02122  Biso   1.000  C
  C152     1.0000 0.78095  0.38443  0.02112  Biso   1.000  C
  C153     1.0000 0.83173  0.41306  0.02463  Biso   1.000  C
  C154     1.0000 0.86763  0.39141  0.02824  Biso   1.000  C
  C155     1.0000 0.85277  0.34113  0.02834  Biso   1.000  C
  C156     1.0000 0.84809  0.46440  0.02035  Biso   1.000  C
  C157     1.0000 0.82517  0.46286  0.96957  Biso   1.000  C
  C158     1.0000 0.84382  0.51190  0.96720  Biso   1.000  C
  C159     1.0000 0.88542  0.56248  0.01562  Biso   1.000  C
  C160     1.0000 0.90835  0.56402  0.06641  Biso   1.000  C
  C161     1.0000 0.88969  0.51498  0.06877  Biso   1.000  C
  C162     1.0000 0.91426  0.61167  0.01137  Biso   1.000  C
  C163     1.0000 0.90902  0.74201  0.01143  Biso   1.000  C
  C164     1.0000 0.87587  0.76996  0.01649  Biso   1.000  C
  C165     1.0000 0.83328  0.76111  0.96791  Biso   1.000  C
  C166     1.0000 0.80516  0.79246  0.97362  Biso   1.000  C
  C167     1.0000 0.76501  0.78632  0.92509  Biso   1.000  C
  C168     1.0000 0.88981  0.81029  0.07116  Biso   1.000  C
  C169     1.0000 0.27627  0.29399  0.45358  Biso   1.000  C
  C170     1.0000 0.26180  0.28182  0.49046  Biso   1.000  C
  C171     1.0000 0.21146  0.23485  0.46997  Biso   1.000  C
  C172     1.0000 0.17557  0.20003  0.41258  Biso   1.000  C
  C173     1.0000 0.19004  0.21220  0.37570  Biso   1.000  C
  C174     1.0000 0.19800  0.22284  0.51050  Biso   1.000  C
  C175     1.0000 0.23392  0.25514  0.56806  Biso   1.000  C
  C176     1.0000 0.21905  0.24017  0.60348  Biso   1.000  C
  C177     1.0000 0.16827  0.19290  0.58133  Biso   1.000  C
  C178     1.0000 0.13237  0.16061  0.52378  Biso   1.000  C
  C179     1.0000 0.14723  0.17557  0.48836  Biso   1.000  C
  C180     1.0000 0.15191  0.17226  0.61631  Biso   1.000  C
  C181     1.0000 0.17483  0.14440  0.63769  Biso   1.000  C
  C182     1.0000 0.15618  0.12338  0.66808  Biso   1.000  C
  C183     1.0000 0.11458  0.13020  0.67706  Biso   1.000  C
  C184     1.0000 0.09165  0.15806  0.65567  Biso   1.000  C
  C185     1.0000 0.11031  0.17908  0.62529  Biso   1.000  C
  C186     1.0000 0.08574  0.09711  0.69741  Biso   1.000  C
  C187     1.0000 0.09098  0.10241  0.83299  Biso   1.000  C
  C188     1.0000 0.12413  0.14062  0.89409  Biso   1.000  C
  C189     1.0000 0.16672  0.13463  0.92783  Biso   1.000  C
  C190     1.0000 0.19484  0.16846  0.98730  Biso   1.000  C
  C191     1.0000 0.23499  0.16008  0.02131  Biso   1.000  C
  C192     1.0000 0.11019  0.18135  0.92048  Biso   1.000  C
  C193     1.0000 0.45358  0.27627  0.29399  Biso   1.000  C
  C194     1.0000 0.49046  0.26180  0.28182  Biso   1.000  C
  C195     1.0000 0.46997  0.21146  0.23485  Biso   1.000  C
  C196     1.0000 0.41258  0.17557  0.20003  Biso   1.000  C
  C197     1.0000 0.37570  0.19004  0.21220  Biso   1.000  C
  C198     1.0000 0.51050  0.19800  0.22284  Biso   1.000  C
  C199     1.0000 0.56806  0.23392  0.25514  Biso   1.000  C
  C200     1.0000 0.60348  0.21905  0.24017  Biso   1.000  C
  C201     1.0000 0.58133  0.16827  0.19290  Biso   1.000  C
  C202     1.0000 0.52378  0.13237  0.16061  Biso   1.000  C
  C203     1.0000 0.48836  0.14723  0.17557  Biso   1.000  C
  C204     1.0000 0.61631  0.15191  0.17226  Biso   1.000  C
  C205     1.0000 0.63769  0.17483  0.14440  Biso   1.000  C
  C206     1.0000 0.66808  0.15618  0.12338  Biso   1.000  C
  C207     1.0000 0.67706  0.11458  0.13020  Biso   1.000  C
  C208     1.0000 0.65567  0.09165  0.15806  Biso   1.000  C
  C209     1.0000 0.62529  0.11031  0.17908  Biso   1.000  C
  C210     1.0000 0.69741  0.08574  0.09711  Biso   1.000  C
  C211     1.0000 0.83299  0.09098  0.10241  Biso   1.000  C
  C212     1.0000 0.89409  0.12413  0.14062  Biso   1.000  C
  C213     1.0000 0.92783  0.16672  0.13463  Biso   1.000  C
  C214     1.0000 0.98730  0.19484  0.16846  Biso   1.000  C
  C215     1.0000 0.02131  0.23499  0.16008  Biso   1.000  C
  C216     1.0000 0.92048  0.11019  0.18135  Biso   1.000  C
  C217     1.0000 0.01772  0.72373  0.17731  Biso   1.000  C
  C218     1.0000 0.02002  0.73820  0.22866  Biso   1.000  C
  C219     1.0000 0.02339  0.78854  0.25851  Biso   1.000  C
  C220     1.0000 0.02446  0.82443  0.23701  Biso   1.000  C
  C221     1.0000 0.02216  0.80996  0.18566  Biso   1.000  C
  C222     1.0000 0.02484  0.80200  0.31250  Biso   1.000  C
  C223     1.0000 0.02122  0.76608  0.33414  Biso   1.000  C
  C224     1.0000 0.02112  0.78095  0.38443  Biso   1.000  C
  C225     1.0000 0.02463  0.83173  0.41306  Biso   1.000  C
  C226     1.0000 0.02824  0.86763  0.39141  Biso   1.000  C
  C227     1.0000 0.02834  0.85277  0.34113  Biso   1.000  C
  C228     1.0000 0.02035  0.84809  0.46440  Biso   1.000  C
  C229     1.0000 0.96957  0.82517  0.46286  Biso   1.000  C
  C230     1.0000 0.96720  0.84382  0.51190  Biso   1.000  C
  C231     1.0000 0.01562  0.88542  0.56248  Biso   1.000  C
  C232     1.0000 0.06641  0.90835  0.56402  Biso   1.000  C
  C233     1.0000 0.06877  0.88969  0.51498  Biso   1.000  C
  C234     1.0000 0.01137  0.91426  0.61167  Biso   1.000  C
  C235     1.0000 0.01143  0.90902  0.74201  Biso   1.000  C
  C236     1.0000 0.01649  0.87587  0.76996  Biso   1.000  C
  C237     1.0000 0.96791  0.83328  0.76111  Biso   1.000  C
  C238     1.0000 0.97362  0.80516  0.79246  Biso   1.000  C
  C239     1.0000 0.92509  0.76501  0.78632  Biso   1.000  C
  C240     1.0000 0.07116  0.88981  0.81029  Biso   1.000  C
  C241     1.0000 0.54642  0.84041  0.82269  Biso   1.000  C
  C242     1.0000 0.50954  0.79136  0.77134  Biso   1.000  C
  C243     1.0000 0.53003  0.76488  0.74149  Biso   1.000  C
  C244     1.0000 0.58742  0.78745  0.76299  Biso   1.000  C
  C245     1.0000 0.62430  0.83650  0.81434  Biso   1.000  C
  C246     1.0000 0.48950  0.71234  0.68750  Biso   1.000  C
  C247     1.0000 0.43194  0.68708  0.66586  Biso   1.000  C
  C248     1.0000 0.39652  0.63669  0.61557  Biso   1.000  C
  C249     1.0000 0.41867  0.61157  0.58694  Biso   1.000  C
  C250     1.0000 0.47622  0.63683  0.60859  Biso   1.000  C
  C251     1.0000 0.51164  0.68721  0.65887  Biso   1.000  C
  C252     1.0000 0.38369  0.55595  0.53560  Biso   1.000  C
  C253     1.0000 0.36231  0.50671  0.53714  Biso   1.000  C
  C254     1.0000 0.33192  0.45530  0.48810  Biso   1.000  C
  C255     1.0000 0.32294  0.45314  0.43752  Biso   1.000  C
  C256     1.0000 0.34433  0.50239  0.43598  Biso   1.000  C
  C257     1.0000 0.37471  0.55379  0.48502  Biso   1.000  C
  C258     1.0000 0.30259  0.39970  0.38833  Biso   1.000  C
  C259     1.0000 0.16701  0.26942  0.25799  Biso   1.000  C
  C260     1.0000 0.10591  0.24653  0.23004  Biso   1.000  C
  C261     1.0000 0.07217  0.20680  0.23889  Biso   1.000  C
  C262     1.0000 0.01270  0.18116  0.20754  Biso   1.000  C
  C263     1.0000 0.97869  0.13877  0.21368  Biso   1.000  C
  C264     1.0000 0.07952  0.26087  0.18971  Biso   1.000  C
  C265     1.0000 0.98228  0.15959  0.70601  Biso   1.000  C
  C266     1.0000 0.97998  0.20864  0.71818  Biso   1.000  C
  C267     1.0000 0.97661  0.23512  0.76515  Biso   1.000  C
  C268     1.0000 0.97554  0.21255  0.79997  Biso   1.000  C
  C269     1.0000 0.97784  0.16350  0.78780  Biso   1.000  C
  C270     1.0000 0.97516  0.28766  0.77716  Biso   1.000  C
  C271     1.0000 0.97878  0.31292  0.74486  Biso   1.000  C
  C272     1.0000 0.97888  0.36331  0.75983  Biso   1.000  C
  C273     1.0000 0.97537  0.38843  0.80710  Biso   1.000  C
  C274     1.0000 0.97176  0.36317  0.83939  Biso   1.000  C
  C275     1.0000 0.97166  0.31279  0.82443  Biso   1.000  C
  C276     1.0000 0.97965  0.44405  0.82774  Biso   1.000  C
  C277     1.0000 0.03043  0.49329  0.85560  Biso   1.000  C
  C278     1.0000 0.03280  0.54470  0.87662  Biso   1.000  C
  C279     1.0000 0.98438  0.54686  0.86980  Biso   1.000  C
  C280     1.0000 0.93359  0.49761  0.84194  Biso   1.000  C
  C281     1.0000 0.93123  0.44621  0.82092  Biso   1.000  C
  C282     1.0000 0.98863  0.60030  0.90289  Biso   1.000  C
  C283     1.0000 0.98857  0.73058  0.89759  Biso   1.000  C
  C284     1.0000 0.98351  0.75347  0.85938  Biso   1.000  C
  C285     1.0000 0.03209  0.79320  0.86537  Biso   1.000  C
  C286     1.0000 0.02638  0.81884  0.83154  Biso   1.000  C
  C287     1.0000 0.07491  0.86123  0.83992  Biso   1.000  C
  C288     1.0000 0.92884  0.73913  0.81865  Biso   1.000  C
  N1       1.0000 0.15582  0.01880  0.75962  Biso   1.000  N
  N2       1.0000 0.25918  0.39620  0.24038  Biso   1.000  N
  N3       1.0000 0.74082  0.98120  0.13702  Biso   1.000  N
  N4       1.0000 0.84418  0.60380  0.86298  Biso   1.000  N
  N5       1.0000 0.13702  0.74082  0.98120  Biso   1.000  N
  N6       1.0000 0.86298  0.84418  0.60380  Biso   1.000  N
  N7       1.0000 0.75962  0.15582  0.01880  Biso   1.000  N
  N8       1.0000 0.24038  0.25918  0.39620  Biso   1.000  N
  N9       1.0000 0.39620  0.24038  0.25918  Biso   1.000  N
  N10      1.0000 0.01880  0.75962  0.15582  Biso   1.000  N
  N11      1.0000 0.60380  0.86298  0.84418  Biso   1.000  N
  N12      1.0000 0.98120  0.13702  0.74082  Biso   1.000  N
  O1       1.0000 0.65534  0.05428  0.95324  Biso   1.000  O
  O2       1.0000 0.60853  0.96473  0.89454  Biso   1.000  O
  O3       1.0000 0.75393  0.05480  0.94627  Biso   1.000  O
  O4       1.0000 0.70927  0.96188  0.89549  Biso   1.000  O
  O5       1.0000 0.10104  0.70210  0.04676  Biso   1.000  O
  O6       1.0000 0.07019  0.71399  0.10546  Biso   1.000  O
  O7       1.0000 0.10853  0.80766  0.05373  Biso   1.000  O
  O8       1.0000 0.06639  0.81378  0.10451  Biso   1.000  O
  O9       1.0000 0.89896  0.94572  0.60106  Biso   1.000  O
  O10      1.0000 0.92981  0.03527  0.64380  Biso   1.000  O
  O11      1.0000 0.89147  0.94520  0.69913  Biso   1.000  O
  O12      1.0000 0.93361  0.03812  0.74739  Biso   1.000  O
  O13      1.0000 0.34466  0.29790  0.39894  Biso   1.000  O
  O14      1.0000 0.39147  0.28601  0.35620  Biso   1.000  O
  O15      1.0000 0.24607  0.19234  0.30087  Biso   1.000  O
  O16      1.0000 0.29073  0.18622  0.25261  Biso   1.000  O
  O17      1.0000 0.60106  0.89896  0.94572  Biso   1.000  O
  O18      1.0000 0.64380  0.92981  0.03527  Biso   1.000  O
  O19      1.0000 0.69913  0.89147  0.94520  Biso   1.000  O
  O20      1.0000 0.74739  0.93361  0.03812  Biso   1.000  O
  O21      1.0000 0.39894  0.34466  0.29790  Biso   1.000  O
  O22      1.0000 0.35620  0.39147  0.28601  Biso   1.000  O
  O23      1.0000 0.30087  0.24607  0.19234  Biso   1.000  O
  O24      1.0000 0.25261  0.29073  0.18622  Biso   1.000  O
  O25      1.0000 0.95324  0.65534  0.05428  Biso   1.000  O
  O26      1.0000 0.89454  0.60853  0.96473  Biso   1.000  O
  O27      1.0000 0.94627  0.75393  0.05480  Biso   1.000  O
  O28      1.0000 0.89549  0.70927  0.96188  Biso   1.000  O
  O29      1.0000 0.04676  0.10104  0.70210  Biso   1.000  O
  O30      1.0000 0.10546  0.07019  0.71399  Biso   1.000  O
  O31      1.0000 0.05373  0.10853  0.80766  Biso   1.000  O
  O32      1.0000 0.10451  0.06639  0.81378  Biso   1.000  O
  O33      1.0000 0.70210  0.04676  0.10104  Biso   1.000  O
  O34      1.0000 0.71399  0.10546  0.07019  Biso   1.000  O
  O35      1.0000 0.80766  0.05373  0.10853  Biso   1.000  O
  O36      1.0000 0.81378  0.10451  0.06639  Biso   1.000  O
  O37      1.0000 0.05428  0.95324  0.65534  Biso   1.000  O
  O38      1.0000 0.96473  0.89454  0.60853  Biso   1.000  O
  O39      1.0000 0.05480  0.94627  0.75393  Biso   1.000  O
  O40      1.0000 0.96188  0.89549  0.70927  Biso   1.000  O
  O41      1.0000 0.29790  0.39894  0.34466  Biso   1.000  O
  O42      1.0000 0.28601  0.35620  0.39147  Biso   1.000  O
  O43      1.0000 0.19234  0.30087  0.24607  Biso   1.000  O
  O44      1.0000 0.18622  0.25261  0.29073  Biso   1.000  O
  O45      1.0000 0.94572  0.60106  0.89896  Biso   1.000  O
  O46      1.0000 0.03527  0.64380  0.92981  Biso   1.000  O
  O47      1.0000 0.94520  0.69913  0.89147  Biso   1.000  O
  O48      1.0000 0.03812  0.74739  0.93361  Biso   1.000  O
  O49      1.0000 0.71176  0.00000  0.00000  Biso   1.000  O
  O50      1.0000 0.00000  0.71176  0.00000  Biso   1.000  O
  O51      1.0000 0.00000  0.00000  0.71176  Biso   1.000  O
  O52      1.0000 0.28824  0.28824  0.28824  Biso   1.000  O
