data_image0
_cell_length_a       11.4137
_cell_length_b       16.592
_cell_length_c       26.041
_cell_angle_alpha    90
_cell_angle_beta     95.29
_cell_angle_gamma    90

_symmetry_space_group_name_H-M    P 1
_symmetry_int_tables_number       1

loop_
  _symmetry_equiv_pos_as_xyz
  'x, y, z'

loop_
  _atom_site_label
  _atom_site_occupancy
  _atom_site_fract_x
  _atom_site_fract_y
  _atom_site_fract_z
  _atom_site_thermal_displace_type
  _atom_site_B_iso_or_equiv
  _atom_site_type_symbol
  Cd1      1.0000 0.88591  0.05887  0.96078  Biso   1.000  Cd
  Cd2      1.0000 0.83183  0.26612  0.96307  Biso   1.000  Cd
  Cd3      1.0000 0.11409  0.55887  0.53922  Biso   1.000  Cd
  Cd4      1.0000 0.16817  0.76612  0.53693  Biso   1.000  Cd
  Cd5      1.0000 0.11409  0.94113  0.03922  Biso   1.000  Cd
  Cd6      1.0000 0.16817  0.73388  0.03693  Biso   1.000  Cd
  Cd7      1.0000 0.88591  0.44113  0.46078  Biso   1.000  Cd
  Cd8      1.0000 0.83183  0.23388  0.46307  Biso   1.000  Cd
  H1       1.0000 0.25040  0.08830  0.77860  Biso   1.000  H
  H2       1.0000 0.14320  0.07810  0.84990  Biso   1.000  H
  H3       1.0000 0.04840  0.31160  0.83260  Biso   1.000  H
  H4       1.0000 0.15570  0.32090  0.76120  Biso   1.000  H
  H5       1.0000 0.31800  0.12510  0.62130  Biso   1.000  H
  H6       1.0000 0.41030  0.12030  0.54530  Biso   1.000  H
  H7       1.0000 0.68300  0.24730  0.61450  Biso   1.000  H
  H8       1.0000 0.59300  0.24680  0.69050  Biso   1.000  H
  H9       1.0000 0.44490  0.27010  0.79880  Biso   1.000  H
  H10      1.0000 0.58090  0.24070  0.86880  Biso   1.000  H
  H11      1.0000 0.64570  0.02600  0.80380  Biso   1.000  H
  H12      1.0000 0.51270  0.05860  0.73380  Biso   1.000  H
  H13      1.0000 0.06400  0.17300  0.66810  Biso   1.000  H
  H14      1.0000 0.95320  0.23380  0.59950  Biso   1.000  H
  H15      1.0000 0.20720  0.40130  0.59040  Biso   1.000  H
  H16      1.0000 0.32120  0.33900  0.65830  Biso   1.000  H
  H17      1.0000 0.05280  0.39080  0.94380  Biso   1.000  H
  H18      1.0000 0.07960  0.44460  0.99450  Biso   1.000  H
  H19      1.0000 0.12650  0.27970  0.99630  Biso   1.000  H
  H20      1.0000 0.22060  0.34340  0.97920  Biso   1.000  H
  H21      1.0000 0.17890  0.34680  0.03610  Biso   1.000  H
  H22      1.0000 0.76540  0.04600  0.05590  Biso   1.000  H
  H23      1.0000 0.49780  0.90740  0.04850  Biso   1.000  H
  H24      1.0000 0.58170  0.91190  0.00330  Biso   1.000  H
  H25      1.0000 0.63630  0.81660  0.08960  Biso   1.000  H
  H26      1.0000 0.55840  0.78550  0.03930  Biso   1.000  H
  H27      1.0000 0.69190  0.81250  0.03550  Biso   1.000  H
  H28      1.0000 0.67580  0.03160  0.13090  Biso   1.000  H
  H29      1.0000 0.58960  0.95680  0.13680  Biso   1.000  H
  H30      1.0000 0.45180  0.03280  0.08500  Biso   1.000  H
  H31      1.0000 0.48030  0.05740  0.14420  Biso   1.000  H
  H32      1.0000 0.53750  0.10710  0.10020  Biso   1.000  H
  H33      1.0000 0.74960  0.58830  0.72140  Biso   1.000  H
  H34      1.0000 0.85680  0.57810  0.65010  Biso   1.000  H
  H35      1.0000 0.95160  0.81160  0.66740  Biso   1.000  H
  H36      1.0000 0.84430  0.82090  0.73880  Biso   1.000  H
  H37      1.0000 0.68200  0.62510  0.87870  Biso   1.000  H
  H38      1.0000 0.58970  0.62030  0.95470  Biso   1.000  H
  H39      1.0000 0.31700  0.74730  0.88550  Biso   1.000  H
  H40      1.0000 0.40700  0.74680  0.80950  Biso   1.000  H
  H41      1.0000 0.55510  0.77010  0.70120  Biso   1.000  H
  H42      1.0000 0.41910  0.74070  0.63120  Biso   1.000  H
  H43      1.0000 0.35430  0.52600  0.69620  Biso   1.000  H
  H44      1.0000 0.48730  0.55860  0.76620  Biso   1.000  H
  H45      1.0000 0.93600  0.67300  0.83190  Biso   1.000  H
  H46      1.0000 0.04680  0.73380  0.90050  Biso   1.000  H
  H47      1.0000 0.79280  0.90130  0.90960  Biso   1.000  H
  H48      1.0000 0.67880  0.83900  0.84170  Biso   1.000  H
  H49      1.0000 0.94720  0.89080  0.55620  Biso   1.000  H
  H50      1.0000 0.92040  0.94460  0.50550  Biso   1.000  H
  H51      1.0000 0.87350  0.77970  0.50370  Biso   1.000  H
  H52      1.0000 0.77940  0.84340  0.52080  Biso   1.000  H
  H53      1.0000 0.82110  0.84680  0.46390  Biso   1.000  H
  H54      1.0000 0.23460  0.54600  0.44410  Biso   1.000  H
  H55      1.0000 0.50220  0.40740  0.45150  Biso   1.000  H
  H56      1.0000 0.41830  0.41190  0.49670  Biso   1.000  H
  H57      1.0000 0.36370  0.31660  0.41040  Biso   1.000  H
  H58      1.0000 0.44160  0.28550  0.46070  Biso   1.000  H
  H59      1.0000 0.30810  0.31250  0.46450  Biso   1.000  H
  H60      1.0000 0.32420  0.53160  0.36910  Biso   1.000  H
  H61      1.0000 0.41040  0.45680  0.36320  Biso   1.000  H
  H62      1.0000 0.54820  0.53280  0.41500  Biso   1.000  H
  H63      1.0000 0.51970  0.55740  0.35580  Biso   1.000  H
  H64      1.0000 0.46250  0.60710  0.39980  Biso   1.000  H
  H65      1.0000 0.74960  0.91170  0.22140  Biso   1.000  H
  H66      1.0000 0.85680  0.92190  0.15010  Biso   1.000  H
  H67      1.0000 0.95160  0.68840  0.16740  Biso   1.000  H
  H68      1.0000 0.84430  0.67910  0.23880  Biso   1.000  H
  H69      1.0000 0.68200  0.87490  0.37870  Biso   1.000  H
  H70      1.0000 0.58970  0.87970  0.45470  Biso   1.000  H
  H71      1.0000 0.31700  0.75270  0.38550  Biso   1.000  H
  H72      1.0000 0.40700  0.75320  0.30950  Biso   1.000  H
  H73      1.0000 0.55510  0.72990  0.20120  Biso   1.000  H
  H74      1.0000 0.41910  0.75930  0.13120  Biso   1.000  H
  H75      1.0000 0.35430  0.97400  0.19620  Biso   1.000  H
  H76      1.0000 0.48730  0.94140  0.26620  Biso   1.000  H
  H77      1.0000 0.93600  0.82700  0.33190  Biso   1.000  H
  H78      1.0000 0.04680  0.76620  0.40050  Biso   1.000  H
  H79      1.0000 0.79280  0.59870  0.40960  Biso   1.000  H
  H80      1.0000 0.67880  0.66100  0.34170  Biso   1.000  H
  H81      1.0000 0.94720  0.60920  0.05620  Biso   1.000  H
  H82      1.0000 0.92040  0.55540  0.00550  Biso   1.000  H
  H83      1.0000 0.87350  0.72030  0.00370  Biso   1.000  H
  H84      1.0000 0.77940  0.65660  0.02080  Biso   1.000  H
  H85      1.0000 0.82110  0.65320  0.96390  Biso   1.000  H
  H86      1.0000 0.23460  0.95400  0.94410  Biso   1.000  H
  H87      1.0000 0.50220  0.09260  0.95150  Biso   1.000  H
  H88      1.0000 0.41830  0.08810  0.99670  Biso   1.000  H
  H89      1.0000 0.36370  0.18340  0.91040  Biso   1.000  H
  H90      1.0000 0.44160  0.21450  0.96070  Biso   1.000  H
  H91      1.0000 0.30810  0.18750  0.96450  Biso   1.000  H
  H92      1.0000 0.32420  0.96840  0.86910  Biso   1.000  H
  H93      1.0000 0.41040  0.04320  0.86320  Biso   1.000  H
  H94      1.0000 0.54820  0.96720  0.91500  Biso   1.000  H
  H95      1.0000 0.51970  0.94260  0.85580  Biso   1.000  H
  H96      1.0000 0.46250  0.89290  0.89980  Biso   1.000  H
  H97      1.0000 0.25040  0.41170  0.27860  Biso   1.000  H
  H98      1.0000 0.14320  0.42190  0.34990  Biso   1.000  H
  H99      1.0000 0.04840  0.18840  0.33260  Biso   1.000  H
  H100     1.0000 0.15570  0.17910  0.26120  Biso   1.000  H
  H101     1.0000 0.31800  0.37490  0.12130  Biso   1.000  H
  H102     1.0000 0.41030  0.37970  0.04530  Biso   1.000  H
  H103     1.0000 0.68300  0.25270  0.11450  Biso   1.000  H
  H104     1.0000 0.59300  0.25320  0.19050  Biso   1.000  H
  H105     1.0000 0.44490  0.22990  0.29880  Biso   1.000  H
  H106     1.0000 0.58090  0.25930  0.36880  Biso   1.000  H
  H107     1.0000 0.64570  0.47400  0.30380  Biso   1.000  H
  H108     1.0000 0.51270  0.44140  0.23380  Biso   1.000  H
  H109     1.0000 0.06400  0.32700  0.16810  Biso   1.000  H
  H110     1.0000 0.95320  0.26620  0.09950  Biso   1.000  H
  H111     1.0000 0.20720  0.09870  0.09040  Biso   1.000  H
  H112     1.0000 0.32120  0.16100  0.15830  Biso   1.000  H
  H113     1.0000 0.05280  0.10920  0.44380  Biso   1.000  H
  H114     1.0000 0.07960  0.05540  0.49450  Biso   1.000  H
  H115     1.0000 0.12650  0.22030  0.49630  Biso   1.000  H
  H116     1.0000 0.22060  0.15660  0.47920  Biso   1.000  H
  H117     1.0000 0.17890  0.15320  0.53610  Biso   1.000  H
  H118     1.0000 0.76540  0.45400  0.55590  Biso   1.000  H
  H119     1.0000 0.49780  0.59260  0.54850  Biso   1.000  H
  H120     1.0000 0.58170  0.58810  0.50330  Biso   1.000  H
  H121     1.0000 0.63630  0.68340  0.58960  Biso   1.000  H
  H122     1.0000 0.55840  0.71450  0.53930  Biso   1.000  H
  H123     1.0000 0.69190  0.68750  0.53550  Biso   1.000  H
  H124     1.0000 0.67580  0.46840  0.63090  Biso   1.000  H
  H125     1.0000 0.58960  0.54320  0.63680  Biso   1.000  H
  H126     1.0000 0.45180  0.46720  0.58500  Biso   1.000  H
  H127     1.0000 0.48030  0.44260  0.64420  Biso   1.000  H
  H128     1.0000 0.53750  0.39290  0.60020  Biso   1.000  H
  C1       1.0000 0.38750  0.18970  0.71240  Biso   1.000  C
  C2       1.0000 0.27490  0.21210  0.71450  Biso   1.000  C
  C3       1.0000 0.21170  0.20550  0.76190  Biso   1.000  C
  C4       1.0000 0.20860  0.13390  0.78940  Biso   1.000  C
  C5       1.0000 0.14590  0.12790  0.83210  Biso   1.000  C
  C6       1.0000 0.08680  0.19420  0.84910  Biso   1.000  C
  C7       1.0000 0.08990  0.26590  0.82190  Biso   1.000  C
  C8       1.0000 0.15300  0.27110  0.77910  Biso   1.000  C
  C9       1.0000 0.44500  0.18800  0.66330  Biso   1.000  C
  C10      1.0000 0.39280  0.14990  0.62000  Biso   1.000  C
  C11      1.0000 0.44750  0.14710  0.57470  Biso   1.000  C
  C12      1.0000 0.55640  0.18330  0.57200  Biso   1.000  C
  C13      1.0000 0.60900  0.22150  0.61570  Biso   1.000  C
  C14      1.0000 0.55440  0.22220  0.66060  Biso   1.000  C
  C15      1.0000 0.46670  0.16740  0.75910  Biso   1.000  C
  C16      1.0000 0.48680  0.22060  0.79950  Biso   1.000  C
  C17      1.0000 0.56760  0.20300  0.84140  Biso   1.000  C
  C18      1.0000 0.62810  0.13160  0.84340  Biso   1.000  C
  C19      1.0000 0.60610  0.07640  0.80280  Biso   1.000  C
  C20      1.0000 0.52630  0.09590  0.76140  Biso   1.000  C
  C21      1.0000 0.20400  0.24950  0.66960  Biso   1.000  C
  C22      1.0000 0.09370  0.21920  0.65210  Biso   1.000  C
  C23      1.0000 0.02750  0.25570  0.61170  Biso   1.000  C
  C24      1.0000 0.06830  0.32410  0.58870  Biso   1.000  C
  C25      1.0000 0.17830  0.35470  0.60620  Biso   1.000  C
  C26      1.0000 0.24620  0.31770  0.64660  Biso   1.000  C
  C27      1.0000 0.99630  0.36550  0.54610  Biso   1.000  C
  C28      1.0000 0.71610  0.11130  0.88700  Biso   1.000  C
  C29      1.0000 0.01620  0.18670  0.89470  Biso   1.000  C
  C30      1.0000 0.61860  0.17960  0.52360  Biso   1.000  C
  C31      1.0000 0.74780  0.43810  0.90290  Biso   1.000  C
  C32      1.0000 0.05960  0.38950  0.98200  Biso   1.000  C
  C33      1.0000 0.15400  0.33550  0.99980  Biso   1.000  C
  C34      1.0000 0.71970  0.00700  0.03620  Biso   1.000  C
  C35      1.0000 0.58130  0.90510  0.04110  Biso   1.000  C
  C36      1.0000 0.62010  0.82330  0.05230  Biso   1.000  C
  C37      1.0000 0.60620  0.00290  0.11450  Biso   1.000  C
  C38      1.0000 0.51240  0.05360  0.11070  Biso   1.000  C
  C39      1.0000 0.83000  0.45390  0.87080  Biso   1.000  C
  C40      1.0000 0.61250  0.68970  0.78760  Biso   1.000  C
  C41      1.0000 0.72510  0.71210  0.78550  Biso   1.000  C
  C42      1.0000 0.78830  0.70550  0.73810  Biso   1.000  C
  C43      1.0000 0.79140  0.63390  0.71060  Biso   1.000  C
  C44      1.0000 0.85410  0.62790  0.66790  Biso   1.000  C
  C45      1.0000 0.91320  0.69420  0.65090  Biso   1.000  C
  C46      1.0000 0.91010  0.76590  0.67810  Biso   1.000  C
  C47      1.0000 0.84700  0.77110  0.72090  Biso   1.000  C
  C48      1.0000 0.55500  0.68800  0.83670  Biso   1.000  C
  C49      1.0000 0.60720  0.64990  0.88000  Biso   1.000  C
  C50      1.0000 0.55250  0.64710  0.92530  Biso   1.000  C
  C51      1.0000 0.44360  0.68330  0.92800  Biso   1.000  C
  C52      1.0000 0.39100  0.72150  0.88430  Biso   1.000  C
  C53      1.0000 0.44560  0.72220  0.83940  Biso   1.000  C
  C54      1.0000 0.53330  0.66740  0.74090  Biso   1.000  C
  C55      1.0000 0.51320  0.72060  0.70050  Biso   1.000  C
  C56      1.0000 0.43240  0.70300  0.65860  Biso   1.000  C
  C57      1.0000 0.37190  0.63160  0.65660  Biso   1.000  C
  C58      1.0000 0.39390  0.57640  0.69720  Biso   1.000  C
  C59      1.0000 0.47370  0.59590  0.73860  Biso   1.000  C
  C60      1.0000 0.79600  0.74950  0.83040  Biso   1.000  C
  C61      1.0000 0.90630  0.71920  0.84790  Biso   1.000  C
  C62      1.0000 0.97250  0.75570  0.88830  Biso   1.000  C
  C63      1.0000 0.93170  0.82410  0.91130  Biso   1.000  C
  C64      1.0000 0.82170  0.85470  0.89380  Biso   1.000  C
  C65      1.0000 0.75380  0.81770  0.85340  Biso   1.000  C
  C66      1.0000 0.00370  0.86550  0.95390  Biso   1.000  C
  C67      1.0000 0.28390  0.61130  0.61300  Biso   1.000  C
  C68      1.0000 0.98380  0.68670  0.60530  Biso   1.000  C
  C69      1.0000 0.38140  0.67960  0.97640  Biso   1.000  C
  C70      1.0000 0.25220  0.93810  0.59710  Biso   1.000  C
  C71      1.0000 0.94040  0.88950  0.51800  Biso   1.000  C
  C72      1.0000 0.84600  0.83550  0.50020  Biso   1.000  C
  C73      1.0000 0.28030  0.50700  0.46380  Biso   1.000  C
  C74      1.0000 0.41870  0.40510  0.45890  Biso   1.000  C
  C75      1.0000 0.37990  0.32330  0.44770  Biso   1.000  C
  C76      1.0000 0.39380  0.50290  0.38550  Biso   1.000  C
  C77      1.0000 0.48760  0.55360  0.38930  Biso   1.000  C
  C78      1.0000 0.17000  0.95390  0.62920  Biso   1.000  C
  C79      1.0000 0.61250  0.81030  0.28760  Biso   1.000  C
  C80      1.0000 0.72510  0.78790  0.28550  Biso   1.000  C
  C81      1.0000 0.78830  0.79450  0.23810  Biso   1.000  C
  C82      1.0000 0.79140  0.86610  0.21060  Biso   1.000  C
  C83      1.0000 0.85410  0.87210  0.16790  Biso   1.000  C
  C84      1.0000 0.91320  0.80580  0.15090  Biso   1.000  C
  C85      1.0000 0.91010  0.73410  0.17810  Biso   1.000  C
  C86      1.0000 0.84700  0.72890  0.22090  Biso   1.000  C
  C87      1.0000 0.55500  0.81200  0.33670  Biso   1.000  C
  C88      1.0000 0.60720  0.85010  0.38000  Biso   1.000  C
  C89      1.0000 0.55250  0.85290  0.42530  Biso   1.000  C
  C90      1.0000 0.44360  0.81670  0.42800  Biso   1.000  C
  C91      1.0000 0.39100  0.77850  0.38430  Biso   1.000  C
  C92      1.0000 0.44560  0.77780  0.33940  Biso   1.000  C
  C93      1.0000 0.53330  0.83260  0.24090  Biso   1.000  C
  C94      1.0000 0.51320  0.77940  0.20050  Biso   1.000  C
  C95      1.0000 0.43240  0.79700  0.15860  Biso   1.000  C
  C96      1.0000 0.37190  0.86840  0.15660  Biso   1.000  C
  C97      1.0000 0.39390  0.92360  0.19720  Biso   1.000  C
  C98      1.0000 0.47370  0.90410  0.23860  Biso   1.000  C
  C99      1.0000 0.79600  0.75050  0.33040  Biso   1.000  C
  C100     1.0000 0.90630  0.78080  0.34790  Biso   1.000  C
  C101     1.0000 0.97250  0.74430  0.38830  Biso   1.000  C
  C102     1.0000 0.93170  0.67590  0.41130  Biso   1.000  C
  C103     1.0000 0.82170  0.64530  0.39380  Biso   1.000  C
  C104     1.0000 0.75380  0.68230  0.35340  Biso   1.000  C
  C105     1.0000 0.00370  0.63450  0.45390  Biso   1.000  C
  C106     1.0000 0.28390  0.88870  0.11300  Biso   1.000  C
  C107     1.0000 0.98380  0.81330  0.10530  Biso   1.000  C
  C108     1.0000 0.38140  0.82040  0.47640  Biso   1.000  C
  C109     1.0000 0.25220  0.56190  0.09710  Biso   1.000  C
  C110     1.0000 0.94040  0.61050  0.01800  Biso   1.000  C
  C111     1.0000 0.84600  0.66450  0.00020  Biso   1.000  C
  C112     1.0000 0.28030  0.99300  0.96380  Biso   1.000  C
  C113     1.0000 0.41870  0.09490  0.95890  Biso   1.000  C
  C114     1.0000 0.37990  0.17670  0.94770  Biso   1.000  C
  C115     1.0000 0.39380  0.99710  0.88550  Biso   1.000  C
  C116     1.0000 0.48760  0.94640  0.88930  Biso   1.000  C
  C117     1.0000 0.17000  0.54610  0.12920  Biso   1.000  C
  C118     1.0000 0.38750  0.31030  0.21240  Biso   1.000  C
  C119     1.0000 0.27490  0.28790  0.21450  Biso   1.000  C
  C120     1.0000 0.21170  0.29450  0.26190  Biso   1.000  C
  C121     1.0000 0.20860  0.36610  0.28940  Biso   1.000  C
  C122     1.0000 0.14590  0.37210  0.33210  Biso   1.000  C
  C123     1.0000 0.08680  0.30580  0.34910  Biso   1.000  C
  C124     1.0000 0.08990  0.23410  0.32190  Biso   1.000  C
  C125     1.0000 0.15300  0.22890  0.27910  Biso   1.000  C
  C126     1.0000 0.44500  0.31200  0.16330  Biso   1.000  C
  C127     1.0000 0.39280  0.35010  0.12000  Biso   1.000  C
  C128     1.0000 0.44750  0.35290  0.07470  Biso   1.000  C
  C129     1.0000 0.55640  0.31670  0.07200  Biso   1.000  C
  C130     1.0000 0.60900  0.27850  0.11570  Biso   1.000  C
  C131     1.0000 0.55440  0.27780  0.16060  Biso   1.000  C
  C132     1.0000 0.46670  0.33260  0.25910  Biso   1.000  C
  C133     1.0000 0.48680  0.27940  0.29950  Biso   1.000  C
  C134     1.0000 0.56760  0.29700  0.34140  Biso   1.000  C
  C135     1.0000 0.62810  0.36840  0.34340  Biso   1.000  C
  C136     1.0000 0.60610  0.42360  0.30280  Biso   1.000  C
  C137     1.0000 0.52630  0.40410  0.26140  Biso   1.000  C
  C138     1.0000 0.20400  0.25050  0.16960  Biso   1.000  C
  C139     1.0000 0.09370  0.28080  0.15210  Biso   1.000  C
  C140     1.0000 0.02750  0.24430  0.11170  Biso   1.000  C
  C141     1.0000 0.06830  0.17590  0.08870  Biso   1.000  C
  C142     1.0000 0.17830  0.14530  0.10620  Biso   1.000  C
  C143     1.0000 0.24620  0.18230  0.14660  Biso   1.000  C
  C144     1.0000 0.99630  0.13450  0.04610  Biso   1.000  C
  C145     1.0000 0.71610  0.38870  0.38700  Biso   1.000  C
  C146     1.0000 0.01620  0.31330  0.39470  Biso   1.000  C
  C147     1.0000 0.61860  0.32040  0.02360  Biso   1.000  C
  C148     1.0000 0.74780  0.06190  0.40290  Biso   1.000  C
  C149     1.0000 0.05960  0.11050  0.48200  Biso   1.000  C
  C150     1.0000 0.15400  0.16450  0.49980  Biso   1.000  C
  C151     1.0000 0.71970  0.49300  0.53620  Biso   1.000  C
  C152     1.0000 0.58130  0.59490  0.54110  Biso   1.000  C
  C153     1.0000 0.62010  0.67670  0.55230  Biso   1.000  C
  C154     1.0000 0.60620  0.49710  0.61450  Biso   1.000  C
  C155     1.0000 0.51240  0.44640  0.61070  Biso   1.000  C
  C156     1.0000 0.83000  0.04610  0.37080  Biso   1.000  C
  N1       1.0000 0.63330  0.97200  0.06280  Biso   1.000  N
  N2       1.0000 0.36670  0.47200  0.43720  Biso   1.000  N
  N3       1.0000 0.36670  0.02800  0.93720  Biso   1.000  N
  N4       1.0000 0.63330  0.52800  0.56280  Biso   1.000  N
  O1       1.0000 0.72790  0.15790  0.92542  Biso   1.000  O
  O2       1.0000 0.77580  0.04810  0.88401  Biso   1.000  O
  O3       1.0000 0.02160  0.12190  0.91878  Biso   1.000  O
  O4       1.0000 0.95540  0.24850  0.90458  Biso   1.000  O
  O5       1.0000 0.71070  0.21920  0.52338  Biso   1.000  O
  O6       1.0000 0.57400  0.13720  0.48750  Biso   1.000  O
  O7       1.0000 0.01980  0.43650  0.53498  Biso   1.000  O
  O8       1.0000 0.91180  0.32950  0.52229  Biso   1.000  O
  O9       1.0000 0.71390  0.35840  0.91478  Biso   1.000  O
  O10      1.0000 0.94860  0.36720  0.99880  Biso   1.000  O
  O11      1.0000 0.74440  0.99970  0.00010  Biso   1.000  O
  O12      1.0000 0.27210  0.65790  0.57458  Biso   1.000  O
  O13      1.0000 0.22420  0.54810  0.61599  Biso   1.000  O
  O14      1.0000 0.97840  0.62190  0.58122  Biso   1.000  O
  O15      1.0000 0.04460  0.74850  0.59542  Biso   1.000  O
  O16      1.0000 0.28930  0.71920  0.97662  Biso   1.000  O
  O17      1.0000 0.42600  0.63720  0.01250  Biso   1.000  O
  O18      1.0000 0.98020  0.93650  0.96502  Biso   1.000  O
  O19      1.0000 0.08820  0.82950  0.97771  Biso   1.000  O
  O20      1.0000 0.28610  0.85840  0.58522  Biso   1.000  O
  O21      1.0000 0.05140  0.86720  0.50120  Biso   1.000  O
  O22      1.0000 0.25560  0.49970  0.49990  Biso   1.000  O
  O23      1.0000 0.27210  0.84210  0.07458  Biso   1.000  O
  O24      1.0000 0.22420  0.95190  0.11599  Biso   1.000  O
  O25      1.0000 0.97840  0.87810  0.08122  Biso   1.000  O
  O26      1.0000 0.04460  0.75150  0.09542  Biso   1.000  O
  O27      1.0000 0.28930  0.78080  0.47662  Biso   1.000  O
  O28      1.0000 0.42600  0.86280  0.51250  Biso   1.000  O
  O29      1.0000 0.98020  0.56350  0.46502  Biso   1.000  O
  O30      1.0000 0.08820  0.67050  0.47771  Biso   1.000  O
  O31      1.0000 0.28610  0.64160  0.08522  Biso   1.000  O
  O32      1.0000 0.05140  0.63280  0.00120  Biso   1.000  O
  O33      1.0000 0.25560  0.00030  0.99990  Biso   1.000  O
  O34      1.0000 0.72790  0.34210  0.42542  Biso   1.000  O
  O35      1.0000 0.77580  0.45190  0.38401  Biso   1.000  O
  O36      1.0000 0.02160  0.37810  0.41878  Biso   1.000  O
  O37      1.0000 0.95540  0.25150  0.40458  Biso   1.000  O
  O38      1.0000 0.71070  0.28080  0.02338  Biso   1.000  O
  O39      1.0000 0.57400  0.36280  0.98750  Biso   1.000  O
  O40      1.0000 0.01980  0.06350  0.03498  Biso   1.000  O
  O41      1.0000 0.91180  0.17050  0.02229  Biso   1.000  O
  O42      1.0000 0.71390  0.14160  0.41478  Biso   1.000  O
  O43      1.0000 0.94860  0.13280  0.49880  Biso   1.000  O
  O44      1.0000 0.74440  0.50030  0.50010  Biso   1.000  O
