data_image0
_cell_length_a       11.2029
_cell_length_b       21.0747
_cell_length_c       21.0747
_cell_angle_alpha    120
_cell_angle_beta     90
_cell_angle_gamma    90

_symmetry_space_group_name_H-M    P 1
_symmetry_int_tables_number       1

loop_
  _symmetry_equiv_pos_as_xyz
  'x, y, z'

loop_
  _atom_site_label
  _atom_site_occupancy
  _atom_site_fract_x
  _atom_site_fract_y
  _atom_site_fract_z
  _atom_site_thermal_displace_type
  _atom_site_B_iso_or_equiv
  _atom_site_type_symbol
  Cd1      1.0000 0.93919  0.42900  0.97637  Biso   1.000  Cd
  Cd2      1.0000 0.60586  0.54737  0.57100  Biso   1.000  Cd
  Cd3      1.0000 0.27252  0.02363  0.45263  Biso   1.000  Cd
  Cd4      1.0000 0.43919  0.57100  0.02363  Biso   1.000  Cd
  Cd5      1.0000 0.10586  0.45263  0.42900  Biso   1.000  Cd
  Cd6      1.0000 0.77252  0.97637  0.54737  Biso   1.000  Cd
  H1       1.0000 0.84100  0.84440  0.08790  Biso   1.000  H
  H2       1.0000 0.02810  0.79270  0.06370  Biso   1.000  H
  H3       1.0000 0.05290  0.67460  0.03750  Biso   1.000  H
  H4       1.0000 0.62140  0.78190  0.98400  Biso   1.000  H
  H5       1.0000 0.42680  0.82060  0.99690  Biso   1.000  H
  H6       1.0000 0.42120  0.83650  0.19380  Biso   1.000  H
  H7       1.0000 0.60570  0.79450  0.17510  Biso   1.000  H
  H8       1.0000 0.67050  0.39230  0.90000  Biso   1.000  H
  H9       1.0000 0.61450  0.29990  0.77620  Biso   1.000  H
  H10      1.0000 0.96180  0.29750  0.79380  Biso   1.000  H
  H11      1.0000 0.74990  0.18320  0.67070  Biso   1.000  H
  H12      1.0000 0.88320  0.20520  0.66950  Biso   1.000  H
  H13      1.0000 0.68990  0.15880  0.55350  Biso   1.000  H
  H14      1.0000 0.65040  0.19750  0.47060  Biso   1.000  H
  H15      1.0000 0.78920  0.39370  0.61060  Biso   1.000  H
  H16      1.0000 0.83040  0.35600  0.69190  Biso   1.000  H
  H17      1.0000 0.64380  0.29150  0.43870  Biso   1.000  H
  H18      1.0000 0.66460  0.37290  0.50060  Biso   1.000  H
  H19      1.0000 0.84820  0.21900  0.36570  Biso   1.000  H
  H20      1.0000 0.02760  0.26650  0.34050  Biso   1.000  H
  H21      1.0000 0.85370  0.43240  0.49500  Biso   1.000  H
  H22      1.0000 0.50767  0.24350  0.15560  Biso   1.000  H
  H23      1.0000 0.69477  0.27100  0.20730  Biso   1.000  H
  H24      1.0000 0.71957  0.36290  0.32540  Biso   1.000  H
  H25      1.0000 0.28807  0.20210  0.21810  Biso   1.000  H
  H26      1.0000 0.09347  0.17630  0.17940  Biso   1.000  H
  H27      1.0000 0.08787  0.35730  0.16350  Biso   1.000  H
  H28      1.0000 0.27237  0.38060  0.20550  Biso   1.000  H
  H29      1.0000 0.33717  0.50770  0.60770  Biso   1.000  H
  H30      1.0000 0.28117  0.47630  0.70010  Biso   1.000  H
  H31      1.0000 0.62847  0.49630  0.70250  Biso   1.000  H
  H32      1.0000 0.41657  0.48750  0.81680  Biso   1.000  H
  H33      1.0000 0.54987  0.46430  0.79480  Biso   1.000  H
  H34      1.0000 0.35657  0.39470  0.84120  Biso   1.000  H
  H35      1.0000 0.31707  0.27310  0.80250  Biso   1.000  H
  H36      1.0000 0.45587  0.21690  0.60630  Biso   1.000  H
  H37      1.0000 0.49707  0.33590  0.64400  Biso   1.000  H
  H38      1.0000 0.31047  0.14720  0.70850  Biso   1.000  H
  H39      1.0000 0.33127  0.12770  0.62710  Biso   1.000  H
  H40      1.0000 0.51487  0.14670  0.78100  Biso   1.000  H
  H41      1.0000 0.69427  0.07400  0.73350  Biso   1.000  H
  H42      1.0000 0.52037  0.06260  0.56760  Biso   1.000  H
  H43      1.0000 0.17433  0.91210  0.75650  Biso   1.000  H
  H44      1.0000 0.36143  0.93630  0.72900  Biso   1.000  H
  H45      1.0000 0.38623  0.96250  0.63710  Biso   1.000  H
  H46      1.0000 0.95473  0.01600  0.79790  Biso   1.000  H
  H47      1.0000 0.76013  0.00310  0.82370  Biso   1.000  H
  H48      1.0000 0.75453  0.80620  0.64270  Biso   1.000  H
  H49      1.0000 0.93903  0.82490  0.61940  Biso   1.000  H
  H50      1.0000 0.00383  0.10000  0.49230  Biso   1.000  H
  H51      1.0000 0.94783  0.22380  0.52370  Biso   1.000  H
  H52      1.0000 0.29513  0.20620  0.50370  Biso   1.000  H
  H53      1.0000 0.08323  0.32930  0.51250  Biso   1.000  H
  H54      1.0000 0.21653  0.33050  0.53570  Biso   1.000  H
  H55      1.0000 0.02323  0.44650  0.60530  Biso   1.000  H
  H56      1.0000 0.98373  0.52940  0.72690  Biso   1.000  H
  H57      1.0000 0.12253  0.38940  0.78310  Biso   1.000  H
  H58      1.0000 0.16373  0.30810  0.66410  Biso   1.000  H
  H59      1.0000 0.97713  0.56130  0.85280  Biso   1.000  H
  H60      1.0000 0.99793  0.49940  0.87230  Biso   1.000  H
  H61      1.0000 0.18153  0.63430  0.85330  Biso   1.000  H
  H62      1.0000 0.36093  0.65950  0.92600  Biso   1.000  H
  H63      1.0000 0.18703  0.50500  0.93740  Biso   1.000  H
  H64      1.0000 0.34100  0.15560  0.91210  Biso   1.000  H
  H65      1.0000 0.52810  0.20730  0.93630  Biso   1.000  H
  H66      1.0000 0.55290  0.32540  0.96250  Biso   1.000  H
  H67      1.0000 0.12140  0.21810  0.01600  Biso   1.000  H
  H68      1.0000 0.92680  0.17940  0.00310  Biso   1.000  H
  H69      1.0000 0.92120  0.16350  0.80620  Biso   1.000  H
  H70      1.0000 0.10570  0.20550  0.82490  Biso   1.000  H
  H71      1.0000 0.17050  0.60770  0.10000  Biso   1.000  H
  H72      1.0000 0.11450  0.70010  0.22380  Biso   1.000  H
  H73      1.0000 0.46180  0.70250  0.20620  Biso   1.000  H
  H74      1.0000 0.24990  0.81680  0.32930  Biso   1.000  H
  H75      1.0000 0.38320  0.79480  0.33050  Biso   1.000  H
  H76      1.0000 0.18990  0.84120  0.44650  Biso   1.000  H
  H77      1.0000 0.15040  0.80250  0.52940  Biso   1.000  H
  H78      1.0000 0.28920  0.60630  0.38940  Biso   1.000  H
  H79      1.0000 0.33040  0.64400  0.30810  Biso   1.000  H
  H80      1.0000 0.14380  0.70850  0.56130  Biso   1.000  H
  H81      1.0000 0.16460  0.62710  0.49940  Biso   1.000  H
  H82      1.0000 0.34820  0.78100  0.63430  Biso   1.000  H
  H83      1.0000 0.52760  0.73350  0.65950  Biso   1.000  H
  H84      1.0000 0.35370  0.56760  0.50500  Biso   1.000  H
  H85      1.0000 0.00767  0.75650  0.84440  Biso   1.000  H
  H86      1.0000 0.19477  0.72900  0.79270  Biso   1.000  H
  H87      1.0000 0.21957  0.63710  0.67460  Biso   1.000  H
  H88      1.0000 0.78807  0.79790  0.78190  Biso   1.000  H
  H89      1.0000 0.59347  0.82370  0.82060  Biso   1.000  H
  H90      1.0000 0.58787  0.64270  0.83650  Biso   1.000  H
  H91      1.0000 0.77237  0.61940  0.79450  Biso   1.000  H
  H92      1.0000 0.83717  0.49230  0.39230  Biso   1.000  H
  H93      1.0000 0.78117  0.52370  0.29990  Biso   1.000  H
  H94      1.0000 0.12847  0.50370  0.29750  Biso   1.000  H
  H95      1.0000 0.91657  0.51250  0.18320  Biso   1.000  H
  H96      1.0000 0.04987  0.53570  0.20520  Biso   1.000  H
  H97      1.0000 0.85657  0.60530  0.15880  Biso   1.000  H
  H98      1.0000 0.81707  0.72690  0.19750  Biso   1.000  H
  H99      1.0000 0.95587  0.78310  0.39370  Biso   1.000  H
  H100     1.0000 0.99707  0.66410  0.35600  Biso   1.000  H
  H101     1.0000 0.81047  0.85280  0.29150  Biso   1.000  H
  H102     1.0000 0.83127  0.87230  0.37290  Biso   1.000  H
  H103     1.0000 0.01487  0.85330  0.21900  Biso   1.000  H
  H104     1.0000 0.19427  0.92600  0.26650  Biso   1.000  H
  H105     1.0000 0.02037  0.93740  0.43240  Biso   1.000  H
  H106     1.0000 0.67433  0.08790  0.24350  Biso   1.000  H
  H107     1.0000 0.86143  0.06370  0.27100  Biso   1.000  H
  H108     1.0000 0.88623  0.03750  0.36290  Biso   1.000  H
  H109     1.0000 0.45473  0.98400  0.20210  Biso   1.000  H
  H110     1.0000 0.26013  0.99690  0.17630  Biso   1.000  H
  H111     1.0000 0.25453  0.19380  0.35730  Biso   1.000  H
  H112     1.0000 0.43903  0.17510  0.38060  Biso   1.000  H
  H113     1.0000 0.50383  0.90000  0.50770  Biso   1.000  H
  H114     1.0000 0.44783  0.77620  0.47630  Biso   1.000  H
  H115     1.0000 0.79513  0.79380  0.49630  Biso   1.000  H
  H116     1.0000 0.58323  0.67070  0.48750  Biso   1.000  H
  H117     1.0000 0.71653  0.66950  0.46430  Biso   1.000  H
  H118     1.0000 0.52323  0.55350  0.39470  Biso   1.000  H
  H119     1.0000 0.48373  0.47060  0.27310  Biso   1.000  H
  H120     1.0000 0.62253  0.61060  0.21690  Biso   1.000  H
  H121     1.0000 0.66373  0.69190  0.33590  Biso   1.000  H
  H122     1.0000 0.47713  0.43870  0.14720  Biso   1.000  H
  H123     1.0000 0.49793  0.50060  0.12770  Biso   1.000  H
  H124     1.0000 0.68153  0.36570  0.14670  Biso   1.000  H
  H125     1.0000 0.86093  0.34050  0.07400  Biso   1.000  H
  H126     1.0000 0.68703  0.49500  0.06260  Biso   1.000  H
  C1       1.0000 0.89500  0.57110  0.01320  Biso   1.000  C
  C2       1.0000 0.65290  0.63660  0.03850  Biso   1.000  C
  C3       1.0000 0.87890  0.65000  0.03490  Biso   1.000  C
  C4       1.0000 0.76340  0.67960  0.04650  Biso   1.000  C
  C5       1.0000 0.75240  0.75330  0.06630  Biso   1.000  C
  C6       1.0000 0.85020  0.79520  0.07390  Biso   1.000  C
  C7       1.0000 0.96190  0.76480  0.06080  Biso   1.000  C
  C8       1.0000 0.97630  0.69390  0.04360  Biso   1.000  C
  C9       1.0000 0.57960  0.79220  0.02630  Biso   1.000  C
  C10      1.0000 0.46170  0.81550  0.03420  Biso   1.000  C
  C11      1.0000 0.39320  0.83160  0.09640  Biso   1.000  C
  C12      1.0000 0.45810  0.82420  0.14950  Biso   1.000  C
  C13      1.0000 0.56930  0.80050  0.13880  Biso   1.000  C
  C14      1.0000 0.72310  0.36190  0.86310  Biso   1.000  C
  C15      1.0000 0.69160  0.31110  0.79490  Biso   1.000  C
  C16      1.0000 0.88210  0.31050  0.80530  Biso   1.000  C
  C17      1.0000 0.80210  0.22380  0.68050  Biso   1.000  C
  C18      1.0000 0.76910  0.25240  0.63130  Biso   1.000  C
  C19      1.0000 0.71170  0.20580  0.56460  Biso   1.000  C
  C20      1.0000 0.68720  0.22930  0.51490  Biso   1.000  C
  C21      1.0000 0.71690  0.29930  0.53050  Biso   1.000  C
  C22      1.0000 0.77040  0.34600  0.59860  Biso   1.000  C
  C23      1.0000 0.79530  0.32350  0.64730  Biso   1.000  C
  C24      1.0000 0.69930  0.32420  0.47610  Biso   1.000  C
  C25      1.0000 0.87140  0.26790  0.38870  Biso   1.000  C
  C26      1.0000 0.97040  0.29430  0.37540  Biso   1.000  C
  C27      1.0000 0.87570  0.38520  0.45980  Biso   1.000  C
  C28      1.0000 0.56167  0.44210  0.42890  Biso   1.000  C
  C29      1.0000 0.31957  0.40190  0.36340  Biso   1.000  C
  C30      1.0000 0.54557  0.38490  0.35000  Biso   1.000  C
  C31      1.0000 0.43007  0.36690  0.32040  Biso   1.000  C
  C32      1.0000 0.41907  0.31300  0.24670  Biso   1.000  C
  C33      1.0000 0.51687  0.27870  0.20480  Biso   1.000  C
  C34      1.0000 0.62857  0.29600  0.23520  Biso   1.000  C
  C35      1.0000 0.64297  0.34970  0.30610  Biso   1.000  C
  C36      1.0000 0.24627  0.23410  0.20780  Biso   1.000  C
  C37      1.0000 0.12837  0.21870  0.18450  Biso   1.000  C
  C38      1.0000 0.05987  0.26480  0.16840  Biso   1.000  C
  C39      1.0000 0.12477  0.32530  0.17580  Biso   1.000  C
  C40      1.0000 0.23597  0.33830  0.19950  Biso   1.000  C
  C41      1.0000 0.38977  0.50120  0.63810  Biso   1.000  C
  C42      1.0000 0.35827  0.48380  0.68890  Biso   1.000  C
  C43      1.0000 0.54877  0.49480  0.68950  Biso   1.000  C
  C44      1.0000 0.46877  0.45670  0.77620  Biso   1.000  C
  C45      1.0000 0.43577  0.37890  0.74760  Biso   1.000  C
  C46      1.0000 0.37837  0.35880  0.79420  Biso   1.000  C
  C47      1.0000 0.35387  0.28560  0.77070  Biso   1.000  C
  C48      1.0000 0.38357  0.23120  0.70070  Biso   1.000  C
  C49      1.0000 0.43707  0.25260  0.65400  Biso   1.000  C
  C50      1.0000 0.46197  0.32380  0.67650  Biso   1.000  C
  C51      1.0000 0.36597  0.15190  0.67580  Biso   1.000  C
  C52      1.0000 0.53807  0.12080  0.73210  Biso   1.000  C
  C53      1.0000 0.63707  0.08110  0.70570  Biso   1.000  C
  C54      1.0000 0.54237  0.07460  0.61480  Biso   1.000  C
  C55      1.0000 0.22833  0.98680  0.55790  Biso   1.000  C
  C56      1.0000 0.98623  0.96150  0.59810  Biso   1.000  C
  C57      1.0000 0.21223  0.96510  0.61510  Biso   1.000  C
  C58      1.0000 0.09673  0.95350  0.63310  Biso   1.000  C
  C59      1.0000 0.08573  0.93370  0.68700  Biso   1.000  C
  C60      1.0000 0.18353  0.92610  0.72130  Biso   1.000  C
  C61      1.0000 0.29523  0.93920  0.70400  Biso   1.000  C
  C62      1.0000 0.30963  0.95640  0.65030  Biso   1.000  C
  C63      1.0000 0.91293  0.97370  0.76590  Biso   1.000  C
  C64      1.0000 0.79503  0.96580  0.78130  Biso   1.000  C
  C65      1.0000 0.72653  0.90360  0.73520  Biso   1.000  C
  C66      1.0000 0.79143  0.85050  0.67470  Biso   1.000  C
  C67      1.0000 0.90263  0.86120  0.66170  Biso   1.000  C
  C68      1.0000 0.05643  0.13690  0.49880  Biso   1.000  C
  C69      1.0000 0.02493  0.20510  0.51620  Biso   1.000  C
  C70      1.0000 0.21543  0.19470  0.50520  Biso   1.000  C
  C71      1.0000 0.13543  0.31950  0.54330  Biso   1.000  C
  C72      1.0000 0.10243  0.36870  0.62110  Biso   1.000  C
  C73      1.0000 0.04503  0.43540  0.64120  Biso   1.000  C
  C74      1.0000 0.02053  0.48510  0.71440  Biso   1.000  C
  C75      1.0000 0.05023  0.46950  0.76880  Biso   1.000  C
  C76      1.0000 0.10373  0.40140  0.74740  Biso   1.000  C
  C77      1.0000 0.12863  0.35270  0.67620  Biso   1.000  C
  C78      1.0000 0.03263  0.52390  0.84810  Biso   1.000  C
  C79      1.0000 0.20473  0.61130  0.87920  Biso   1.000  C
  C80      1.0000 0.30373  0.62460  0.91890  Biso   1.000  C
  C81      1.0000 0.20903  0.54020  0.92540  Biso   1.000  C
  C82      1.0000 0.39500  0.42890  0.98680  Biso   1.000  C
  C83      1.0000 0.15290  0.36340  0.96150  Biso   1.000  C
  C84      1.0000 0.37890  0.35000  0.96510  Biso   1.000  C
  C85      1.0000 0.26340  0.32040  0.95350  Biso   1.000  C
  C86      1.0000 0.25240  0.24670  0.93370  Biso   1.000  C
  C87      1.0000 0.35020  0.20480  0.92610  Biso   1.000  C
  C88      1.0000 0.46190  0.23520  0.93920  Biso   1.000  C
  C89      1.0000 0.47630  0.30610  0.95640  Biso   1.000  C
  C90      1.0000 0.07960  0.20780  0.97370  Biso   1.000  C
  C91      1.0000 0.96170  0.18450  0.96580  Biso   1.000  C
  C92      1.0000 0.89320  0.16840  0.90360  Biso   1.000  C
  C93      1.0000 0.95810  0.17580  0.85050  Biso   1.000  C
  C94      1.0000 0.06930  0.19950  0.86120  Biso   1.000  C
  C95      1.0000 0.22310  0.63810  0.13690  Biso   1.000  C
  C96      1.0000 0.19160  0.68890  0.20510  Biso   1.000  C
  C97      1.0000 0.38210  0.68950  0.19470  Biso   1.000  C
  C98      1.0000 0.30210  0.77620  0.31950  Biso   1.000  C
  C99      1.0000 0.26910  0.74760  0.36870  Biso   1.000  C
  C100     1.0000 0.21170  0.79420  0.43540  Biso   1.000  C
  C101     1.0000 0.18720  0.77070  0.48510  Biso   1.000  C
  C102     1.0000 0.21690  0.70070  0.46950  Biso   1.000  C
  C103     1.0000 0.27040  0.65400  0.40140  Biso   1.000  C
  C104     1.0000 0.29530  0.67650  0.35270  Biso   1.000  C
  C105     1.0000 0.19930  0.67580  0.52390  Biso   1.000  C
  C106     1.0000 0.37140  0.73210  0.61130  Biso   1.000  C
  C107     1.0000 0.47040  0.70570  0.62460  Biso   1.000  C
  C108     1.0000 0.37570  0.61480  0.54020  Biso   1.000  C
  C109     1.0000 0.06167  0.55790  0.57110  Biso   1.000  C
  C110     1.0000 0.81957  0.59810  0.63660  Biso   1.000  C
  C111     1.0000 0.04557  0.61510  0.65000  Biso   1.000  C
  C112     1.0000 0.93007  0.63310  0.67960  Biso   1.000  C
  C113     1.0000 0.91907  0.68700  0.75330  Biso   1.000  C
  C114     1.0000 0.01687  0.72130  0.79520  Biso   1.000  C
  C115     1.0000 0.12857  0.70400  0.76480  Biso   1.000  C
  C116     1.0000 0.14297  0.65030  0.69390  Biso   1.000  C
  C117     1.0000 0.74627  0.76590  0.79220  Biso   1.000  C
  C118     1.0000 0.62837  0.78130  0.81550  Biso   1.000  C
  C119     1.0000 0.55987  0.73520  0.83160  Biso   1.000  C
  C120     1.0000 0.62477  0.67470  0.82420  Biso   1.000  C
  C121     1.0000 0.73597  0.66170  0.80050  Biso   1.000  C
  C122     1.0000 0.88977  0.49880  0.36190  Biso   1.000  C
  C123     1.0000 0.85827  0.51620  0.31110  Biso   1.000  C
  C124     1.0000 0.04877  0.50520  0.31050  Biso   1.000  C
  C125     1.0000 0.96877  0.54330  0.22380  Biso   1.000  C
  C126     1.0000 0.93577  0.62110  0.25240  Biso   1.000  C
  C127     1.0000 0.87837  0.64120  0.20580  Biso   1.000  C
  C128     1.0000 0.85387  0.71440  0.22930  Biso   1.000  C
  C129     1.0000 0.88357  0.76880  0.29930  Biso   1.000  C
  C130     1.0000 0.93707  0.74740  0.34600  Biso   1.000  C
  C131     1.0000 0.96197  0.67620  0.32350  Biso   1.000  C
  C132     1.0000 0.86597  0.84810  0.32420  Biso   1.000  C
  C133     1.0000 0.03807  0.87920  0.26790  Biso   1.000  C
  C134     1.0000 0.13707  0.91890  0.29430  Biso   1.000  C
  C135     1.0000 0.04237  0.92540  0.38520  Biso   1.000  C
  C136     1.0000 0.72833  0.01320  0.44210  Biso   1.000  C
  C137     1.0000 0.48623  0.03850  0.40190  Biso   1.000  C
  C138     1.0000 0.71223  0.03490  0.38490  Biso   1.000  C
  C139     1.0000 0.59673  0.04650  0.36690  Biso   1.000  C
  C140     1.0000 0.58573  0.06630  0.31300  Biso   1.000  C
  C141     1.0000 0.68353  0.07390  0.27870  Biso   1.000  C
  C142     1.0000 0.79523  0.06080  0.29600  Biso   1.000  C
  C143     1.0000 0.80963  0.04360  0.34970  Biso   1.000  C
  C144     1.0000 0.41293  0.02630  0.23410  Biso   1.000  C
  C145     1.0000 0.29503  0.03420  0.21870  Biso   1.000  C
  C146     1.0000 0.22653  0.09640  0.26480  Biso   1.000  C
  C147     1.0000 0.29143  0.14950  0.32530  Biso   1.000  C
  C148     1.0000 0.40263  0.13880  0.33830  Biso   1.000  C
  C149     1.0000 0.55643  0.86310  0.50120  Biso   1.000  C
  C150     1.0000 0.52493  0.79490  0.48380  Biso   1.000  C
  C151     1.0000 0.71543  0.80530  0.49480  Biso   1.000  C
  C152     1.0000 0.63543  0.68050  0.45670  Biso   1.000  C
  C153     1.0000 0.60243  0.63130  0.37890  Biso   1.000  C
  C154     1.0000 0.54503  0.56460  0.35880  Biso   1.000  C
  C155     1.0000 0.52053  0.51490  0.28560  Biso   1.000  C
  C156     1.0000 0.55023  0.53050  0.23120  Biso   1.000  C
  C157     1.0000 0.60373  0.59860  0.25260  Biso   1.000  C
  C158     1.0000 0.62863  0.64730  0.32380  Biso   1.000  C
  C159     1.0000 0.53263  0.47610  0.15190  Biso   1.000  C
  C160     1.0000 0.70473  0.38870  0.12080  Biso   1.000  C
  C161     1.0000 0.80373  0.37540  0.08110  Biso   1.000  C
  C162     1.0000 0.70903  0.45980  0.07460  Biso   1.000  C
  N1       1.0000 0.84600  0.36200  0.87000  Biso   1.000  N
  N2       1.0000 0.79420  0.27910  0.75840  Biso   1.000  N
  N3       1.0000 0.81110  0.32570  0.44180  Biso   1.000  N
  N4       1.0000 0.97510  0.36880  0.42120  Biso   1.000  N
  N5       1.0000 0.63370  0.78430  0.07810  Biso   1.000  N
  N6       1.0000 0.51267  0.50800  0.63800  Biso   1.000  N
  N7       1.0000 0.46087  0.47930  0.72090  Biso   1.000  N
  N8       1.0000 0.47777  0.11610  0.67430  Biso   1.000  N
  N9       1.0000 0.64177  0.05240  0.63120  Biso   1.000  N
  N10      1.0000 0.30037  0.29380  0.21570  Biso   1.000  N
  N11      1.0000 0.17933  0.13000  0.49200  Biso   1.000  N
  N12      1.0000 0.12753  0.24160  0.52070  Biso   1.000  N
  N13      1.0000 0.14443  0.55820  0.88390  Biso   1.000  N
  N14      1.0000 0.30843  0.57880  0.94760  Biso   1.000  N
  N15      1.0000 0.96703  0.92190  0.70620  Biso   1.000  N
  N16      1.0000 0.34600  0.63800  0.13000  Biso   1.000  N
  N17      1.0000 0.29420  0.72090  0.24160  Biso   1.000  N
  N18      1.0000 0.31110  0.67430  0.55820  Biso   1.000  N
  N19      1.0000 0.47510  0.63120  0.57880  Biso   1.000  N
  N20      1.0000 0.13370  0.21570  0.92190  Biso   1.000  N
  N21      1.0000 0.01267  0.49200  0.36200  Biso   1.000  N
  N22      1.0000 0.96087  0.52070  0.27910  Biso   1.000  N
  N23      1.0000 0.97777  0.88390  0.32570  Biso   1.000  N
  N24      1.0000 0.14177  0.94760  0.36880  Biso   1.000  N
  N25      1.0000 0.80037  0.70620  0.78430  Biso   1.000  N
  N26      1.0000 0.67933  0.87000  0.50800  Biso   1.000  N
  N27      1.0000 0.62753  0.75840  0.47930  Biso   1.000  N
  N28      1.0000 0.64443  0.44180  0.11610  Biso   1.000  N
  N29      1.0000 0.80843  0.42120  0.05240  Biso   1.000  N
  N30      1.0000 0.46703  0.07810  0.29380  Biso   1.000  N
  O1       1.0000 0.99430  0.54920  0.02300  Biso   1.000  O
  O2       1.0000 0.81040  0.52780  0.98310  Biso   1.000  O
  O3       1.0000 0.62460  0.62590  0.08980  Biso   1.000  O
  O4       1.0000 0.59050  0.61670  0.98230  Biso   1.000  O
  O5       1.0000 0.28560  0.85070  0.10120  Biso   1.000  O
  O6       1.0000 0.66097  0.47380  0.45080  Biso   1.000  O
  O7       1.0000 0.47707  0.45530  0.47220  Biso   1.000  O
  O8       1.0000 0.29127  0.46390  0.37410  Biso   1.000  O
  O9       1.0000 0.25717  0.36560  0.38330  Biso   1.000  O
  O10      1.0000 0.95227  0.25050  0.14930  Biso   1.000  O
  O11      1.0000 0.32763  0.97700  0.52620  Biso   1.000  O
  O12      1.0000 0.14373  0.01690  0.54470  Biso   1.000  O
  O13      1.0000 0.95793  0.91020  0.53610  Biso   1.000  O
  O14      1.0000 0.92383  0.01770  0.63440  Biso   1.000  O
  O15      1.0000 0.61893  0.89880  0.74950  Biso   1.000  O
  O16      1.0000 0.49430  0.45080  0.97700  Biso   1.000  O
  O17      1.0000 0.31040  0.47220  0.01690  Biso   1.000  O
  O18      1.0000 0.12460  0.37410  0.91020  Biso   1.000  O
  O19      1.0000 0.09050  0.38330  0.01770  Biso   1.000  O
  O20      1.0000 0.78560  0.14930  0.89880  Biso   1.000  O
  O21      1.0000 0.16097  0.52620  0.54920  Biso   1.000  O
  O22      1.0000 0.97707  0.54470  0.52780  Biso   1.000  O
  O23      1.0000 0.79127  0.53610  0.62590  Biso   1.000  O
  O24      1.0000 0.75717  0.63440  0.61670  Biso   1.000  O
  O25      1.0000 0.45227  0.74950  0.85070  Biso   1.000  O
  O26      1.0000 0.82763  0.02300  0.47380  Biso   1.000  O
  O27      1.0000 0.64373  0.98310  0.45530  Biso   1.000  O
  O28      1.0000 0.45793  0.08980  0.46390  Biso   1.000  O
  O29      1.0000 0.42383  0.98230  0.36560  Biso   1.000  O
  O30      1.0000 0.11893  0.10120  0.25050  Biso   1.000  O
