data_image0
_cell_length_a       11.4932
_cell_length_b       11.6132
_cell_length_c       11.8182
_cell_angle_alpha    65.275
_cell_angle_beta     81.174
_cell_angle_gamma    72.752

_symmetry_space_group_name_H-M    P 1
_symmetry_int_tables_number       1

loop_
  _symmetry_equiv_pos_as_xyz
  'x, y, z'

loop_
  _atom_site_label
  _atom_site_occupancy
  _atom_site_fract_x
  _atom_site_fract_y
  _atom_site_fract_z
  _atom_site_thermal_displace_type
  _atom_site_B_iso_or_equiv
  _atom_site_type_symbol
  Co1      1.0000 0.00000  0.00000  0.50000  Biso   1.000  Co
  Co2      1.0000 0.00000  0.50000  0.50000  Biso   1.000  Co
  Co3      1.0000 0.00000  0.00000  0.00000  Biso   1.000  Co
  H1       1.0000 0.04400  0.66230  0.17950  Biso   1.000  H
  H2       1.0000 0.83510  0.27560  0.36820  Biso   1.000  H
  H3       1.0000 0.63730  0.40130  0.37080  Biso   1.000  H
  H4       1.0000 0.57880  0.11820  0.70250  Biso   1.000  H
  H5       1.0000 0.77990  0.00130  0.69150  Biso   1.000  H
  H6       1.0000 0.20460  0.36880  0.70460  Biso   1.000  H
  H7       1.0000 0.41280  0.27460  0.71860  Biso   1.000  H
  H8       1.0000 0.44370  0.44470  0.34430  Biso   1.000  H
  H9       1.0000 0.23470  0.53190  0.34120  Biso   1.000  H
  H10      1.0000 0.84170  0.81780  0.01990  Biso   1.000  H
  H11      1.0000 0.64360  0.80930  0.02490  Biso   1.000  H
  H12      1.0000 0.53650  0.19450  0.96010  Biso   1.000  H
  H13      1.0000 0.74030  0.19070  0.95430  Biso   1.000  H
  H14      1.0000 0.95600  0.33770  0.82050  Biso   1.000  H
  H15      1.0000 0.16490  0.72440  0.63180  Biso   1.000  H
  H16      1.0000 0.36270  0.59870  0.62920  Biso   1.000  H
  H17      1.0000 0.42120  0.88180  0.29750  Biso   1.000  H
  H18      1.0000 0.22010  0.99870  0.30850  Biso   1.000  H
  H19      1.0000 0.79540  0.63120  0.29540  Biso   1.000  H
  H20      1.0000 0.58720  0.72540  0.28140  Biso   1.000  H
  H21      1.0000 0.55630  0.55530  0.65570  Biso   1.000  H
  H22      1.0000 0.76530  0.46810  0.65880  Biso   1.000  H
  H23      1.0000 0.15830  0.18220  0.98010  Biso   1.000  H
  H24      1.0000 0.35640  0.19070  0.97510  Biso   1.000  H
  H25      1.0000 0.46350  0.80550  0.03990  Biso   1.000  H
  H26      1.0000 0.25970  0.80930  0.04570  Biso   1.000  H
  C1       1.0000 0.02360  0.71660  0.22520  Biso   1.000  C
  C2       1.0000 0.98150  0.88740  0.26850  Biso   1.000  C
  C3       1.0000 0.97840  0.77800  0.37810  Biso   1.000  C
  C4       1.0000 0.94870  0.75550  0.51090  Biso   1.000  C
  C5       1.0000 0.96190  0.02920  0.23520  Biso   1.000  C
  C6       1.0000 0.78190  0.24260  0.43670  Biso   1.000  C
  C7       1.0000 0.66360  0.31850  0.43740  Biso   1.000  C
  C8       1.0000 0.58420  0.27290  0.53560  Biso   1.000  C
  C9       1.0000 0.62970  0.15240  0.63220  Biso   1.000  C
  C10      1.0000 0.75010  0.08270  0.62460  Biso   1.000  C
  C11      1.0000 0.25340  0.38220  0.62990  Biso   1.000  C
  C12      1.0000 0.37830  0.32540  0.63900  Biso   1.000  C
  C13      1.0000 0.45230  0.34280  0.53260  Biso   1.000  C
  C14      1.0000 0.39640  0.42470  0.42010  Biso   1.000  C
  C15      1.0000 0.27120  0.47680  0.41930  Biso   1.000  C
  C16      1.0000 0.77850  0.89580  0.00820  Biso   1.000  C
  C17      1.0000 0.66020  0.88940  0.01210  Biso   1.000  C
  C18      1.0000 0.56470  0.00150  0.99700  Biso   1.000  C
  C19      1.0000 0.59750  0.11460  0.97380  Biso   1.000  C
  C20      1.0000 0.72000  0.11160  0.97060  Biso   1.000  C
  C21      1.0000 0.97640  0.28340  0.77480  Biso   1.000  C
  C22      1.0000 0.01850  0.11260  0.73150  Biso   1.000  C
  C23      1.0000 0.02160  0.22200  0.62190  Biso   1.000  C
  C24      1.0000 0.05130  0.24450  0.48910  Biso   1.000  C
  C25      1.0000 0.03810  0.97080  0.76480  Biso   1.000  C
  C26      1.0000 0.21810  0.75740  0.56330  Biso   1.000  C
  C27      1.0000 0.33640  0.68150  0.56260  Biso   1.000  C
  C28      1.0000 0.41580  0.72710  0.46440  Biso   1.000  C
  C29      1.0000 0.37030  0.84760  0.36780  Biso   1.000  C
  C30      1.0000 0.24990  0.91730  0.37540  Biso   1.000  C
  C31      1.0000 0.74660  0.61780  0.37010  Biso   1.000  C
  C32      1.0000 0.62170  0.67460  0.36100  Biso   1.000  C
  C33      1.0000 0.54770  0.65720  0.46740  Biso   1.000  C
  C34      1.0000 0.60360  0.57530  0.57990  Biso   1.000  C
  C35      1.0000 0.72880  0.52320  0.58070  Biso   1.000  C
  C36      1.0000 0.22150  0.10420  0.99180  Biso   1.000  C
  C37      1.0000 0.33980  0.11060  0.98790  Biso   1.000  C
  C38      1.0000 0.43530  0.99850  0.00300  Biso   1.000  C
  C39      1.0000 0.40250  0.88540  0.02620  Biso   1.000  C
  C40      1.0000 0.28000  0.88840  0.02940  Biso   1.000  C
  N1       1.0000 0.00570  0.66980  0.34800  Biso   1.000  N
  N2       1.0000 0.01040  0.84570  0.17120  Biso   1.000  N
  N3       1.0000 0.82580  0.12500  0.52760  Biso   1.000  N
  N4       1.0000 0.19900  0.45430  0.52150  Biso   1.000  N
  N5       1.0000 0.81020  0.00250  0.98940  Biso   1.000  N
  N6       1.0000 0.99430  0.33020  0.65200  Biso   1.000  N
  N7       1.0000 0.98960  0.15430  0.82880  Biso   1.000  N
  N8       1.0000 0.17420  0.87500  0.47240  Biso   1.000  N
  N9       1.0000 0.80100  0.54570  0.47850  Biso   1.000  N
  N10      1.0000 0.18980  0.99750  0.01060  Biso   1.000  N
  O1       1.0000 0.95820  0.07530  0.31380  Biso   1.000  O
  O2       1.0000 0.95170  0.10170  0.11900  Biso   1.000  O
  O3       1.0000 0.91860  0.84900  0.54580  Biso   1.000  O
  O4       1.0000 0.95450  0.63770  0.58470  Biso   1.000  O
  O5       1.0000 0.04180  0.92470  0.68620  Biso   1.000  O
  O6       1.0000 0.04830  0.89830  0.88100  Biso   1.000  O
  O7       1.0000 0.08140  0.15100  0.45420  Biso   1.000  O
  O8       1.0000 0.04550  0.36230  0.41530  Biso   1.000  O
