data_KAVJAT_charged
_audit_creation_date              2014-07-02
_audit_creation_method            'Materials Studio'
_symmetry_space_group_name_H-M    'P1'
_symmetry_Int_Tables_number       1
_symmetry_cell_setting            triclinic
loop_
_symmetry_equiv_pos_as_xyz
  x,y,z
_cell_length_a                    23.4069
_cell_length_b                    23.4069
_cell_length_c                    23.4069
_cell_angle_alpha                 109.4710
_cell_angle_beta                  109.4710
_cell_angle_gamma                 109.4710
loop_
_atom_site_label
_atom_site_type_symbol
_atom_site_fract_x
_atom_site_fract_y
_atom_site_fract_z
_atom_site_U_iso_or_equiv
_atom_site_adp_type
_atom_site_occupancy
Pr1    Pr    0.16960   0.16960   0.66960   0.01267  Uiso   1.00
Pr2    Pr    0.00000   0.50000   0.83040   0.01267  Uiso   1.00
Pr3    Pr    0.50000   0.33040   0.50000   0.01267  Uiso   1.00
Pr4    Pr    0.33040   0.00000   0.00000   0.01267  Uiso   1.00
Pr5    Pr    0.83040   0.83040   0.33040   0.01267  Uiso   1.00
Pr6    Pr    0.00000   0.50000   0.16960   0.01267  Uiso   1.00
Pr7    Pr    0.50000   0.66960   0.50000   0.01267  Uiso   1.00
Pr8    Pr    0.66960   0.00000   0.00000   0.01267  Uiso   1.00
Pr9    Pr    0.50000   0.00000   0.00000   0.01267  Uiso   1.00
Pr10   Pr    0.50000   0.50000   0.50000   0.01267  Uiso   1.00
Pr11   Pr    0.00000   0.50000   0.00000   0.01267  Uiso   1.00
Pr12   Pr    0.00000   0.00000   0.50000   0.01267  Uiso   1.00
H1     H     0.37980   0.13740   0.94880   0.01267  Uiso   1.00
H2     H     0.68860   0.43100   0.55120   0.01267  Uiso   1.00
H3     H     0.81140   0.36260   0.74240   0.01267  Uiso   1.00
H4     H     0.12020   0.06900   0.75760   0.01267  Uiso   1.00
H5     H     0.24240   0.81140   0.86260   0.01267  Uiso   1.00
H6     H     0.25760   0.12020   0.56900   0.01267  Uiso   1.00
H7     H     0.44880   0.37980   0.63740   0.01267  Uiso   1.00
H8     H     0.05120   0.68860   0.93100   0.01267  Uiso   1.00
H9     H     0.43100   0.05120   0.18860   0.01267  Uiso   1.00
H10    H     0.13740   0.44880   0.87980   0.01267  Uiso   1.00
H11    H     0.06900   0.25760   0.62020   0.01267  Uiso   1.00
H12    H     0.36260   0.24240   0.31140   0.01267  Uiso   1.00
H13    H     0.62020   0.86260   0.05120   0.01267  Uiso   1.00
H14    H     0.31140   0.56900   0.44880   0.01267  Uiso   1.00
H15    H     0.18860   0.63740   0.25760   0.01267  Uiso   1.00
H16    H     0.87980   0.93100   0.24240   0.01267  Uiso   1.00
H17    H     0.75760   0.18860   0.13740   0.01267  Uiso   1.00
H18    H     0.74240   0.87980   0.43100   0.01267  Uiso   1.00
H19    H     0.55120   0.62020   0.36260   0.01267  Uiso   1.00
H20    H     0.94880   0.31140   0.06900   0.01267  Uiso   1.00
H21    H     0.56900   0.94880   0.81140   0.01267  Uiso   1.00
H22    H     0.86260   0.55120   0.12020   0.01267  Uiso   1.00
H23    H     0.93100   0.74240   0.37980   0.01267  Uiso   1.00
H24    H     0.63740   0.75760   0.68860   0.01267  Uiso   1.00
C1     C     0.26830   0.14180   0.75230   0.01267  Uiso   1.00
C2     C     0.31120   0.12060   0.79500   0.01267  Uiso   1.00
C3     C     0.32380   0.06760   0.76080   0.01267  Uiso   1.00
C4     C     0.36080   0.04500   0.79980   0.01267  Uiso   1.00
C5     C     0.38130   0.07060   0.87090   0.01267  Uiso   1.00
C6     C     0.41500   0.04200   0.91020   0.01267  Uiso   1.00
C7     C     0.36730   0.12080   0.90190   0.01267  Uiso   1.00
C8     C     0.33490   0.14840   0.86590   0.01267  Uiso   1.00
C9     C     0.88950   0.51600   0.74770   0.01267  Uiso   1.00
C10    C     0.82560   0.51620   0.70500   0.01267  Uiso   1.00
C11    C     0.80680   0.56300   0.73920   0.01267  Uiso   1.00
C12    C     0.74520   0.56100   0.70020   0.01267  Uiso   1.00
C13    C     0.69970   0.51040   0.62910   0.01267  Uiso   1.00
C14    C     0.63180   0.50480   0.58980   0.01267  Uiso   1.00
C15    C     0.71890   0.46540   0.59810   0.01267  Uiso   1.00
C16    C     0.78250   0.46900   0.63410   0.01267  Uiso   1.00
C17    C     0.61050   0.35820   0.62650   0.01267  Uiso   1.00
C18    C     0.67440   0.37940   0.69060   0.01267  Uiso   1.00
C19    C     0.69320   0.43240   0.75620   0.01267  Uiso   1.00
C20    C     0.75480   0.45500   0.81580   0.01267  Uiso   1.00
C21    C     0.80030   0.42940   0.81070   0.01267  Uiso   1.00
C22    C     0.86820   0.45800   0.87300   0.01267  Uiso   1.00
C23    C     0.78110   0.37920   0.74650   0.01267  Uiso   1.00
C24    C     0.71750   0.35160   0.68650   0.01267  Uiso   1.00
C25    C     0.23170   0.98400   0.87350   0.01267  Uiso   1.00
C26    C     0.18880   0.98380   0.80940   0.01267  Uiso   1.00
C27    C     0.17620   0.93700   0.74380   0.01267  Uiso   1.00
C28    C     0.13920   0.93900   0.68420   0.01267  Uiso   1.00
C29    C     0.11870   0.98960   0.68930   0.01267  Uiso   1.00
C30    C     0.08500   0.99520   0.62700   0.01267  Uiso   1.00
C31    C     0.13270   0.03460   0.75350   0.01267  Uiso   1.00
C32    C     0.16510   0.03100   0.81350   0.01267  Uiso   1.00
C33    C     0.12650   0.61050   0.85820   0.01267  Uiso   1.00
C34    C     0.19060   0.67440   0.87940   0.01267  Uiso   1.00
C35    C     0.25620   0.69320   0.93240   0.01267  Uiso   1.00
C36    C     0.31580   0.75480   0.95500   0.01267  Uiso   1.00
C37    C     0.31070   0.80030   0.92940   0.01267  Uiso   1.00
C38    C     0.37300   0.86820   0.95800   0.01267  Uiso   1.00
C39    C     0.24650   0.78110   0.87920   0.01267  Uiso   1.00
C40    C     0.18650   0.71750   0.85160   0.01267  Uiso   1.00
C41    C     0.37350   0.23170   0.48400   0.01267  Uiso   1.00
C42    C     0.30940   0.18880   0.48380   0.01267  Uiso   1.00
C43    C     0.24380   0.17620   0.43700   0.01267  Uiso   1.00
C44    C     0.18420   0.13920   0.43900   0.01267  Uiso   1.00
C45    C     0.18930   0.11870   0.48960   0.01267  Uiso   1.00
C46    C     0.12700   0.08500   0.49520   0.01267  Uiso   1.00
C47    C     0.25350   0.13270   0.53460   0.01267  Uiso   1.00
C48    C     0.31350   0.16510   0.53100   0.01267  Uiso   1.00
C49    C     0.25230   0.26830   0.64180   0.01267  Uiso   1.00
C50    C     0.29500   0.31120   0.62060   0.01267  Uiso   1.00
C51    C     0.26080   0.32380   0.56760   0.01267  Uiso   1.00
C52    C     0.29980   0.36080   0.54500   0.01267  Uiso   1.00
C53    C     0.37090   0.38130   0.57060   0.01267  Uiso   1.00
C54    C     0.41020   0.41500   0.54200   0.01267  Uiso   1.00
C55    C     0.40190   0.36730   0.62080   0.01267  Uiso   1.00
C56    C     0.36590   0.33490   0.64840   0.01267  Uiso   1.00
C57    C     0.24770   0.88950   0.01600   0.01267  Uiso   1.00
C58    C     0.20500   0.82560   0.01620   0.01267  Uiso   1.00
C59    C     0.23920   0.80680   0.06300   0.01267  Uiso   1.00
C60    C     0.20020   0.74520   0.06100   0.01267  Uiso   1.00
C61    C     0.12910   0.69970   0.01040   0.01267  Uiso   1.00
C62    C     0.08980   0.63180   0.00480   0.01267  Uiso   1.00
C63    C     0.09810   0.71890   0.96540   0.01267  Uiso   1.00
C64    C     0.13410   0.78250   0.96900   0.01267  Uiso   1.00
C65    C     0.51600   0.24770   0.38950   0.01267  Uiso   1.00
C66    C     0.51620   0.20500   0.32560   0.01267  Uiso   1.00
C67    C     0.56300   0.23920   0.30680   0.01267  Uiso   1.00
C68    C     0.56100   0.20020   0.24520   0.01267  Uiso   1.00
C69    C     0.51040   0.12910   0.19970   0.01267  Uiso   1.00
C70    C     0.50480   0.08980   0.13180   0.01267  Uiso   1.00
C71    C     0.46540   0.09810   0.21890   0.01267  Uiso   1.00
C72    C     0.46900   0.13410   0.28250   0.01267  Uiso   1.00
C73    C     0.14180   0.25230   0.76830   0.01267  Uiso   1.00
C74    C     0.12060   0.29500   0.81120   0.01267  Uiso   1.00
C75    C     0.06760   0.26080   0.82380   0.01267  Uiso   1.00
C76    C     0.04500   0.29980   0.86080   0.01267  Uiso   1.00
C77    C     0.07060   0.37090   0.88130   0.01267  Uiso   1.00
C78    C     0.04200   0.41020   0.91500   0.01267  Uiso   1.00
C79    C     0.12080   0.40190   0.86730   0.01267  Uiso   1.00
C80    C     0.14840   0.36590   0.83490   0.01267  Uiso   1.00
C81    C     0.98400   0.37350   0.73170   0.01267  Uiso   1.00
C82    C     0.98380   0.30940   0.68880   0.01267  Uiso   1.00
C83    C     0.93700   0.24380   0.67620   0.01267  Uiso   1.00
C84    C     0.93900   0.18420   0.63920   0.01267  Uiso   1.00
C85    C     0.98960   0.18930   0.61870   0.01267  Uiso   1.00
C86    C     0.99520   0.12700   0.58500   0.01267  Uiso   1.00
C87    C     0.03460   0.25350   0.63270   0.01267  Uiso   1.00
C88    C     0.03100   0.31350   0.66510   0.01267  Uiso   1.00
C89    C     0.35820   0.12650   0.11050   0.01267  Uiso   1.00
C90    C     0.37940   0.19060   0.17440   0.01267  Uiso   1.00
C91    C     0.43240   0.25620   0.19320   0.01267  Uiso   1.00
C92    C     0.45500   0.31580   0.25480   0.01267  Uiso   1.00
C93    C     0.42940   0.31070   0.30030   0.01267  Uiso   1.00
C94    C     0.45800   0.37300   0.36820   0.01267  Uiso   1.00
C95    C     0.37920   0.24650   0.28110   0.01267  Uiso   1.00
C96    C     0.35160   0.18650   0.21750   0.01267  Uiso   1.00
C97    C     0.73170   0.85820   0.24770   0.01267  Uiso   1.00
C98    C     0.68880   0.87940   0.20500   0.01267  Uiso   1.00
C99    C     0.67620   0.93240   0.23920   0.01267  Uiso   1.00
C100   C     0.63920   0.95500   0.20020   0.01267  Uiso   1.00
C101   C     0.61870   0.92940   0.12910   0.01267  Uiso   1.00
C102   C     0.58500   0.95800   0.08980   0.01267  Uiso   1.00
C103   C     0.63270   0.87920   0.09810   0.01267  Uiso   1.00
C104   C     0.66510   0.85160   0.13410   0.01267  Uiso   1.00
C105   C     0.11050   0.48400   0.25230   0.01267  Uiso   1.00
C106   C     0.17440   0.48380   0.29500   0.01267  Uiso   1.00
C107   C     0.19320   0.43700   0.26080   0.01267  Uiso   1.00
C108   C     0.25480   0.43900   0.29980   0.01267  Uiso   1.00
C109   C     0.30030   0.48960   0.37090   0.01267  Uiso   1.00
C110   C     0.36820   0.49520   0.41020   0.01267  Uiso   1.00
C111   C     0.28110   0.53460   0.40190   0.01267  Uiso   1.00
C112   C     0.21750   0.53100   0.36590   0.01267  Uiso   1.00
C113   C     0.38950   0.64180   0.37350   0.01267  Uiso   1.00
C114   C     0.32560   0.62060   0.30940   0.01267  Uiso   1.00
C115   C     0.30680   0.56760   0.24380   0.01267  Uiso   1.00
C116   C     0.24520   0.54500   0.18420   0.01267  Uiso   1.00
C117   C     0.19970   0.57060   0.18930   0.01267  Uiso   1.00
C118   C     0.13180   0.54200   0.12700   0.01267  Uiso   1.00
C119   C     0.21890   0.62080   0.25350   0.01267  Uiso   1.00
C120   C     0.28250   0.64840   0.31350   0.01267  Uiso   1.00
C121   C     0.76830   0.01600   0.12650   0.01267  Uiso   1.00
C122   C     0.81120   0.01620   0.19060   0.01267  Uiso   1.00
C123   C     0.82380   0.06300   0.25620   0.01267  Uiso   1.00
C124   C     0.86080   0.06100   0.31580   0.01267  Uiso   1.00
C125   C     0.88130   0.01040   0.31070   0.01267  Uiso   1.00
C126   C     0.91500   0.00480   0.37300   0.01267  Uiso   1.00
C127   C     0.86730   0.96540   0.24650   0.01267  Uiso   1.00
C128   C     0.83490   0.96900   0.18650   0.01267  Uiso   1.00
C129   C     0.87350   0.38950   0.14180   0.01267  Uiso   1.00
C130   C     0.80940   0.32560   0.12060   0.01267  Uiso   1.00
C131   C     0.74380   0.30680   0.06760   0.01267  Uiso   1.00
C132   C     0.68420   0.24520   0.04500   0.01267  Uiso   1.00
C133   C     0.68930   0.19970   0.07060   0.01267  Uiso   1.00
C134   C     0.62700   0.13180   0.04200   0.01267  Uiso   1.00
C135   C     0.75350   0.21890   0.12080   0.01267  Uiso   1.00
C136   C     0.81350   0.28250   0.14840   0.01267  Uiso   1.00
C137   C     0.62650   0.76830   0.51600   0.01267  Uiso   1.00
C138   C     0.69060   0.81120   0.51620   0.01267  Uiso   1.00
C139   C     0.75620   0.82380   0.56300   0.01267  Uiso   1.00
C140   C     0.81580   0.86080   0.56100   0.01267  Uiso   1.00
C141   C     0.81070   0.88130   0.51040   0.01267  Uiso   1.00
C142   C     0.87300   0.91500   0.50480   0.01267  Uiso   1.00
C143   C     0.74650   0.86730   0.46540   0.01267  Uiso   1.00
C144   C     0.68650   0.83490   0.46900   0.01267  Uiso   1.00
C145   C     0.74770   0.73170   0.35820   0.01267  Uiso   1.00
C146   C     0.70500   0.68880   0.37940   0.01267  Uiso   1.00
C147   C     0.73920   0.67620   0.43240   0.01267  Uiso   1.00
C148   C     0.70020   0.63920   0.45500   0.01267  Uiso   1.00
C149   C     0.62910   0.61870   0.42940   0.01267  Uiso   1.00
C150   C     0.58980   0.58500   0.45800   0.01267  Uiso   1.00
C151   C     0.59810   0.63270   0.37920   0.01267  Uiso   1.00
C152   C     0.63410   0.66510   0.35160   0.01267  Uiso   1.00
C153   C     0.75230   0.11050   0.98400   0.01267  Uiso   1.00
C154   C     0.79500   0.17440   0.98380   0.01267  Uiso   1.00
C155   C     0.76080   0.19320   0.93700   0.01267  Uiso   1.00
C156   C     0.79980   0.25480   0.93900   0.01267  Uiso   1.00
C157   C     0.87090   0.30030   0.98960   0.01267  Uiso   1.00
C158   C     0.91020   0.36820   0.99520   0.01267  Uiso   1.00
C159   C     0.90190   0.28110   0.03460   0.01267  Uiso   1.00
C160   C     0.86590   0.21750   0.03100   0.01267  Uiso   1.00
C161   C     0.48400   0.75230   0.61050   0.01267  Uiso   1.00
C162   C     0.48380   0.79500   0.67440   0.01267  Uiso   1.00
C163   C     0.43700   0.76080   0.69320   0.01267  Uiso   1.00
C164   C     0.43900   0.79980   0.75480   0.01267  Uiso   1.00
C165   C     0.48960   0.87090   0.80030   0.01267  Uiso   1.00
C166   C     0.49520   0.91020   0.86820   0.01267  Uiso   1.00
C167   C     0.53460   0.90190   0.78110   0.01267  Uiso   1.00
C168   C     0.53100   0.86590   0.71750   0.01267  Uiso   1.00
C169   C     0.85820   0.74770   0.23170   0.01267  Uiso   1.00
C170   C     0.87940   0.70500   0.18880   0.01267  Uiso   1.00
C171   C     0.93240   0.73920   0.17620   0.01267  Uiso   1.00
C172   C     0.95500   0.70020   0.13920   0.01267  Uiso   1.00
C173   C     0.92940   0.62910   0.11870   0.01267  Uiso   1.00
C174   C     0.95800   0.58980   0.08500   0.01267  Uiso   1.00
C175   C     0.87920   0.59810   0.13270   0.01267  Uiso   1.00
C176   C     0.85160   0.63410   0.16510   0.01267  Uiso   1.00
C177   C     0.01600   0.62650   0.26830   0.01267  Uiso   1.00
C178   C     0.01620   0.69060   0.31120   0.01267  Uiso   1.00
C179   C     0.06300   0.75620   0.32380   0.01267  Uiso   1.00
C180   C     0.06100   0.81580   0.36080   0.01267  Uiso   1.00
C181   C     0.01040   0.81070   0.38130   0.01267  Uiso   1.00
C182   C     0.00480   0.87300   0.41500   0.01267  Uiso   1.00
C183   C     0.96540   0.74650   0.36730   0.01267  Uiso   1.00
C184   C     0.96900   0.68650   0.33490   0.01267  Uiso   1.00
C185   C     0.64180   0.87350   0.88950   0.01267  Uiso   1.00
C186   C     0.62060   0.80940   0.82560   0.01267  Uiso   1.00
C187   C     0.56760   0.74380   0.80680   0.01267  Uiso   1.00
C188   C     0.54500   0.68420   0.74520   0.01267  Uiso   1.00
C189   C     0.57060   0.68930   0.69970   0.01267  Uiso   1.00
C190   C     0.54200   0.62700   0.63180   0.01267  Uiso   1.00
C191   C     0.62080   0.75350   0.71890   0.01267  Uiso   1.00
C192   C     0.64840   0.81350   0.78250   0.01267  Uiso   1.00
N1     N     0.31210   0.04060   0.69330   0.01267  Uiso   1.00
N2     N     0.84730   0.61880   0.80670   0.01267  Uiso   1.00
N3     N     0.65270   0.45940   0.77150   0.01267  Uiso   1.00
N4     N     0.18790   0.88120   0.72850   0.01267  Uiso   1.00
N5     N     0.27150   0.65270   0.95940   0.01267  Uiso   1.00
N6     N     0.22850   0.18790   0.38120   0.01267  Uiso   1.00
N7     N     0.19330   0.31210   0.54060   0.01267  Uiso   1.00
N8     N     0.30670   0.84730   0.11880   0.01267  Uiso   1.00
N9     N     0.61880   0.30670   0.34730   0.01267  Uiso   1.00
N10    N     0.04060   0.19330   0.81210   0.01267  Uiso   1.00
N11    N     0.88120   0.22850   0.68790   0.01267  Uiso   1.00
N12    N     0.45940   0.27150   0.15270   0.01267  Uiso   1.00
N13    N     0.68790   0.95940   0.30670   0.01267  Uiso   1.00
N14    N     0.15270   0.38120   0.19330   0.01267  Uiso   1.00
N15    N     0.34730   0.54060   0.22850   0.01267  Uiso   1.00
N16    N     0.81210   0.11880   0.27150   0.01267  Uiso   1.00
N17    N     0.72850   0.34730   0.04060   0.01267  Uiso   1.00
N18    N     0.77150   0.81210   0.61880   0.01267  Uiso   1.00
N19    N     0.80670   0.68790   0.45940   0.01267  Uiso   1.00
N20    N     0.69330   0.15270   0.88120   0.01267  Uiso   1.00
N21    N     0.38120   0.69330   0.65270   0.01267  Uiso   1.00
N22    N     0.95940   0.80670   0.18790   0.01267  Uiso   1.00
N23    N     0.11880   0.77150   0.31210   0.01267  Uiso   1.00
N24    N     0.54060   0.72850   0.84730   0.01267  Uiso   1.00
O1     O     0.24330   0.11170   0.68680   0.01267  Uiso   1.00
O2     O     0.25600   0.18860   0.78320   0.01267  Uiso   1.00
O3     O     0.44000   0.00730   0.88750   0.01267  Uiso   1.00
O4     O     0.41730   0.05370   0.96940   0.01267  Uiso   1.00
O5     O     0.92490   0.55650   0.81320   0.01267  Uiso   1.00
O6     O     0.90540   0.47280   0.71680   0.01267  Uiso   1.00
O7     O     0.61980   0.55250   0.61250   0.01267  Uiso   1.00
O8     O     0.58430   0.44790   0.53060   0.01267  Uiso   1.00
O9     O     0.57510   0.38830   0.63160   0.01267  Uiso   1.00
O10    O     0.59460   0.31140   0.56740   0.01267  Uiso   1.00
O11    O     0.88020   0.49270   0.93270   0.01267  Uiso   1.00
O12    O     0.91570   0.44630   0.86360   0.01267  Uiso   1.00
O13    O     0.25670   0.94350   0.86840   0.01267  Uiso   1.00
O14    O     0.24400   0.02720   0.93260   0.01267  Uiso   1.00
O15    O     0.06000   0.94750   0.56730   0.01267  Uiso   1.00
O16    O     0.08270   0.05210   0.63640   0.01267  Uiso   1.00
O17    O     0.13160   0.57510   0.88830   0.01267  Uiso   1.00
O18    O     0.06740   0.59460   0.81140   0.01267  Uiso   1.00
O19    O     0.43270   0.88020   0.99270   0.01267  Uiso   1.00
O20    O     0.36360   0.91570   0.94630   0.01267  Uiso   1.00
O21    O     0.36840   0.25670   0.44350   0.01267  Uiso   1.00
O22    O     0.43260   0.24400   0.52720   0.01267  Uiso   1.00
O23    O     0.06730   0.06000   0.44750   0.01267  Uiso   1.00
O24    O     0.13640   0.08270   0.55210   0.01267  Uiso   1.00
O25    O     0.18680   0.24330   0.61170   0.01267  Uiso   1.00
O26    O     0.28320   0.25600   0.68860   0.01267  Uiso   1.00
O27    O     0.38750   0.44000   0.50730   0.01267  Uiso   1.00
O28    O     0.46940   0.41730   0.55370   0.01267  Uiso   1.00
O29    O     0.31320   0.92490   0.05650   0.01267  Uiso   1.00
O30    O     0.21680   0.90540   0.97280   0.01267  Uiso   1.00
O31    O     0.11250   0.61980   0.05250   0.01267  Uiso   1.00
O32    O     0.03060   0.58430   0.94790   0.01267  Uiso   1.00
O33    O     0.55650   0.31320   0.42490   0.01267  Uiso   1.00
O34    O     0.47280   0.21680   0.40540   0.01267  Uiso   1.00
O35    O     0.55250   0.11250   0.11980   0.01267  Uiso   1.00
O36    O     0.44790   0.03060   0.08430   0.01267  Uiso   1.00
O37    O     0.11170   0.18680   0.74330   0.01267  Uiso   1.00
O38    O     0.18860   0.28320   0.75600   0.01267  Uiso   1.00
O39    O     0.00730   0.38750   0.94000   0.01267  Uiso   1.00
O40    O     0.05370   0.46940   0.91730   0.01267  Uiso   1.00
O41    O     0.94350   0.36840   0.75670   0.01267  Uiso   1.00
O42    O     0.02720   0.43260   0.74400   0.01267  Uiso   1.00
O43    O     0.94750   0.06730   0.56000   0.01267  Uiso   1.00
O44    O     0.05210   0.13640   0.58270   0.01267  Uiso   1.00
O45    O     0.38830   0.13160   0.07510   0.01267  Uiso   1.00
O46    O     0.31140   0.06740   0.09460   0.01267  Uiso   1.00
O47    O     0.49270   0.43270   0.38020   0.01267  Uiso   1.00
O48    O     0.44630   0.36360   0.41570   0.01267  Uiso   1.00
O49    O     0.75670   0.88830   0.31320   0.01267  Uiso   1.00
O50    O     0.74400   0.81140   0.21680   0.01267  Uiso   1.00
O51    O     0.56000   0.99270   0.11250   0.01267  Uiso   1.00
O52    O     0.58270   0.94630   0.03060   0.01267  Uiso   1.00
O53    O     0.07510   0.44350   0.18680   0.01267  Uiso   1.00
O54    O     0.09460   0.52720   0.28320   0.01267  Uiso   1.00
O55    O     0.38020   0.44750   0.38750   0.01267  Uiso   1.00
O56    O     0.41570   0.55210   0.46940   0.01267  Uiso   1.00
O57    O     0.42490   0.61170   0.36840   0.01267  Uiso   1.00
O58    O     0.40540   0.68860   0.43260   0.01267  Uiso   1.00
O59    O     0.11980   0.50730   0.06730   0.01267  Uiso   1.00
O60    O     0.08430   0.55370   0.13640   0.01267  Uiso   1.00
O61    O     0.74330   0.05650   0.13160   0.01267  Uiso   1.00
O62    O     0.75600   0.97280   0.06740   0.01267  Uiso   1.00
O63    O     0.94000   0.05250   0.43270   0.01267  Uiso   1.00
O64    O     0.91730   0.94790   0.36360   0.01267  Uiso   1.00
O65    O     0.86840   0.42490   0.11170   0.01267  Uiso   1.00
O66    O     0.93260   0.40540   0.18860   0.01267  Uiso   1.00
O67    O     0.56730   0.11980   0.00730   0.01267  Uiso   1.00
O68    O     0.63640   0.08430   0.05370   0.01267  Uiso   1.00
O69    O     0.63160   0.74330   0.55650   0.01267  Uiso   1.00
O70    O     0.56740   0.75600   0.47280   0.01267  Uiso   1.00
O71    O     0.93270   0.94000   0.55250   0.01267  Uiso   1.00
O72    O     0.86360   0.91730   0.44790   0.01267  Uiso   1.00
O73    O     0.81320   0.75670   0.38830   0.01267  Uiso   1.00
O74    O     0.71680   0.74400   0.31140   0.01267  Uiso   1.00
O75    O     0.61250   0.56000   0.49270   0.01267  Uiso   1.00
O76    O     0.53060   0.58270   0.44630   0.01267  Uiso   1.00
O77    O     0.68680   0.07510   0.94350   0.01267  Uiso   1.00
O78    O     0.78320   0.09460   0.02720   0.01267  Uiso   1.00
O79    O     0.88750   0.38020   0.94750   0.01267  Uiso   1.00
O80    O     0.96940   0.41570   0.05210   0.01267  Uiso   1.00
O81    O     0.44350   0.68680   0.57510   0.01267  Uiso   1.00
O82    O     0.52720   0.78320   0.59460   0.01267  Uiso   1.00
O83    O     0.44750   0.88750   0.88020   0.01267  Uiso   1.00
O84    O     0.55210   0.96940   0.91570   0.01267  Uiso   1.00
O85    O     0.88830   0.81320   0.25670   0.01267  Uiso   1.00
O86    O     0.81140   0.71680   0.24400   0.01267  Uiso   1.00
O87    O     0.99270   0.61250   0.06000   0.01267  Uiso   1.00
O88    O     0.94630   0.53060   0.08270   0.01267  Uiso   1.00
O89    O     0.05650   0.63160   0.24330   0.01267  Uiso   1.00
O90    O     0.97280   0.56740   0.25600   0.01267  Uiso   1.00
O91    O     0.05250   0.93270   0.44000   0.01267  Uiso   1.00
O92    O     0.94790   0.86360   0.41730   0.01267  Uiso   1.00
O93    O     0.61170   0.86840   0.92490   0.01267  Uiso   1.00
O94    O     0.68860   0.93260   0.90540   0.01267  Uiso   1.00
O95    O     0.50730   0.56730   0.61980   0.01267  Uiso   1.00
O96    O     0.55370   0.63640   0.58430   0.01267  Uiso   1.00
N25    N     0.94360   0.00000   0.00000   0.01267  Uiso   1.00
O97    O     0.91610   0.94170   0.99960   0.01267  Uiso   1.00
O98    O     0.97440   0.05790   0.05830   0.01267  Uiso   1.00
O99    O     0.91650   0.00040   0.94210   0.01267  Uiso   1.00
N26    N     0.50000   0.94360   0.50000   0.01267  Uiso   1.00
O100   O     0.44210   0.91650   0.50040   0.01267  Uiso   1.00
O101   O     0.49960   0.91610   0.44170   0.01267  Uiso   1.00
O102   O     0.55830   0.97440   0.55790   0.01267  Uiso   1.00
N27    N     0.00000   0.50000   0.44360   0.01267  Uiso   1.00
O103   O     0.05790   0.55830   0.47440   0.01267  Uiso   1.00
O104   O     0.00040   0.44210   0.41650   0.01267  Uiso   1.00
O105   O     0.94170   0.49960   0.41610   0.01267  Uiso   1.00
N28    N     0.55640   0.55640   0.05640   0.01267  Uiso   1.00
O106   O     0.58390   0.58350   0.02560   0.01267  Uiso   1.00
O107   O     0.52560   0.58390   0.08350   0.01267  Uiso   1.00
O108   O     0.58350   0.52560   0.08390   0.01267  Uiso   1.00
N29    N     0.05640   0.00000   1.00000   0.01267  Uiso   1.00
O109   O     0.08390   0.05830   0.00040   0.01267  Uiso   1.00
O110   O     0.02560   0.94210   0.94170   0.01267  Uiso   1.00
O111   O     0.08350   0.99960   0.05790   0.01267  Uiso   1.00
N30    N     0.50000   0.05640   0.50000   0.01267  Uiso   1.00
O112   O     0.55790   0.08350   0.49960   0.01267  Uiso   1.00
O113   O     0.50040   0.08390   0.55830   0.01267  Uiso   1.00
O114   O     0.44170   0.02560   0.44210   0.01267  Uiso   1.00
N31    N     0.00000   0.50000   0.55640   0.01267  Uiso   1.00
O115   O     0.94210   0.44170   0.52560   0.01267  Uiso   1.00
O116   O     0.99960   0.55790   0.58350   0.01267  Uiso   1.00
O117   O     0.05830   0.50040   0.58390   0.01267  Uiso   1.00
N32    N     0.44360   0.44360   0.94360   0.01267  Uiso   1.00
O118   O     0.41610   0.41650   0.97440   0.01267  Uiso   1.00
O119   O     0.47440   0.41610   0.91650   0.01267  Uiso   1.00
O120   O     0.41650   0.47440   0.91610   0.01267  Uiso   1.00
