data_image0
_cell_length_a       23.2143
_cell_length_b       23.2143
_cell_length_c       23.2143
_cell_angle_alpha    109.471
_cell_angle_beta     109.471
_cell_angle_gamma    109.471

_symmetry_space_group_name_H-M    P 1
_symmetry_int_tables_number       1

loop_
  _symmetry_equiv_pos_as_xyz
  'x, y, z'

loop_
  _atom_site_label
  _atom_site_occupancy
  _atom_site_fract_x
  _atom_site_fract_y
  _atom_site_fract_z
  _atom_site_thermal_displace_type
  _atom_site_B_iso_or_equiv
  _atom_site_type_symbol
  Nd1      1.0000 0.50000  0.00000  0.00000  Biso   1.000  Nd
  Nd2      1.0000 0.50000  0.50000  0.50000  Biso   1.000  Nd
  Nd3      1.0000 0.00000  0.50000  0.00000  Biso   1.000  Nd
  Nd4      1.0000 0.00000  0.00000  0.50000  Biso   1.000  Nd
  Nd5      1.0000 0.33167  0.00000  0.00000  Biso   1.000  Nd
  Nd6      1.0000 0.50000  0.33167  0.50000  Biso   1.000  Nd
  Nd7      1.0000 0.00000  0.50000  0.83167  Biso   1.000  Nd
  Nd8      1.0000 0.16833  0.16833  0.66833  Biso   1.000  Nd
  Nd9      1.0000 0.66833  0.00000  0.00000  Biso   1.000  Nd
  Nd10     1.0000 0.50000  0.66833  0.50000  Biso   1.000  Nd
  Nd11     1.0000 0.00000  0.50000  0.16833  Biso   1.000  Nd
  Nd12     1.0000 0.83167  0.83167  0.33167  Biso   1.000  Nd
  H1       1.0000 0.36100  0.76620  0.98820  Biso   1.000  H
  H2       1.0000 0.14210  0.70560  0.81650  Biso   1.000  H
  H3       1.0000 0.24150  0.81010  0.85800  Biso   1.000  H
  H4       1.0000 0.27800  0.37280  0.51180  Biso   1.000  H
  H5       1.0000 0.38910  0.32560  0.68350  Biso   1.000  H
  H6       1.0000 0.45210  0.38350  0.64200  Biso   1.000  H
  H7       1.0000 0.22200  0.73380  0.09480  Biso   1.000  H
  H8       1.0000 0.11090  0.79440  0.93650  Biso   1.000  H
  H9       1.0000 0.04790  0.68990  0.93140  Biso   1.000  H
  H10      1.0000 0.13900  0.12720  0.40520  Biso   1.000  H
  H11      1.0000 0.35790  0.17440  0.56350  Biso   1.000  H
  H12      1.0000 0.25850  0.11650  0.56860  Biso   1.000  H
  H13      1.0000 0.59480  0.22200  0.23380  Biso   1.000  H
  H14      1.0000 0.43650  0.11090  0.29440  Biso   1.000  H
  H15      1.0000 0.43140  0.04790  0.18990  Biso   1.000  H
  H16      1.0000 0.90520  0.13900  0.62720  Biso   1.000  H
  H17      1.0000 0.06350  0.35790  0.67440  Biso   1.000  H
  H18      1.0000 0.06860  0.25850  0.61650  Biso   1.000  H
  H19      1.0000 0.48820  0.36100  0.26620  Biso   1.000  H
  H20      1.0000 0.31650  0.14210  0.20560  Biso   1.000  H
  H21      1.0000 0.35800  0.24150  0.31010  Biso   1.000  H
  H22      1.0000 0.01180  0.27800  0.87280  Biso   1.000  H
  H23      1.0000 0.18350  0.38910  0.82560  Biso   1.000  H
  H24      1.0000 0.14200  0.45210  0.88350  Biso   1.000  H
  H25      1.0000 0.37280  0.01180  0.77800  Biso   1.000  H
  H26      1.0000 0.32560  0.18350  0.88910  Biso   1.000  H
  H27      1.0000 0.38350  0.14200  0.95210  Biso   1.000  H
  H28      1.0000 0.76620  0.48820  0.86100  Biso   1.000  H
  H29      1.0000 0.70560  0.31650  0.64210  Biso   1.000  H
  H30      1.0000 0.81010  0.35800  0.74150  Biso   1.000  H
  H31      1.0000 0.12720  0.90520  0.63900  Biso   1.000  H
  H32      1.0000 0.17440  0.06350  0.85790  Biso   1.000  H
  H33      1.0000 0.11650  0.06860  0.75850  Biso   1.000  H
  H34      1.0000 0.73380  0.59480  0.72200  Biso   1.000  H
  H35      1.0000 0.79440  0.43650  0.61090  Biso   1.000  H
  H36      1.0000 0.68990  0.43140  0.54790  Biso   1.000  H
  H37      1.0000 0.63900  0.23380  0.01180  Biso   1.000  H
  H38      1.0000 0.85790  0.29440  0.18350  Biso   1.000  H
  H39      1.0000 0.75850  0.18990  0.14200  Biso   1.000  H
  H40      1.0000 0.72200  0.62720  0.48820  Biso   1.000  H
  H41      1.0000 0.61090  0.67440  0.31650  Biso   1.000  H
  H42      1.0000 0.54790  0.61650  0.35800  Biso   1.000  H
  H43      1.0000 0.77800  0.26620  0.90520  Biso   1.000  H
  H44      1.0000 0.88910  0.20560  0.06350  Biso   1.000  H
  H45      1.0000 0.95210  0.31010  0.06860  Biso   1.000  H
  H46      1.0000 0.86100  0.87280  0.59480  Biso   1.000  H
  H47      1.0000 0.64210  0.82560  0.43650  Biso   1.000  H
  H48      1.0000 0.74150  0.88350  0.43140  Biso   1.000  H
  H49      1.0000 0.40520  0.77800  0.76620  Biso   1.000  H
  H50      1.0000 0.56350  0.88910  0.70560  Biso   1.000  H
  H51      1.0000 0.56860  0.95210  0.81010  Biso   1.000  H
  H52      1.0000 0.09480  0.86100  0.37280  Biso   1.000  H
  H53      1.0000 0.93650  0.64210  0.32560  Biso   1.000  H
  H54      1.0000 0.93140  0.74150  0.38350  Biso   1.000  H
  H55      1.0000 0.51180  0.63900  0.73380  Biso   1.000  H
  H56      1.0000 0.68350  0.85790  0.79440  Biso   1.000  H
  H57      1.0000 0.64200  0.75850  0.68990  Biso   1.000  H
  H58      1.0000 0.98820  0.72200  0.12720  Biso   1.000  H
  H59      1.0000 0.81650  0.61090  0.17440  Biso   1.000  H
  H60      1.0000 0.85800  0.54790  0.11650  Biso   1.000  H
  H61      1.0000 0.62720  0.98820  0.22200  Biso   1.000  H
  H62      1.0000 0.67440  0.81650  0.11090  Biso   1.000  H
  H63      1.0000 0.61650  0.85800  0.04790  Biso   1.000  H
  H64      1.0000 0.23380  0.51180  0.13900  Biso   1.000  H
  H65      1.0000 0.29440  0.68350  0.35790  Biso   1.000  H
  H66      1.0000 0.18990  0.64200  0.25850  Biso   1.000  H
  H67      1.0000 0.87280  0.09480  0.36100  Biso   1.000  H
  H68      1.0000 0.82560  0.93650  0.14210  Biso   1.000  H
  H69      1.0000 0.88350  0.93140  0.24150  Biso   1.000  H
  H70      1.0000 0.26620  0.40520  0.27800  Biso   1.000  H
  H71      1.0000 0.20560  0.56350  0.38910  Biso   1.000  H
  H72      1.0000 0.31010  0.56860  0.45210  Biso   1.000  H
  C1       1.0000 0.37333  0.86802  0.95669  Biso   1.000  C
  C2       1.0000 0.31038  0.79925  0.92865  Biso   1.000  C
  C3       1.0000 0.12672  0.61121  0.85939  Biso   1.000  C
  C4       1.0000 0.19123  0.67449  0.88014  Biso   1.000  C
  C5       1.0000 0.25617  0.69326  0.93165  Biso   1.000  C
  C6       1.0000 0.31607  0.75482  0.95459  Biso   1.000  C
  C7       1.0000 0.18639  0.71839  0.85248  Biso   1.000  C
  C8       1.0000 0.24540  0.78022  0.87688  Biso   1.000  C
  C9       1.0000 0.41133  0.41664  0.54331  Biso   1.000  C
  C10      1.0000 0.37060  0.38173  0.57135  Biso   1.000  C
  C11      1.0000 0.25182  0.26733  0.64061  Biso   1.000  C
  C12      1.0000 0.29435  0.31109  0.61986  Biso   1.000  C
  C13      1.0000 0.26161  0.32452  0.56835  Biso   1.000  C
  C14      1.0000 0.30023  0.36148  0.54541  Biso   1.000  C
  C15      1.0000 0.36591  0.33391  0.64752  Biso   1.000  C
  C16      1.0000 0.40334  0.36852  0.62312  Biso   1.000  C
  C17      1.0000 0.08867  0.63198  0.00531  Biso   1.000  C
  C18      1.0000 0.12940  0.70075  0.01113  Biso   1.000  C
  C19      1.0000 0.24818  0.88879  0.01551  Biso   1.000  C
  C20      1.0000 0.20565  0.82551  0.01674  Biso   1.000  C
  C21      1.0000 0.23839  0.80674  0.06291  Biso   1.000  C
  C22      1.0000 0.19977  0.74518  0.06125  Biso   1.000  C
  C23      1.0000 0.13409  0.78161  0.96800  Biso   1.000  C
  C24      1.0000 0.09666  0.71978  0.96518  Biso   1.000  C
  C25      1.0000 0.12667  0.08336  0.49469  Biso   1.000  C
  C26      1.0000 0.18962  0.11827  0.48887  Biso   1.000  C
  C27      1.0000 0.37328  0.23267  0.48449  Biso   1.000  C
  C28      1.0000 0.30877  0.18891  0.48326  Biso   1.000  C
  C29      1.0000 0.24383  0.17548  0.43709  Biso   1.000  C
  C30      1.0000 0.18393  0.13852  0.43875  Biso   1.000  C
  C31      1.0000 0.31361  0.16609  0.53200  Biso   1.000  C
  C32      1.0000 0.25460  0.13148  0.53482  Biso   1.000  C
  C33      1.0000 0.50531  0.08867  0.13198  Biso   1.000  C
  C34      1.0000 0.51113  0.12940  0.20075  Biso   1.000  C
  C35      1.0000 0.51551  0.24818  0.38879  Biso   1.000  C
  C36      1.0000 0.51674  0.20565  0.32551  Biso   1.000  C
  C37      1.0000 0.56291  0.23839  0.30674  Biso   1.000  C
  C38      1.0000 0.56125  0.19977  0.24518  Biso   1.000  C
  C39      1.0000 0.46800  0.13409  0.28161  Biso   1.000  C
  C40      1.0000 0.46518  0.09666  0.21978  Biso   1.000  C
  C41      1.0000 0.99469  0.12667  0.58336  Biso   1.000  C
  C42      1.0000 0.98887  0.18962  0.61827  Biso   1.000  C
  C43      1.0000 0.98449  0.37328  0.73267  Biso   1.000  C
  C44      1.0000 0.98326  0.30877  0.68891  Biso   1.000  C
  C45      1.0000 0.93709  0.24383  0.67548  Biso   1.000  C
  C46      1.0000 0.93875  0.18393  0.63852  Biso   1.000  C
  C47      1.0000 0.03200  0.31361  0.66609  Biso   1.000  C
  C48      1.0000 0.03482  0.25460  0.63148  Biso   1.000  C
  C49      1.0000 0.45669  0.37333  0.36802  Biso   1.000  C
  C50      1.0000 0.42865  0.31038  0.29925  Biso   1.000  C
  C51      1.0000 0.35939  0.12672  0.11121  Biso   1.000  C
  C52      1.0000 0.38014  0.19123  0.17449  Biso   1.000  C
  C53      1.0000 0.43165  0.25617  0.19326  Biso   1.000  C
  C54      1.0000 0.45459  0.31607  0.25482  Biso   1.000  C
  C55      1.0000 0.35248  0.18639  0.21839  Biso   1.000  C
  C56      1.0000 0.37688  0.24540  0.28022  Biso   1.000  C
  C57      1.0000 0.04331  0.41133  0.91664  Biso   1.000  C
  C58      1.0000 0.07135  0.37060  0.88173  Biso   1.000  C
  C59      1.0000 0.14061  0.25182  0.76733  Biso   1.000  C
  C60      1.0000 0.11986  0.29435  0.81109  Biso   1.000  C
  C61      1.0000 0.06835  0.26161  0.82452  Biso   1.000  C
  C62      1.0000 0.04541  0.30023  0.86148  Biso   1.000  C
  C63      1.0000 0.14752  0.36591  0.83391  Biso   1.000  C
  C64      1.0000 0.12312  0.40334  0.86852  Biso   1.000  C
  C65      1.0000 0.41664  0.04331  0.91133  Biso   1.000  C
  C66      1.0000 0.38173  0.07135  0.87060  Biso   1.000  C
  C67      1.0000 0.26733  0.14061  0.75182  Biso   1.000  C
  C68      1.0000 0.31109  0.11986  0.79435  Biso   1.000  C
  C69      1.0000 0.32452  0.06835  0.76161  Biso   1.000  C
  C70      1.0000 0.36148  0.04541  0.80023  Biso   1.000  C
  C71      1.0000 0.33391  0.14752  0.86591  Biso   1.000  C
  C72      1.0000 0.36852  0.12312  0.90334  Biso   1.000  C
  C73      1.0000 0.86802  0.45669  0.87333  Biso   1.000  C
  C74      1.0000 0.79925  0.42865  0.81038  Biso   1.000  C
  C75      1.0000 0.61121  0.35939  0.62672  Biso   1.000  C
  C76      1.0000 0.67449  0.38014  0.69123  Biso   1.000  C
  C77      1.0000 0.69326  0.43165  0.75617  Biso   1.000  C
  C78      1.0000 0.75482  0.45459  0.81607  Biso   1.000  C
  C79      1.0000 0.71839  0.35248  0.68639  Biso   1.000  C
  C80      1.0000 0.78022  0.37688  0.74540  Biso   1.000  C
  C81      1.0000 0.08336  0.99469  0.62667  Biso   1.000  C
  C82      1.0000 0.11827  0.98887  0.68962  Biso   1.000  C
  C83      1.0000 0.23267  0.98449  0.87328  Biso   1.000  C
  C84      1.0000 0.18891  0.98326  0.80877  Biso   1.000  C
  C85      1.0000 0.17548  0.93709  0.74383  Biso   1.000  C
  C86      1.0000 0.13852  0.93875  0.68393  Biso   1.000  C
  C87      1.0000 0.16609  0.03200  0.81361  Biso   1.000  C
  C88      1.0000 0.13148  0.03482  0.75460  Biso   1.000  C
  C89      1.0000 0.63198  0.50531  0.58867  Biso   1.000  C
  C90      1.0000 0.70075  0.51113  0.62940  Biso   1.000  C
  C91      1.0000 0.88879  0.51551  0.74818  Biso   1.000  C
  C92      1.0000 0.82551  0.51674  0.70565  Biso   1.000  C
  C93      1.0000 0.80674  0.56291  0.73839  Biso   1.000  C
  C94      1.0000 0.74518  0.56125  0.69977  Biso   1.000  C
  C95      1.0000 0.78161  0.46800  0.63409  Biso   1.000  C
  C96      1.0000 0.71978  0.46518  0.59666  Biso   1.000  C
  C97      1.0000 0.62667  0.13198  0.04331  Biso   1.000  C
  C98      1.0000 0.68962  0.20075  0.07135  Biso   1.000  C
  C99      1.0000 0.87328  0.38879  0.14061  Biso   1.000  C
  C100     1.0000 0.80877  0.32551  0.11986  Biso   1.000  C
  C101     1.0000 0.74383  0.30674  0.06835  Biso   1.000  C
  C102     1.0000 0.68393  0.24518  0.04541  Biso   1.000  C
  C103     1.0000 0.81361  0.28161  0.14752  Biso   1.000  C
  C104     1.0000 0.75460  0.21978  0.12312  Biso   1.000  C
  C105     1.0000 0.58867  0.58336  0.45669  Biso   1.000  C
  C106     1.0000 0.62940  0.61827  0.42865  Biso   1.000  C
  C107     1.0000 0.74818  0.73267  0.35939  Biso   1.000  C
  C108     1.0000 0.70565  0.68891  0.38014  Biso   1.000  C
  C109     1.0000 0.73839  0.67548  0.43165  Biso   1.000  C
  C110     1.0000 0.69977  0.63852  0.45459  Biso   1.000  C
  C111     1.0000 0.63409  0.66609  0.35248  Biso   1.000  C
  C112     1.0000 0.59666  0.63148  0.37688  Biso   1.000  C
  C113     1.0000 0.91133  0.36802  0.99469  Biso   1.000  C
  C114     1.0000 0.87060  0.29925  0.98887  Biso   1.000  C
  C115     1.0000 0.75182  0.11121  0.98449  Biso   1.000  C
  C116     1.0000 0.79435  0.17449  0.98326  Biso   1.000  C
  C117     1.0000 0.76161  0.19326  0.93709  Biso   1.000  C
  C118     1.0000 0.80023  0.25482  0.93875  Biso   1.000  C
  C119     1.0000 0.86591  0.21839  0.03200  Biso   1.000  C
  C120     1.0000 0.90334  0.28022  0.03482  Biso   1.000  C
  C121     1.0000 0.87333  0.91664  0.50531  Biso   1.000  C
  C122     1.0000 0.81038  0.88173  0.51113  Biso   1.000  C
  C123     1.0000 0.62672  0.76733  0.51551  Biso   1.000  C
  C124     1.0000 0.69123  0.81109  0.51674  Biso   1.000  C
  C125     1.0000 0.75617  0.82452  0.56291  Biso   1.000  C
  C126     1.0000 0.81607  0.86148  0.56125  Biso   1.000  C
  C127     1.0000 0.68639  0.83391  0.46800  Biso   1.000  C
  C128     1.0000 0.74540  0.86852  0.46518  Biso   1.000  C
  C129     1.0000 0.49469  0.91133  0.86802  Biso   1.000  C
  C130     1.0000 0.48887  0.87060  0.79925  Biso   1.000  C
  C131     1.0000 0.48449  0.75182  0.61121  Biso   1.000  C
  C132     1.0000 0.48326  0.79435  0.67449  Biso   1.000  C
  C133     1.0000 0.43709  0.76161  0.69326  Biso   1.000  C
  C134     1.0000 0.43875  0.80023  0.75482  Biso   1.000  C
  C135     1.0000 0.53200  0.86591  0.71839  Biso   1.000  C
  C136     1.0000 0.53482  0.90334  0.78022  Biso   1.000  C
  C137     1.0000 0.00531  0.87333  0.41664  Biso   1.000  C
  C138     1.0000 0.01113  0.81038  0.38173  Biso   1.000  C
  C139     1.0000 0.01551  0.62672  0.26733  Biso   1.000  C
  C140     1.0000 0.01674  0.69123  0.31109  Biso   1.000  C
  C141     1.0000 0.06291  0.75617  0.32452  Biso   1.000  C
  C142     1.0000 0.06125  0.81607  0.36148  Biso   1.000  C
  C143     1.0000 0.96800  0.68639  0.33391  Biso   1.000  C
  C144     1.0000 0.96518  0.74540  0.36852  Biso   1.000  C
  C145     1.0000 0.54331  0.62667  0.63198  Biso   1.000  C
  C146     1.0000 0.57135  0.68962  0.70075  Biso   1.000  C
  C147     1.0000 0.64061  0.87328  0.88879  Biso   1.000  C
  C148     1.0000 0.61986  0.80877  0.82551  Biso   1.000  C
  C149     1.0000 0.56835  0.74383  0.80674  Biso   1.000  C
  C150     1.0000 0.54541  0.68393  0.74518  Biso   1.000  C
  C151     1.0000 0.64752  0.81361  0.78161  Biso   1.000  C
  C152     1.0000 0.62312  0.75460  0.71978  Biso   1.000  C
  C153     1.0000 0.95669  0.58867  0.08336  Biso   1.000  C
  C154     1.0000 0.92865  0.62940  0.11827  Biso   1.000  C
  C155     1.0000 0.85939  0.74818  0.23267  Biso   1.000  C
  C156     1.0000 0.88014  0.70565  0.18891  Biso   1.000  C
  C157     1.0000 0.93165  0.73839  0.17548  Biso   1.000  C
  C158     1.0000 0.95459  0.69977  0.13852  Biso   1.000  C
  C159     1.0000 0.85248  0.63409  0.16609  Biso   1.000  C
  C160     1.0000 0.87688  0.59666  0.13148  Biso   1.000  C
  C161     1.0000 0.58336  0.95669  0.08867  Biso   1.000  C
  C162     1.0000 0.61827  0.92865  0.12940  Biso   1.000  C
  C163     1.0000 0.73267  0.85939  0.24818  Biso   1.000  C
  C164     1.0000 0.68891  0.88014  0.20565  Biso   1.000  C
  C165     1.0000 0.67548  0.93165  0.23839  Biso   1.000  C
  C166     1.0000 0.63852  0.95459  0.19977  Biso   1.000  C
  C167     1.0000 0.66609  0.85248  0.13409  Biso   1.000  C
  C168     1.0000 0.63148  0.87688  0.09666  Biso   1.000  C
  C169     1.0000 0.13198  0.54331  0.12667  Biso   1.000  C
  C170     1.0000 0.20075  0.57135  0.18962  Biso   1.000  C
  C171     1.0000 0.38879  0.64061  0.37328  Biso   1.000  C
  C172     1.0000 0.32551  0.61986  0.30877  Biso   1.000  C
  C173     1.0000 0.30674  0.56835  0.24383  Biso   1.000  C
  C174     1.0000 0.24518  0.54541  0.18393  Biso   1.000  C
  C175     1.0000 0.28161  0.64752  0.31361  Biso   1.000  C
  C176     1.0000 0.21978  0.62312  0.25460  Biso   1.000  C
  C177     1.0000 0.91664  0.00531  0.37333  Biso   1.000  C
  C178     1.0000 0.88173  0.01113  0.31038  Biso   1.000  C
  C179     1.0000 0.76733  0.01551  0.12672  Biso   1.000  C
  C180     1.0000 0.81109  0.01674  0.19123  Biso   1.000  C
  C181     1.0000 0.82452  0.06291  0.25617  Biso   1.000  C
  C182     1.0000 0.86148  0.06125  0.31607  Biso   1.000  C
  C183     1.0000 0.83391  0.96800  0.18639  Biso   1.000  C
  C184     1.0000 0.86852  0.96518  0.24540  Biso   1.000  C
  C185     1.0000 0.36802  0.49469  0.41133  Biso   1.000  C
  C186     1.0000 0.29925  0.48887  0.37060  Biso   1.000  C
  C187     1.0000 0.11121  0.48449  0.25182  Biso   1.000  C
  C188     1.0000 0.17449  0.48326  0.29435  Biso   1.000  C
  C189     1.0000 0.19326  0.43709  0.26161  Biso   1.000  C
  C190     1.0000 0.25482  0.43875  0.30023  Biso   1.000  C
  C191     1.0000 0.21839  0.53200  0.36591  Biso   1.000  C
  C192     1.0000 0.28022  0.53482  0.40334  Biso   1.000  C
  N1       1.0000 0.27040  0.65050  0.96090  Biso   1.000  N
  N2       1.0000 0.18960  0.30950  0.53910  Biso   1.000  N
  N3       1.0000 0.31040  0.84950  0.11990  Biso   1.000  N
  N4       1.0000 0.22960  0.19050  0.38010  Biso   1.000  N
  N5       1.0000 0.61990  0.31040  0.34950  Biso   1.000  N
  N6       1.0000 0.88010  0.22960  0.69050  Biso   1.000  N
  N7       1.0000 0.46090  0.27040  0.15050  Biso   1.000  N
  N8       1.0000 0.03910  0.18960  0.80950  Biso   1.000  N
  N9       1.0000 0.30950  0.03910  0.68960  Biso   1.000  N
  N10      1.0000 0.65050  0.46090  0.77040  Biso   1.000  N
  N11      1.0000 0.19050  0.88010  0.72960  Biso   1.000  N
  N12      1.0000 0.84950  0.61990  0.81040  Biso   1.000  N
  N13      1.0000 0.72960  0.34950  0.03910  Biso   1.000  N
  N14      1.0000 0.81040  0.69050  0.46090  Biso   1.000  N
  N15      1.0000 0.68960  0.15050  0.88010  Biso   1.000  N
  N16      1.0000 0.77040  0.80950  0.61990  Biso   1.000  N
  N17      1.0000 0.38010  0.68960  0.65050  Biso   1.000  N
  N18      1.0000 0.11990  0.77040  0.30950  Biso   1.000  N
  N19      1.0000 0.53910  0.72960  0.84950  Biso   1.000  N
  N20      1.0000 0.96090  0.81040  0.19050  Biso   1.000  N
  N21      1.0000 0.69050  0.96090  0.31040  Biso   1.000  N
  N22      1.0000 0.34950  0.53910  0.22960  Biso   1.000  N
  N23      1.0000 0.80950  0.11990  0.27040  Biso   1.000  N
  N24      1.0000 0.15050  0.38010  0.18960  Biso   1.000  N
  O1       1.0000 0.43400  0.87913  0.99147  Biso   1.000  O
  O2       1.0000 0.36440  0.91522  0.94568  Biso   1.000  O
  O3       1.0000 0.13078  0.57514  0.88992  Biso   1.000  O
  O4       1.0000 0.06627  0.59345  0.81176  Biso   1.000  O
  O5       1.0000 0.38766  0.44253  0.50853  Biso   1.000  O
  O6       1.0000 0.46954  0.41872  0.55432  Biso   1.000  O
  O7       1.0000 0.18522  0.24086  0.61008  Biso   1.000  O
  O8       1.0000 0.28169  0.25451  0.68824  Biso   1.000  O
  O9       1.0000 0.11234  0.62087  0.05487  Biso   1.000  O
  O10      1.0000 0.03046  0.58478  0.94918  Biso   1.000  O
  O11      1.0000 0.31478  0.92486  0.05564  Biso   1.000  O
  O12      1.0000 0.21831  0.90655  0.97282  Biso   1.000  O
  O13      1.0000 0.06600  0.05747  0.44513  Biso   1.000  O
  O14      1.0000 0.13560  0.08128  0.55082  Biso   1.000  O
  O15      1.0000 0.36922  0.25914  0.44436  Biso   1.000  O
  O16      1.0000 0.43373  0.24549  0.52718  Biso   1.000  O
  O17      1.0000 0.55487  0.11234  0.12087  Biso   1.000  O
  O18      1.0000 0.44918  0.03046  0.08478  Biso   1.000  O
  O19      1.0000 0.55564  0.31478  0.42486  Biso   1.000  O
  O20      1.0000 0.47282  0.21831  0.40655  Biso   1.000  O
  O21      1.0000 0.94513  0.06600  0.55747  Biso   1.000  O
  O22      1.0000 0.05082  0.13560  0.58128  Biso   1.000  O
  O23      1.0000 0.94436  0.36922  0.75914  Biso   1.000  O
  O24      1.0000 0.02718  0.43373  0.74549  Biso   1.000  O
  O25      1.0000 0.49147  0.43400  0.37913  Biso   1.000  O
  O26      1.0000 0.44568  0.36440  0.41522  Biso   1.000  O
  O27      1.0000 0.38992  0.13078  0.07514  Biso   1.000  O
  O28      1.0000 0.31176  0.06627  0.09345  Biso   1.000  O
  O29      1.0000 0.00853  0.38766  0.94253  Biso   1.000  O
  O30      1.0000 0.05432  0.46954  0.91872  Biso   1.000  O
  O31      1.0000 0.11008  0.18522  0.74086  Biso   1.000  O
  O32      1.0000 0.18824  0.28169  0.75451  Biso   1.000  O
  O33      1.0000 0.44253  0.00853  0.88766  Biso   1.000  O
  O34      1.0000 0.41872  0.05432  0.96954  Biso   1.000  O
  O35      1.0000 0.24086  0.11008  0.68522  Biso   1.000  O
  O36      1.0000 0.25451  0.18824  0.78169  Biso   1.000  O
  O37      1.0000 0.87913  0.49147  0.93400  Biso   1.000  O
  O38      1.0000 0.91522  0.44568  0.86440  Biso   1.000  O
  O39      1.0000 0.57514  0.38992  0.63078  Biso   1.000  O
  O40      1.0000 0.59345  0.31176  0.56627  Biso   1.000  O
  O41      1.0000 0.05747  0.94513  0.56600  Biso   1.000  O
  O42      1.0000 0.08128  0.05082  0.63560  Biso   1.000  O
  O43      1.0000 0.25914  0.94436  0.86922  Biso   1.000  O
  O44      1.0000 0.24549  0.02718  0.93373  Biso   1.000  O
  O45      1.0000 0.62087  0.55487  0.61234  Biso   1.000  O
  O46      1.0000 0.58478  0.44918  0.53046  Biso   1.000  O
  O47      1.0000 0.92486  0.55564  0.81478  Biso   1.000  O
  O48      1.0000 0.90655  0.47282  0.71831  Biso   1.000  O
  O49      1.0000 0.56600  0.12087  0.00853  Biso   1.000  O
  O50      1.0000 0.63560  0.08478  0.05432  Biso   1.000  O
  O51      1.0000 0.86922  0.42486  0.11008  Biso   1.000  O
  O52      1.0000 0.93373  0.40655  0.18824  Biso   1.000  O
  O53      1.0000 0.61234  0.55747  0.49147  Biso   1.000  O
  O54      1.0000 0.53046  0.58128  0.44568  Biso   1.000  O
  O55      1.0000 0.81478  0.75914  0.38992  Biso   1.000  O
  O56      1.0000 0.71831  0.74549  0.31176  Biso   1.000  O
  O57      1.0000 0.88766  0.37913  0.94513  Biso   1.000  O
  O58      1.0000 0.96954  0.41522  0.05082  Biso   1.000  O
  O59      1.0000 0.68522  0.07514  0.94436  Biso   1.000  O
  O60      1.0000 0.78169  0.09345  0.02718  Biso   1.000  O
  O61      1.0000 0.93400  0.94253  0.55487  Biso   1.000  O
  O62      1.0000 0.86440  0.91872  0.44918  Biso   1.000  O
  O63      1.0000 0.63078  0.74086  0.55564  Biso   1.000  O
  O64      1.0000 0.56627  0.75451  0.47282  Biso   1.000  O
  O65      1.0000 0.44513  0.88766  0.87913  Biso   1.000  O
  O66      1.0000 0.55082  0.96954  0.91522  Biso   1.000  O
  O67      1.0000 0.44436  0.68522  0.57514  Biso   1.000  O
  O68      1.0000 0.52718  0.78169  0.59345  Biso   1.000  O
  O69      1.0000 0.05487  0.93400  0.44253  Biso   1.000  O
  O70      1.0000 0.94918  0.86440  0.41872  Biso   1.000  O
  O71      1.0000 0.05564  0.63078  0.24086  Biso   1.000  O
  O72      1.0000 0.97282  0.56627  0.25451  Biso   1.000  O
  O73      1.0000 0.50853  0.56600  0.62087  Biso   1.000  O
  O74      1.0000 0.55432  0.63560  0.58478  Biso   1.000  O
  O75      1.0000 0.61008  0.86922  0.92486  Biso   1.000  O
  O76      1.0000 0.68824  0.93373  0.90655  Biso   1.000  O
  O77      1.0000 0.99147  0.61234  0.05747  Biso   1.000  O
  O78      1.0000 0.94568  0.53046  0.08128  Biso   1.000  O
  O79      1.0000 0.88992  0.81478  0.25914  Biso   1.000  O
  O80      1.0000 0.81176  0.71831  0.24549  Biso   1.000  O
  O81      1.0000 0.55747  0.99147  0.11234  Biso   1.000  O
  O82      1.0000 0.58128  0.94568  0.03046  Biso   1.000  O
  O83      1.0000 0.75914  0.88992  0.31478  Biso   1.000  O
  O84      1.0000 0.74549  0.81176  0.21831  Biso   1.000  O
  O85      1.0000 0.12087  0.50853  0.06600  Biso   1.000  O
  O86      1.0000 0.08478  0.55432  0.13560  Biso   1.000  O
  O87      1.0000 0.42486  0.61008  0.36922  Biso   1.000  O
  O88      1.0000 0.40655  0.68824  0.43373  Biso   1.000  O
  O89      1.0000 0.94253  0.05487  0.43400  Biso   1.000  O
  O90      1.0000 0.91872  0.94918  0.36440  Biso   1.000  O
  O91      1.0000 0.74086  0.05564  0.13078  Biso   1.000  O
  O92      1.0000 0.75451  0.97282  0.06627  Biso   1.000  O
  O93      1.0000 0.37913  0.44513  0.38766  Biso   1.000  O
  O94      1.0000 0.41522  0.55082  0.46954  Biso   1.000  O
  O95      1.0000 0.07514  0.44436  0.18522  Biso   1.000  O
  O96      1.0000 0.09345  0.52718  0.28169  Biso   1.000  O
