data_image0
_cell_length_a       4.8218
_cell_length_b       18.295
_cell_length_c       19.8911
_cell_angle_alpha    90
_cell_angle_beta     90
_cell_angle_gamma    95.077

_symmetry_space_group_name_H-M    P 1
_symmetry_int_tables_number       1

loop_
  _symmetry_equiv_pos_as_xyz
  'x, y, z'

loop_
  _atom_site_label
  _atom_site_occupancy
  _atom_site_fract_x
  _atom_site_fract_y
  _atom_site_fract_z
  _atom_site_thermal_displace_type
  _atom_site_B_iso_or_equiv
  _atom_site_type_symbol
  Cu1      1.0000 0.97798  0.79760  0.29644  Biso   1.000  Cu
  Cu2      1.0000 0.42034  0.74874  0.15741  Biso   1.000  Cu
  Cu3      1.0000 0.89270  0.70350  0.03000  Biso   1.000  Cu
  Cu4      1.0000 0.52202  0.70240  0.79644  Biso   1.000  Cu
  Cu5      1.0000 0.07966  0.75126  0.65741  Biso   1.000  Cu
  Cu6      1.0000 0.60730  0.79650  0.53000  Biso   1.000  Cu
  Cu7      1.0000 0.02202  0.20240  0.70356  Biso   1.000  Cu
  Cu8      1.0000 0.57966  0.25126  0.84259  Biso   1.000  Cu
  Cu9      1.0000 0.10730  0.29650  0.97000  Biso   1.000  Cu
  Cu10     1.0000 0.47798  0.29760  0.20356  Biso   1.000  Cu
  Cu11     1.0000 0.92034  0.24874  0.34259  Biso   1.000  Cu
  Cu12     1.0000 0.39270  0.20350  0.47000  Biso   1.000  Cu
  P1       1.0000 0.92290  0.65153  0.17460  Biso   1.000  P
  P2       1.0000 0.07240  0.73160  0.44278  Biso   1.000  P
  P3       1.0000 0.42390  0.34679  0.35278  Biso   1.000  P
  P4       1.0000 0.57710  0.84847  0.67460  Biso   1.000  P
  P5       1.0000 0.42760  0.76840  0.94278  Biso   1.000  P
  P6       1.0000 0.07610  0.15321  0.85278  Biso   1.000  P
  P7       1.0000 0.07710  0.34847  0.82540  Biso   1.000  P
  P8       1.0000 0.92760  0.26840  0.55722  Biso   1.000  P
  P9       1.0000 0.57610  0.65321  0.64722  Biso   1.000  P
  P10      1.0000 0.42290  0.15153  0.32540  Biso   1.000  P
  P11      1.0000 0.57240  0.23160  0.05722  Biso   1.000  P
  P12      1.0000 0.92390  0.84679  0.14722  Biso   1.000  P
  H1       1.0000 0.61950  0.69480  0.28100  Biso   1.000  H
  H2       1.0000 0.48940  0.73290  0.32930  Biso   1.000  H
  H3       1.0000 0.36530  0.89870  0.25810  Biso   1.000  H
  H4       1.0000 0.40350  0.87910  0.32380  Biso   1.000  H
  H5       1.0000 0.19630  0.62500  0.31790  Biso   1.000  H
  H6       1.0000 0.70340  0.52970  0.45960  Biso   1.000  H
  H7       1.0000 0.55850  0.48100  0.26710  Biso   1.000  H
  H8       1.0000 0.86530  0.52600  0.18190  Biso   1.000  H
  H9       1.0000 0.16930  0.55430  0.20260  Biso   1.000  H
  H10      1.0000 0.32130  0.63000  0.44560  Biso   1.000  H
  H11      1.0000 0.06450  0.61860  0.49380  Biso   1.000  H
  H12      1.0000 0.19700  0.44990  0.37210  Biso   1.000  H
  H13      1.0000 0.36990  0.43160  0.43570  Biso   1.000  H
  H14      1.0000 0.88050  0.80520  0.78100  Biso   1.000  H
  H15      1.0000 0.01060  0.76710  0.82930  Biso   1.000  H
  H16      1.0000 0.13470  0.60130  0.75810  Biso   1.000  H
  H17      1.0000 0.09650  0.62090  0.82380  Biso   1.000  H
  H18      1.0000 0.30370  0.87500  0.81790  Biso   1.000  H
  H19      1.0000 0.79660  0.97030  0.95960  Biso   1.000  H
  H20      1.0000 0.94150  0.01900  0.76710  Biso   1.000  H
  H21      1.0000 0.63470  0.97400  0.68190  Biso   1.000  H
  H22      1.0000 0.33070  0.94570  0.70260  Biso   1.000  H
  H23      1.0000 0.17870  0.87000  0.94560  Biso   1.000  H
  H24      1.0000 0.43550  0.88140  0.99380  Biso   1.000  H
  H25      1.0000 0.30300  0.05010  0.87210  Biso   1.000  H
  H26      1.0000 0.13010  0.06840  0.93570  Biso   1.000  H
  H27      1.0000 0.38050  0.30520  0.71900  Biso   1.000  H
  H28      1.0000 0.51060  0.26710  0.67070  Biso   1.000  H
  H29      1.0000 0.63470  0.10130  0.74190  Biso   1.000  H
  H30      1.0000 0.59650  0.12090  0.67620  Biso   1.000  H
  H31      1.0000 0.80370  0.37500  0.68210  Biso   1.000  H
  H32      1.0000 0.29660  0.47030  0.54040  Biso   1.000  H
  H33      1.0000 0.44150  0.51900  0.73290  Biso   1.000  H
  H34      1.0000 0.13470  0.47400  0.81810  Biso   1.000  H
  H35      1.0000 0.83070  0.44570  0.79740  Biso   1.000  H
  H36      1.0000 0.67870  0.37000  0.55440  Biso   1.000  H
  H37      1.0000 0.93550  0.38140  0.50620  Biso   1.000  H
  H38      1.0000 0.80300  0.55010  0.62790  Biso   1.000  H
  H39      1.0000 0.63010  0.56840  0.56430  Biso   1.000  H
  H40      1.0000 0.11950  0.19480  0.21900  Biso   1.000  H
  H41      1.0000 0.98940  0.23290  0.17070  Biso   1.000  H
  H42      1.0000 0.86530  0.39870  0.24190  Biso   1.000  H
  H43      1.0000 0.90350  0.37910  0.17620  Biso   1.000  H
  H44      1.0000 0.69630  0.12500  0.18210  Biso   1.000  H
  H45      1.0000 0.20340  0.02970  0.04040  Biso   1.000  H
  H46      1.0000 0.05850  0.98100  0.23290  Biso   1.000  H
  H47      1.0000 0.36530  0.02600  0.31810  Biso   1.000  H
  H48      1.0000 0.66930  0.05430  0.29740  Biso   1.000  H
  H49      1.0000 0.82130  0.13000  0.05440  Biso   1.000  H
  H50      1.0000 0.56450  0.11860  0.00620  Biso   1.000  H
  H51      1.0000 0.69700  0.94990  0.12790  Biso   1.000  H
  H52      1.0000 0.86990  0.93160  0.06430  Biso   1.000  H
  C1       1.0000 0.89660  0.55380  0.28120  Biso   1.000  C
  C2       1.0000 0.04320  0.59330  0.33020  Biso   1.000  C
  C3       1.0000 0.97010  0.58750  0.39740  Biso   1.000  C
  C4       1.0000 0.75070  0.53600  0.41450  Biso   1.000  C
  C5       1.0000 0.60170  0.49420  0.36710  Biso   1.000  C
  C6       1.0000 0.66730  0.50560  0.30010  Biso   1.000  C
  C7       1.0000 0.97490  0.56300  0.20790  Biso   1.000  C
  C8       1.0000 0.12380  0.63560  0.44950  Biso   1.000  C
  C9       1.0000 0.37550  0.43520  0.38700  Biso   1.000  C
  C10      1.0000 0.60340  0.94620  0.78120  Biso   1.000  C
  C11      1.0000 0.45680  0.90670  0.83020  Biso   1.000  C
  C12      1.0000 0.52990  0.91250  0.89740  Biso   1.000  C
  C13      1.0000 0.74930  0.96400  0.91450  Biso   1.000  C
  C14      1.0000 0.89830  0.00580  0.86710  Biso   1.000  C
  C15      1.0000 0.83270  0.99440  0.80010  Biso   1.000  C
  C16      1.0000 0.52510  0.93700  0.70790  Biso   1.000  C
  C17      1.0000 0.37620  0.86440  0.94950  Biso   1.000  C
  C18      1.0000 0.12450  0.06480  0.88700  Biso   1.000  C
  C19      1.0000 0.10340  0.44620  0.71880  Biso   1.000  C
  C20      1.0000 0.95680  0.40670  0.66980  Biso   1.000  C
  C21      1.0000 0.02990  0.41250  0.60260  Biso   1.000  C
  C22      1.0000 0.24930  0.46400  0.58550  Biso   1.000  C
  C23      1.0000 0.39830  0.50580  0.63290  Biso   1.000  C
  C24      1.0000 0.33270  0.49440  0.69990  Biso   1.000  C
  C25      1.0000 0.02510  0.43700  0.79210  Biso   1.000  C
  C26      1.0000 0.87620  0.36440  0.55050  Biso   1.000  C
  C27      1.0000 0.62450  0.56480  0.61300  Biso   1.000  C
  C28      1.0000 0.39660  0.05380  0.21880  Biso   1.000  C
  C29      1.0000 0.54320  0.09330  0.16980  Biso   1.000  C
  C30      1.0000 0.47010  0.08750  0.10260  Biso   1.000  C
  C31      1.0000 0.25070  0.03600  0.08550  Biso   1.000  C
  C32      1.0000 0.10170  0.99420  0.13290  Biso   1.000  C
  C33      1.0000 0.16730  0.00560  0.19990  Biso   1.000  C
  C34      1.0000 0.47490  0.06300  0.29210  Biso   1.000  C
  C35      1.0000 0.62380  0.13560  0.05050  Biso   1.000  C
  C36      1.0000 0.87550  0.93520  0.11300  Biso   1.000  C
  O1       1.0000 0.10990  0.70920  0.21328  Biso   1.000  O
  O2       1.0000 0.61610  0.66330  0.18326  Biso   1.000  O
  O3       1.0000 0.01270  0.65240  0.10130  Biso   1.000  O
  O4       1.0000 0.16440  0.75700  0.37253  Biso   1.000  O
  O5       1.0000 0.76620  0.74330  0.45412  Biso   1.000  O
  O6       1.0000 0.24680  0.77240  0.49710  Biso   1.000  O
  O7       1.0000 0.31250  0.34366  0.28094  Biso   1.000  O
  O8       1.0000 0.23930  0.28933  0.39503  Biso   1.000  O
  O9       1.0000 0.73090  0.33485  0.35978  Biso   1.000  O
  O10      1.0000 0.64440  0.72886  0.30996  Biso   1.000  O
  O11      1.0000 0.30450  0.86958  0.28903  Biso   1.000  O
  O12      1.0000 0.56040  0.62860  0.03590  Biso   1.000  O
  O13      1.0000 0.39010  0.79080  0.71328  Biso   1.000  O
  O14      1.0000 0.88390  0.83670  0.68326  Biso   1.000  O
  O15      1.0000 0.48730  0.84760  0.60130  Biso   1.000  O
  O16      1.0000 0.33560  0.74300  0.87253  Biso   1.000  O
  O17      1.0000 0.73380  0.75670  0.95412  Biso   1.000  O
  O18      1.0000 0.25320  0.72760  0.99710  Biso   1.000  O
  O19      1.0000 0.18750  0.15634  0.78094  Biso   1.000  O
  O20      1.0000 0.26070  0.21067  0.89503  Biso   1.000  O
  O21      1.0000 0.76910  0.16515  0.85978  Biso   1.000  O
  O22      1.0000 0.85560  0.77114  0.80996  Biso   1.000  O
  O23      1.0000 0.19550  0.63042  0.78903  Biso   1.000  O
  O24      1.0000 0.93960  0.87140  0.53590  Biso   1.000  O
  O25      1.0000 0.89010  0.29080  0.78672  Biso   1.000  O
  O26      1.0000 0.38390  0.33670  0.81674  Biso   1.000  O
  O27      1.0000 0.98730  0.34760  0.89870  Biso   1.000  O
  O28      1.0000 0.83560  0.24300  0.62747  Biso   1.000  O
  O29      1.0000 0.23380  0.25670  0.54588  Biso   1.000  O
  O30      1.0000 0.75320  0.22760  0.50290  Biso   1.000  O
  O31      1.0000 0.68750  0.65634  0.71906  Biso   1.000  O
  O32      1.0000 0.76070  0.71067  0.60497  Biso   1.000  O
  O33      1.0000 0.26910  0.66515  0.64022  Biso   1.000  O
  O34      1.0000 0.35560  0.27114  0.69004  Biso   1.000  O
  O35      1.0000 0.69550  0.13042  0.71097  Biso   1.000  O
  O36      1.0000 0.43960  0.37140  0.96410  Biso   1.000  O
  O37      1.0000 0.60990  0.20920  0.28672  Biso   1.000  O
  O38      1.0000 0.11610  0.16330  0.31674  Biso   1.000  O
  O39      1.0000 0.51270  0.15240  0.39870  Biso   1.000  O
  O40      1.0000 0.66440  0.25700  0.12747  Biso   1.000  O
  O41      1.0000 0.26620  0.24330  0.04588  Biso   1.000  O
  O42      1.0000 0.74680  0.27240  0.00290  Biso   1.000  O
  O43      1.0000 0.81250  0.84366  0.21906  Biso   1.000  O
  O44      1.0000 0.73930  0.78933  0.10497  Biso   1.000  O
  O45      1.0000 0.23090  0.83485  0.14022  Biso   1.000  O
  O46      1.0000 0.14440  0.22886  0.19004  Biso   1.000  O
  O47      1.0000 0.80450  0.36958  0.21097  Biso   1.000  O
  O48      1.0000 0.06040  0.12860  0.46410  Biso   1.000  O
