data_image0
_cell_length_a       9.6398
_cell_length_b       13.065
_cell_length_c       21.054
_cell_angle_alpha    102.46
_cell_angle_beta     102.39
_cell_angle_gamma    99.52

_symmetry_space_group_name_H-M    P 1
_symmetry_int_tables_number       1

loop_
  _symmetry_equiv_pos_as_xyz
  'x, y, z'

loop_
  _atom_site_label
  _atom_site_occupancy
  _atom_site_fract_x
  _atom_site_fract_y
  _atom_site_fract_z
  _atom_site_thermal_displace_type
  _atom_site_B_iso_or_equiv
  _atom_site_type_symbol
  Cd1      1.0000 0.08026  0.83052  0.10420  Biso   1.000  Cd
  Cd2      1.0000 0.83287  0.10745  0.54436  Biso   1.000  Cd
  Cd3      1.0000 0.91974  0.16948  0.89580  Biso   1.000  Cd
  Cd4      1.0000 0.16713  0.89255  0.45564  Biso   1.000  Cd
  H1       1.0000 0.54260  0.73480  0.17120  Biso   1.000  H
  H2       1.0000 0.75370  0.72590  0.24410  Biso   1.000  H
  H3       1.0000 0.46670  0.95200  0.31800  Biso   1.000  H
  H4       1.0000 0.76630  0.64690  0.10720  Biso   1.000  H
  H5       1.0000 0.16120  0.61980  0.17200  Biso   1.000  H
  H6       1.0000 0.05910  0.40250  0.17860  Biso   1.000  H
  H7       1.0000 0.09230  0.48450  0.24910  Biso   1.000  H
  H8       1.0000 0.99830  0.56230  0.31020  Biso   1.000  H
  H9       1.0000 0.85340  0.56960  0.33160  Biso   1.000  H
  H10      1.0000 0.97220  0.52370  0.37310  Biso   1.000  H
  H11      1.0000 0.92900  0.20520  0.11500  Biso   1.000  H
  H12      1.0000 0.76810  0.20520  0.08030  Biso   1.000  H
  H13      1.0000 0.89010  0.31030  0.09910  Biso   1.000  H
  H14      1.0000 0.55310  0.20460  0.31860  Biso   1.000  H
  H15      1.0000 0.50750  0.12610  0.24620  Biso   1.000  H
  H16      1.0000 0.63890  0.11500  0.30090  Biso   1.000  H
  H17      1.0000 0.60640  0.35940  0.35960  Biso   1.000  H
  H18      1.0000 0.73260  0.46240  0.38050  Biso   1.000  H
  H19      1.0000 0.63730  0.24880  0.44720  Biso   1.000  H
  H20      1.0000 0.05570  0.31910  0.51270  Biso   1.000  H
  H21      1.0000 0.64210  0.09630  0.10990  Biso   1.000  H
  H22      1.0000 0.58210  0.06340  0.16790  Biso   1.000  H
  H23      1.0000 0.80610  0.97150  0.07390  Biso   1.000  H
  H24      1.0000 0.97350  0.92240  0.24560  Biso   1.000  H
  H25      1.0000 0.91410  0.58220  0.98530  Biso   1.000  H
  H26      1.0000 0.84500  0.85870  0.96710  Biso   1.000  H
  H27      1.0000 0.54780  0.69440  0.85530  Biso   1.000  H
  H28      1.0000 0.65020  0.80040  0.85450  Biso   1.000  H
  H29      1.0000 0.51120  0.43230  0.78100  Biso   1.000  H
  H30      1.0000 0.51070  0.53970  0.83140  Biso   1.000  H
  H31      1.0000 0.38750  0.49400  0.76400  Biso   1.000  H
  H32      1.0000 0.77690  0.88940  0.76430  Biso   1.000  H
  H33      1.0000 0.83380  0.85730  0.83110  Biso   1.000  H
  H34      1.0000 0.92400  0.85140  0.77720  Biso   1.000  H
  H35      1.0000 0.76460  0.49390  0.58210  Biso   1.000  H
  H36      1.0000 0.59390  0.46520  0.55950  Biso   1.000  H
  H37      1.0000 0.68010  0.57570  0.55590  Biso   1.000  H
  H38      1.0000 0.44530  0.40140  0.60420  Biso   1.000  H
  H39      1.0000 0.42990  0.38220  0.67370  Biso   1.000  H
  H40      1.0000 0.52330  0.22850  0.55180  Biso   1.000  H
  H41      1.0000 0.84450  0.23580  0.69890  Biso   1.000  H
  H42      1.0000 0.88270  0.68170  0.62020  Biso   1.000  H
  H43      1.0000 0.95040  0.76970  0.68850  Biso   1.000  H
  H44      1.0000 0.98030  0.91900  0.62050  Biso   1.000  H
  H45      1.0000 0.56950  0.91170  0.55860  Biso   1.000  H
  H46      1.0000 0.45740  0.26520  0.82880  Biso   1.000  H
  H47      1.0000 0.24630  0.27410  0.75590  Biso   1.000  H
  H48      1.0000 0.53330  0.04800  0.68200  Biso   1.000  H
  H49      1.0000 0.23370  0.35310  0.89280  Biso   1.000  H
  H50      1.0000 0.83880  0.38020  0.82800  Biso   1.000  H
  H51      1.0000 0.94090  0.59750  0.82140  Biso   1.000  H
  H52      1.0000 0.90770  0.51550  0.75090  Biso   1.000  H
  H53      1.0000 0.00170  0.43770  0.68980  Biso   1.000  H
  H54      1.0000 0.14660  0.43040  0.66840  Biso   1.000  H
  H55      1.0000 0.02780  0.47630  0.62690  Biso   1.000  H
  H56      1.0000 0.07100  0.79480  0.88500  Biso   1.000  H
  H57      1.0000 0.23190  0.79480  0.91970  Biso   1.000  H
  H58      1.0000 0.10990  0.68970  0.90090  Biso   1.000  H
  H59      1.0000 0.44690  0.79540  0.68140  Biso   1.000  H
  H60      1.0000 0.49250  0.87390  0.75380  Biso   1.000  H
  H61      1.0000 0.36110  0.88500  0.69910  Biso   1.000  H
  H62      1.0000 0.39360  0.64060  0.64040  Biso   1.000  H
  H63      1.0000 0.26740  0.53760  0.61950  Biso   1.000  H
  H64      1.0000 0.36270  0.75120  0.55280  Biso   1.000  H
  H65      1.0000 0.94430  0.68090  0.48730  Biso   1.000  H
  H66      1.0000 0.35790  0.90370  0.89010  Biso   1.000  H
  H67      1.0000 0.41790  0.93660  0.83210  Biso   1.000  H
  H68      1.0000 0.19390  0.02850  0.92610  Biso   1.000  H
  H69      1.0000 0.02650  0.07760  0.75440  Biso   1.000  H
  H70      1.0000 0.08590  0.41780  0.01470  Biso   1.000  H
  H71      1.0000 0.15500  0.14130  0.03290  Biso   1.000  H
  H72      1.0000 0.45220  0.30560  0.14470  Biso   1.000  H
  H73      1.0000 0.34980  0.19960  0.14550  Biso   1.000  H
  H74      1.0000 0.48880  0.56770  0.21900  Biso   1.000  H
  H75      1.0000 0.48930  0.46030  0.16860  Biso   1.000  H
  H76      1.0000 0.61250  0.50600  0.23600  Biso   1.000  H
  H77      1.0000 0.22310  0.11060  0.23570  Biso   1.000  H
  H78      1.0000 0.16620  0.14270  0.16890  Biso   1.000  H
  H79      1.0000 0.07600  0.14860  0.22280  Biso   1.000  H
  H80      1.0000 0.23540  0.50610  0.41790  Biso   1.000  H
  H81      1.0000 0.40610  0.53480  0.44050  Biso   1.000  H
  H82      1.0000 0.31990  0.42430  0.44410  Biso   1.000  H
  H83      1.0000 0.55470  0.59860  0.39580  Biso   1.000  H
  H84      1.0000 0.57010  0.61780  0.32630  Biso   1.000  H
  H85      1.0000 0.47670  0.77150  0.44820  Biso   1.000  H
  H86      1.0000 0.15550  0.76420  0.30110  Biso   1.000  H
  H87      1.0000 0.11730  0.31830  0.37980  Biso   1.000  H
  H88      1.0000 0.04960  0.23030  0.31150  Biso   1.000  H
  H89      1.0000 0.01970  0.08100  0.37950  Biso   1.000  H
  H90      1.0000 0.43050  0.08830  0.44140  Biso   1.000  H
  C1       1.0000 0.33850  0.84040  0.19170  Biso   1.000  C
  C2       1.0000 0.48160  0.84240  0.23760  Biso   1.000  C
  C3       1.0000 0.56920  0.77620  0.21560  Biso   1.000  C
  C4       1.0000 0.69590  0.77120  0.25910  Biso   1.000  C
  C5       1.0000 0.73740  0.83360  0.32536  Biso   1.000  C
  C6       1.0000 0.65440  0.90580  0.34714  Biso   1.000  C
  C7       1.0000 0.52520  0.90710  0.30325  Biso   1.000  C
  C8       1.0000 0.86770  0.81960  0.37340  Biso   1.000  C
  C9       1.0000 0.70780  0.98200  0.41615  Biso   1.000  C
  C10      1.0000 0.84590  0.62250  0.12700  Biso   1.000  C
  C11      1.0000 0.06030  0.60930  0.16210  Biso   1.000  C
  C12      1.0000 0.01710  0.44910  0.20780  Biso   1.000  C
  C13      1.0000 0.89440  0.38070  0.22440  Biso   1.000  C
  C14      1.0000 0.85630  0.41650  0.28420  Biso   1.000  C
  C15      1.0000 0.75270  0.34680  0.30240  Biso   1.000  C
  C16      1.0000 0.69130  0.24180  0.26140  Biso   1.000  C
  C17      1.0000 0.72810  0.20880  0.20060  Biso   1.000  C
  C18      1.0000 0.82650  0.27960  0.18090  Biso   1.000  C
  C19      1.0000 0.92640  0.52820  0.32880  Biso   1.000  C
  C20      1.0000 0.85610  0.24710  0.11260  Biso   1.000  C
  C21      1.0000 0.58820  0.16480  0.28380  Biso   1.000  C
  C22      1.0000 0.71050  0.38450  0.36710  Biso   1.000  C
  C23      1.0000 0.73570  0.27800  0.45390  Biso   1.000  C
  C24      1.0000 0.96200  0.31750  0.48870  Biso   1.000  C
  C25      1.0000 0.66910  0.09490  0.15680  Biso   1.000  C
  C26      1.0000 0.82960  0.97320  0.11930  Biso   1.000  C
  C27      1.0000 0.91900  0.94800  0.21290  Biso   1.000  C
  C28      1.0000 0.87700  0.63470  0.96800  Biso   1.000  C
  C29      1.0000 0.84160  0.78540  0.95940  Biso   1.000  C
  C30      1.0000 0.64300  0.72420  0.85060  Biso   1.000  C
  C31      1.0000 0.65600  0.67060  0.78186  Biso   1.000  C
  C32      1.0000 0.57900  0.56450  0.75000  Biso   1.000  C
  C33      1.0000 0.58690  0.51670  0.68460  Biso   1.000  C
  C34      1.0000 0.67420  0.57280  0.65230  Biso   1.000  C
  C35      1.0000 0.75580  0.67670  0.68630  Biso   1.000  C
  C36      1.0000 0.74570  0.72640  0.75010  Biso   1.000  C
  C37      1.0000 0.48900  0.50200  0.78480  Biso   1.000  C
  C38      1.0000 0.82760  0.84170  0.78380  Biso   1.000  C
  C39      1.0000 0.67860  0.52230  0.58090  Biso   1.000  C
  C40      1.0000 0.49940  0.40310  0.64910  Biso   1.000  C
  C41      1.0000 0.59090  0.24680  0.59350  Biso   1.000  C
  C42      1.0000 0.76330  0.25210  0.67380  Biso   1.000  C
  C43      1.0000 0.86030  0.73440  0.65440  Biso   1.000  C
  C44      1.0000 0.87930  0.89940  0.61060  Biso   1.000  C
  C45      1.0000 0.65560  0.89350  0.57710  Biso   1.000  C
  C46      1.0000 0.66150  0.15960  0.80830  Biso   1.000  C
  C47      1.0000 0.51840  0.15760  0.76240  Biso   1.000  C
  C48      1.0000 0.43080  0.22380  0.78440  Biso   1.000  C
  C49      1.0000 0.30410  0.22880  0.74090  Biso   1.000  C
  C50      1.0000 0.26260  0.16640  0.67464  Biso   1.000  C
  C51      1.0000 0.34560  0.09420  0.65286  Biso   1.000  C
  C52      1.0000 0.47480  0.09290  0.69675  Biso   1.000  C
  C53      1.0000 0.13230  0.18040  0.62660  Biso   1.000  C
  C54      1.0000 0.29220  0.01800  0.58385  Biso   1.000  C
  C55      1.0000 0.15410  0.37750  0.87300  Biso   1.000  C
  C56      1.0000 0.93970  0.39070  0.83790  Biso   1.000  C
  C57      1.0000 0.98290  0.55090  0.79220  Biso   1.000  C
  C58      1.0000 0.10560  0.61930  0.77560  Biso   1.000  C
  C59      1.0000 0.14370  0.58350  0.71580  Biso   1.000  C
  C60      1.0000 0.24730  0.65320  0.69760  Biso   1.000  C
  C61      1.0000 0.30870  0.75820  0.73860  Biso   1.000  C
  C62      1.0000 0.27190  0.79120  0.79940  Biso   1.000  C
  C63      1.0000 0.17350  0.72040  0.81910  Biso   1.000  C
  C64      1.0000 0.07360  0.47180  0.67120  Biso   1.000  C
  C65      1.0000 0.14390  0.75290  0.88740  Biso   1.000  C
  C66      1.0000 0.41180  0.83520  0.71620  Biso   1.000  C
  C67      1.0000 0.28950  0.61550  0.63290  Biso   1.000  C
  C68      1.0000 0.26430  0.72200  0.54610  Biso   1.000  C
  C69      1.0000 0.03800  0.68250  0.51130  Biso   1.000  C
  C70      1.0000 0.33090  0.90510  0.84320  Biso   1.000  C
  C71      1.0000 0.17040  0.02680  0.88070  Biso   1.000  C
  C72      1.0000 0.08100  0.05200  0.78710  Biso   1.000  C
  C73      1.0000 0.12300  0.36530  0.03200  Biso   1.000  C
  C74      1.0000 0.15840  0.21460  0.04060  Biso   1.000  C
  C75      1.0000 0.35700  0.27580  0.14940  Biso   1.000  C
  C76      1.0000 0.34400  0.32940  0.21814  Biso   1.000  C
  C77      1.0000 0.42100  0.43550  0.25000  Biso   1.000  C
  C78      1.0000 0.41310  0.48330  0.31540  Biso   1.000  C
  C79      1.0000 0.32580  0.42720  0.34770  Biso   1.000  C
  C80      1.0000 0.24420  0.32330  0.31370  Biso   1.000  C
  C81      1.0000 0.25430  0.27360  0.24990  Biso   1.000  C
  C82      1.0000 0.51100  0.49800  0.21520  Biso   1.000  C
  C83      1.0000 0.17240  0.15830  0.21620  Biso   1.000  C
  C84      1.0000 0.32140  0.47770  0.41910  Biso   1.000  C
  C85      1.0000 0.50060  0.59690  0.35090  Biso   1.000  C
  C86      1.0000 0.40910  0.75320  0.40650  Biso   1.000  C
  C87      1.0000 0.23670  0.74790  0.32620  Biso   1.000  C
  C88      1.0000 0.13970  0.26560  0.34560  Biso   1.000  C
  C89      1.0000 0.12070  0.10060  0.38940  Biso   1.000  C
  C90      1.0000 0.34440  0.10650  0.42290  Biso   1.000  C
  N1       1.0000 0.98400  0.67020  0.13335  Biso   1.000  N
  N2       1.0000 0.97280  0.53180  0.17457  Biso   1.000  N
  N3       1.0000 0.83360  0.53710  0.15140  Biso   1.000  N
  N4       1.0000 0.78760  0.34500  0.42144  Biso   1.000  N
  N5       1.0000 0.93570  0.37290  0.44400  Biso   1.000  N
  N6       1.0000 0.84190  0.25820  0.49701  Biso   1.000  N
  N7       1.0000 0.77570  0.02830  0.16566  Biso   1.000  N
  N8       1.0000 0.83250  0.01390  0.22680  Biso   1.000  N
  N9       1.0000 0.92210  0.92100  0.14791  Biso   1.000  N
  N10      1.0000 0.92110  0.74080  0.99997  Biso   1.000  N
  N11      1.0000 0.75590  0.71060  0.90590  Biso   1.000  N
  N12      1.0000 0.77760  0.61200  0.91040  Biso   1.000  N
  N13      1.0000 0.59370  0.32650  0.64421  Biso   1.000  N
  N14      1.0000 0.70510  0.33070  0.69796  Biso   1.000  N
  N15      1.0000 0.69530  0.19600  0.60874  Biso   1.000  N
  N16      1.0000 0.80340  0.81450  0.62358  Biso   1.000  N
  N17      1.0000 0.65850  0.80840  0.60130  Biso   1.000  N
  N18      1.0000 0.78780  0.95140  0.58135  Biso   1.000  N
  N19      1.0000 0.01600  0.32980  0.86665  Biso   1.000  N
  N20      1.0000 0.02720  0.46820  0.82543  Biso   1.000  N
  N21      1.0000 0.16640  0.46290  0.84860  Biso   1.000  N
  N22      1.0000 0.21240  0.65500  0.57856  Biso   1.000  N
  N23      1.0000 0.06430  0.62710  0.55600  Biso   1.000  N
  N24      1.0000 0.15810  0.74180  0.50299  Biso   1.000  N
  N25      1.0000 0.22430  0.97170  0.83434  Biso   1.000  N
  N26      1.0000 0.16750  0.98610  0.77320  Biso   1.000  N
  N27      1.0000 0.07790  0.07900  0.85209  Biso   1.000  N
  N28      1.0000 0.07890  0.25920  0.00003  Biso   1.000  N
  N29      1.0000 0.24410  0.28940  0.09410  Biso   1.000  N
  N30      1.0000 0.22240  0.38800  0.08960  Biso   1.000  N
  N31      1.0000 0.40630  0.67350  0.35579  Biso   1.000  N
  N32      1.0000 0.29490  0.66930  0.30204  Biso   1.000  N
  N33      1.0000 0.30470  0.80400  0.39126  Biso   1.000  N
  N34      1.0000 0.19660  0.18550  0.37642  Biso   1.000  N
  N35      1.0000 0.34150  0.19160  0.39870  Biso   1.000  N
  N36      1.0000 0.21220  0.04860  0.41865  Biso   1.000  N
  Cl1      1.0000 0.20325  0.96675  0.05210  Biso   1.000  Cl
  Cl2      1.0000 0.79675  0.03325  0.94790  Biso   1.000  Cl
  O1       1.0000 0.30130  0.77730  0.13250  Biso   1.000  O
  O2       1.0000 0.25670  0.89720  0.21214  Biso   1.000  O
  O3       1.0000 0.61960  0.01140  0.44739  Biso   1.000  O
  O4       1.0000 0.84400  0.01500  0.44016  Biso   1.000  O
  O5       1.0000 0.84510  0.78050  0.41990  Biso   1.000  O
  O6       1.0000 0.98770  0.84280  0.36080  Biso   1.000  O
  O7       1.0000 0.69870  0.22270  0.86750  Biso   1.000  O
  O8       1.0000 0.74330  0.10280  0.78786  Biso   1.000  O
  O9       1.0000 0.38040  0.98860  0.55261  Biso   1.000  O
  O10      1.0000 0.15600  0.98500  0.55984  Biso   1.000  O
  O11      1.0000 0.15490  0.21950  0.58010  Biso   1.000  O
  O12      1.0000 0.01230  0.15720  0.63920  Biso   1.000  O
