data_image0
_cell_length_a       8.548
_cell_length_b       21.092
_cell_length_c       8.695
_cell_angle_alpha    90
_cell_angle_beta     90
_cell_angle_gamma    90

_symmetry_space_group_name_H-M    "P 1"
_symmetry_int_tables_number       1

loop_
  _symmetry_equiv_pos_as_xyz
  'x, y, z'

loop_
  _atom_site_label
  _atom_site_occupancy
  _atom_site_fract_x
  _atom_site_fract_y
  _atom_site_fract_z
  _atom_site_thermal_displace_type
  _atom_site_B_iso_or_equiv
  _atom_site_type_symbol
  Cd1      1.0000 0.00000  0.00000  0.00000  Biso   1.000  Cd
  Cd2      1.0000 0.50000  0.50000  0.00000  Biso   1.000  Cd
  Cd3      1.0000 0.00000  0.83397  0.50000  Biso   1.000  Cd
  Cd4      1.0000 0.50000  0.33397  0.50000  Biso   1.000  Cd
  Cd5      1.0000 0.00000  0.16603  0.50000  Biso   1.000  Cd
  Cd6      1.0000 0.50000  0.66603  0.50000  Biso   1.000  Cd
  N1       1.0000 0.00000  0.92390  0.18760  Biso   1.000  N
  C1       1.0000 0.00000  0.89160  0.28950  Biso   1.000  C
  N2       1.0000 0.50000  0.42390  0.18760  Biso   1.000  N
  C2       1.0000 0.50000  0.39160  0.28950  Biso   1.000  C
  N3       1.0000 0.00000  0.07610  0.18760  Biso   1.000  N
  C3       1.0000 0.00000  0.10840  0.28950  Biso   1.000  C
  N4       1.0000 0.50000  0.57610  0.18760  Biso   1.000  N
  C4       1.0000 0.50000  0.60840  0.28950  Biso   1.000  C
  N5       1.0000 0.00000  0.92390  0.81240  Biso   1.000  N
  C5       1.0000 0.00000  0.89160  0.71050  Biso   1.000  C
  N6       1.0000 0.50000  0.42390  0.81240  Biso   1.000  N
  C6       1.0000 0.50000  0.39160  0.71050  Biso   1.000  C
  N7       1.0000 0.00000  0.07610  0.81240  Biso   1.000  N
  C7       1.0000 0.00000  0.10840  0.71050  Biso   1.000  C
  N8       1.0000 0.50000  0.57610  0.81240  Biso   1.000  N
  C8       1.0000 0.50000  0.60840  0.71050  Biso   1.000  C
  N9       1.0000 0.78500  0.77250  0.50000  Biso   1.000  N
  C9       1.0000 0.82200  0.75980  0.50000  Biso   1.000  C
  N10      1.0000 0.28500  0.27250  0.50000  Biso   1.000  N
  C10      1.0000 0.32200  0.25980  0.50000  Biso   1.000  C
  N11      1.0000 0.21500  0.22750  0.50000  Biso   1.000  N
  C11      1.0000 0.17800  0.24020  0.50000  Biso   1.000  C
  N12      1.0000 0.71500  0.72750  0.50000  Biso   1.000  N
  C12      1.0000 0.67800  0.74020  0.50000  Biso   1.000  C
  N13      1.0000 0.21500  0.77250  0.50000  Biso   1.000  N
  C13      1.0000 0.17800  0.75980  0.50000  Biso   1.000  C
  N14      1.0000 0.71500  0.27250  0.50000  Biso   1.000  N
  C14      1.0000 0.67800  0.25980  0.50000  Biso   1.000  C
  N15      1.0000 0.78500  0.22750  0.50000  Biso   1.000  N
  C15      1.0000 0.82200  0.24020  0.50000  Biso   1.000  C
  N16      1.0000 0.28500  0.72750  0.50000  Biso   1.000  N
  C16      1.0000 0.32200  0.74020  0.50000  Biso   1.000  C
  O1       1.0000 0.27230  0.00000  0.96380  Biso   1.000  O
  O2       1.0000 0.77230  0.50000  0.96380  Biso   1.000  O
  O3       1.0000 0.72770  0.00000  0.96380  Biso   1.000  O
  O4       1.0000 0.22770  0.50000  0.96380  Biso   1.000  O
  O5       1.0000 0.72770  0.00000  0.03620  Biso   1.000  O
  O6       1.0000 0.22770  0.50000  0.03620  Biso   1.000  O
  O7       1.0000 0.27230  0.00000  0.03620  Biso   1.000  O
  O8       1.0000 0.77230  0.50000  0.03620  Biso   1.000  O
