data_image0
_cell_length_a       8.54804
_cell_length_b       8.695
_cell_length_c       11.3792
_cell_angle_alpha    90
_cell_angle_beta     112.061
_cell_angle_gamma    90

_symmetry_space_group_name_H-M    P 1
_symmetry_int_tables_number       1

loop_
  _symmetry_equiv_pos_as_xyz
  'x, y, z'

loop_
  _atom_site_label
  _atom_site_occupancy
  _atom_site_fract_x
  _atom_site_fract_y
  _atom_site_fract_z
  _atom_site_thermal_displace_type
  _atom_site_B_iso_or_equiv
  _atom_site_type_symbol
  Cd1      1.0000 0.00000  0.00000  0.00000  Biso   1.000  Cd
  Cd2      1.0000 0.16480  0.50000  0.32960  Biso   1.000  Cd
  Cd3      1.0000 0.83250  0.50000  0.66500  Biso   1.000  Cd
  C1       1.0000 0.10740  0.70580  0.21480  Biso   1.000  C
  C2       1.0000 0.92580  0.82710  0.85160  Biso   1.000  C
  C3       1.0000 0.10740  0.29420  0.21480  Biso   1.000  C
  C4       1.0000 0.92580  0.17290  0.85160  Biso   1.000  C
  C5       1.0000 0.43090  0.50000  0.44980  Biso   1.000  C
  C6       1.0000 0.01890  0.50000  0.44980  Biso   1.000  C
  N1       1.0000 0.07480  0.81050  0.14960  Biso   1.000  N
  N2       1.0000 0.89180  0.72550  0.78360  Biso   1.000  N
  N3       1.0000 0.07480  0.18950  0.14960  Biso   1.000  N
  N4       1.0000 0.89180  0.27450  0.78360  Biso   1.000  N
  N5       1.0000 0.56560  0.50000  0.52360  Biso   1.000  N
  N6       1.0000 0.95800  0.50000  0.52360  Biso   1.000  N
  O1       1.0000 0.26860  0.00000  0.99240  Biso   1.000  O
  O2       1.0000 0.72380  0.00000  0.99240  Biso   1.000  O
