data_image0
_cell_length_a       8.8294
_cell_length_b       33.7719
_cell_length_c       8.8052
_cell_angle_alpha    90
_cell_angle_beta     107.901
_cell_angle_gamma    90

_symmetry_space_group_name_H-M    "P 1"
_symmetry_int_tables_number       1

loop_
  _symmetry_equiv_pos_as_xyz
  'x, y, z'

loop_
  _atom_site_label
  _atom_site_occupancy
  _atom_site_fract_x
  _atom_site_fract_y
  _atom_site_fract_z
  _atom_site_thermal_displace_type
  _atom_site_B_iso_or_equiv
  _atom_site_type_symbol
  Cu1      1.0000 0.74697  0.20406  0.49762  Biso   1.000  Cu
  Cu2      1.0000 0.74245  0.04569  0.50213  Biso   1.000  Cu
  O1       1.0000 0.88646  0.15533  0.62327  Biso   1.000  O
  O2       1.0000 0.85721  0.09045  0.63135  Biso   1.000  O
  O3       1.0000 0.61824  0.15976  0.37513  Biso   1.000  O
  O4       1.0000 0.61562  0.09430  0.35651  Biso   1.000  O
  O5       1.0000 0.61971  0.20802  0.66085  Biso   1.000  O
  O6       1.0000 0.59850  0.24970  0.84700  Biso   1.000  O
  O7       1.0000 0.87460  0.24618  0.63822  Biso   1.000  O
  O8       1.0000 0.86365  0.28759  0.82974  Biso   1.000  O
  O9       1.0000 0.91075  0.04012  0.38118  Biso   1.000  O
  O10      1.0000 0.09200  0.99823  0.35078  Biso   1.000  O
  O11      1.0000 0.57543  0.04032  0.62236  Biso   1.000  O
  O12      1.0000 0.38241  0.99852  0.62598  Biso   1.000  O
  C1       1.0000 0.81870  0.12393  0.57220  Biso   1.000  C
  C2       1.0000 0.66990  0.12604  0.42030  Biso   1.000  C
  C3       1.0000 0.81450  0.25919  0.73880  Biso   1.000  C
  C4       1.0000 0.66470  0.23729  0.75210  Biso   1.000  C
  C5       1.0000 0.00220  0.01086  0.42250  Biso   1.000  C
  C6       1.0000 0.48800  0.01139  0.57180  Biso   1.000  C
  Cu3      1.0000 0.25303  0.70406  0.00238  Biso   1.000  Cu
  Cu4      1.0000 0.25755  0.54569  0.99787  Biso   1.000  Cu
  O13      1.0000 0.11354  0.65533  0.87673  Biso   1.000  O
  O14      1.0000 0.14279  0.59045  0.86865  Biso   1.000  O
  O15      1.0000 0.38176  0.65976  0.12487  Biso   1.000  O
  O16      1.0000 0.38438  0.59430  0.14349  Biso   1.000  O
  O17      1.0000 0.38029  0.70802  0.83915  Biso   1.000  O
  O18      1.0000 0.40150  0.74970  0.65300  Biso   1.000  O
  O19      1.0000 0.12540  0.74618  0.86178  Biso   1.000  O
  O20      1.0000 0.13635  0.78759  0.67026  Biso   1.000  O
  O21      1.0000 0.08925  0.54012  0.11882  Biso   1.000  O
  O22      1.0000 0.90800  0.49823  0.14922  Biso   1.000  O
  O23      1.0000 0.42457  0.54032  0.87764  Biso   1.000  O
  O24      1.0000 0.61759  0.49852  0.87402  Biso   1.000  O
  C7       1.0000 0.18130  0.62393  0.92780  Biso   1.000  C
  C8       1.0000 0.33010  0.62604  0.07970  Biso   1.000  C
  C9       1.0000 0.18550  0.75919  0.76120  Biso   1.000  C
  C10      1.0000 0.33530  0.73729  0.74790  Biso   1.000  C
  C11      1.0000 0.99780  0.51086  0.07750  Biso   1.000  C
  C12      1.0000 0.51200  0.51139  0.92820  Biso   1.000  C
  Cu5      1.0000 0.25303  0.79594  0.50238  Biso   1.000  Cu
  Cu6      1.0000 0.25755  0.95431  0.49787  Biso   1.000  Cu
  O25      1.0000 0.11354  0.84467  0.37673  Biso   1.000  O
  O26      1.0000 0.14279  0.90955  0.36865  Biso   1.000  O
  O27      1.0000 0.38176  0.84024  0.62487  Biso   1.000  O
  O28      1.0000 0.38438  0.90570  0.64349  Biso   1.000  O
  O29      1.0000 0.38029  0.79198  0.33915  Biso   1.000  O
  O30      1.0000 0.40150  0.75030  0.15300  Biso   1.000  O
  O31      1.0000 0.12540  0.75382  0.36178  Biso   1.000  O
  O32      1.0000 0.13635  0.71241  0.17026  Biso   1.000  O
  O33      1.0000 0.08925  0.95988  0.61882  Biso   1.000  O
  O34      1.0000 0.90800  0.00177  0.64922  Biso   1.000  O
  O35      1.0000 0.42457  0.95968  0.37764  Biso   1.000  O
  O36      1.0000 0.61759  0.00148  0.37402  Biso   1.000  O
  C13      1.0000 0.18130  0.87607  0.42780  Biso   1.000  C
  C14      1.0000 0.33010  0.87396  0.57970  Biso   1.000  C
  C15      1.0000 0.18550  0.74081  0.26120  Biso   1.000  C
  C16      1.0000 0.33530  0.76271  0.24790  Biso   1.000  C
  C17      1.0000 0.99780  0.98914  0.57750  Biso   1.000  C
  C18      1.0000 0.51200  0.98861  0.42820  Biso   1.000  C
  Cu7      1.0000 0.74697  0.29594  0.99762  Biso   1.000  Cu
  Cu8      1.0000 0.74245  0.45431  0.00213  Biso   1.000  Cu
  O37      1.0000 0.88646  0.34467  0.12327  Biso   1.000  O
  O38      1.0000 0.85721  0.40955  0.13135  Biso   1.000  O
  O39      1.0000 0.61824  0.34024  0.87513  Biso   1.000  O
  O40      1.0000 0.61562  0.40570  0.85651  Biso   1.000  O
  O41      1.0000 0.61971  0.29198  0.16085  Biso   1.000  O
  O42      1.0000 0.59850  0.25030  0.34700  Biso   1.000  O
  O43      1.0000 0.87460  0.25382  0.13822  Biso   1.000  O
  O44      1.0000 0.86365  0.21241  0.32974  Biso   1.000  O
  O45      1.0000 0.91075  0.45988  0.88118  Biso   1.000  O
  O46      1.0000 0.09200  0.50177  0.85078  Biso   1.000  O
  O47      1.0000 0.57543  0.45968  0.12236  Biso   1.000  O
  O48      1.0000 0.38241  0.50148  0.12598  Biso   1.000  O
  C19      1.0000 0.81870  0.37607  0.07220  Biso   1.000  C
  C20      1.0000 0.66990  0.37396  0.92030  Biso   1.000  C
  C21      1.0000 0.81450  0.24081  0.23880  Biso   1.000  C
  C22      1.0000 0.66470  0.26271  0.25210  Biso   1.000  C
  C23      1.0000 0.00220  0.48914  0.92250  Biso   1.000  C
  C24      1.0000 0.48800  0.48861  0.07180  Biso   1.000  C
