data_image0
_cell_length_a       8.6987
_cell_length_b       34.1408
_cell_length_c       8.6081
_cell_angle_alpha    90
_cell_angle_beta     107.578
_cell_angle_gamma    90

_symmetry_space_group_name_H-M    "P 1"
_symmetry_int_tables_number       1

loop_
  _symmetry_equiv_pos_as_xyz
  'x, y, z'

loop_
  _atom_site_label
  _atom_site_occupancy
  _atom_site_fract_x
  _atom_site_fract_y
  _atom_site_fract_z
  _atom_site_thermal_displace_type
  _atom_site_B_iso_or_equiv
  _atom_site_type_symbol
  Cu1      1.0000 0.74864  0.20347  0.48079  Biso   1.000  Cu
  Cu2      1.0000 0.73785  0.04553  0.49830  Biso   1.000  Cu
  O1       1.0000 0.89567  0.15350  0.61059  Biso   1.000  O
  O2       1.0000 0.84818  0.08995  0.62829  Biso   1.000  O
  O3       1.0000 0.62075  0.16010  0.35884  Biso   1.000  O
  O4       1.0000 0.61147  0.09516  0.33753  Biso   1.000  O
  O5       1.0000 0.62359  0.20581  0.64185  Biso   1.000  O
  O6       1.0000 0.58664  0.24810  0.82434  Biso   1.000  O
  O7       1.0000 0.87410  0.24625  0.61530  Biso   1.000  O
  O8       1.0000 0.85791  0.28752  0.80976  Biso   1.000  O
  O9       1.0000 0.90589  0.04080  0.38507  Biso   1.000  O
  O10      1.0000 0.08851  0.00016  0.34265  Biso   1.000  O
  O11      1.0000 0.56971  0.04222  0.61269  Biso   1.000  O
  O12      1.0000 0.37848  0.00003  0.62778  Biso   1.000  O
  C1       1.0000 0.81780  0.12323  0.56220  Biso   1.000  C
  C2       1.0000 0.66950  0.12595  0.40530  Biso   1.000  C
  C3       1.0000 0.81040  0.25863  0.71930  Biso   1.000  C
  C4       1.0000 0.66000  0.23616  0.73230  Biso   1.000  C
  C5       1.0000 0.99990  0.01136  0.42110  Biso   1.000  C
  C6       1.0000 0.48490  0.01226  0.56950  Biso   1.000  C
  Cu3      1.0000 0.25136  0.70347  0.01921  Biso   1.000  Cu
  Cu4      1.0000 0.26215  0.54553  0.00170  Biso   1.000  Cu
  O13      1.0000 0.10433  0.65350  0.88941  Biso   1.000  O
  O14      1.0000 0.15182  0.58995  0.87171  Biso   1.000  O
  O15      1.0000 0.37925  0.66010  0.14116  Biso   1.000  O
  O16      1.0000 0.38853  0.59516  0.16247  Biso   1.000  O
  O17      1.0000 0.37641  0.70581  0.85815  Biso   1.000  O
  O18      1.0000 0.41336  0.74810  0.67566  Biso   1.000  O
  O19      1.0000 0.12590  0.74625  0.88470  Biso   1.000  O
  O20      1.0000 0.14209  0.78752  0.69024  Biso   1.000  O
  O21      1.0000 0.09411  0.54080  0.11493  Biso   1.000  O
  O22      1.0000 0.91149  0.50016  0.15735  Biso   1.000  O
  O23      1.0000 0.43029  0.54222  0.88731  Biso   1.000  O
  O24      1.0000 0.62152  0.50003  0.87222  Biso   1.000  O
  C7       1.0000 0.18220  0.62323  0.93780  Biso   1.000  C
  C8       1.0000 0.33050  0.62595  0.09470  Biso   1.000  C
  C9       1.0000 0.18960  0.75863  0.78070  Biso   1.000  C
  C10      1.0000 0.34000  0.73616  0.76770  Biso   1.000  C
  C11      1.0000 0.00010  0.51136  0.07890  Biso   1.000  C
  C12      1.0000 0.51510  0.51226  0.93050  Biso   1.000  C
  Cu5      1.0000 0.25136  0.79653  0.51921  Biso   1.000  Cu
  Cu6      1.0000 0.26215  0.95447  0.50170  Biso   1.000  Cu
  O25      1.0000 0.10433  0.84650  0.38941  Biso   1.000  O
  O26      1.0000 0.15182  0.91005  0.37171  Biso   1.000  O
  O27      1.0000 0.37925  0.83990  0.64116  Biso   1.000  O
  O28      1.0000 0.38853  0.90484  0.66247  Biso   1.000  O
  O29      1.0000 0.37641  0.79419  0.35815  Biso   1.000  O
  O30      1.0000 0.41336  0.75190  0.17566  Biso   1.000  O
  O31      1.0000 0.12590  0.75375  0.38470  Biso   1.000  O
  O32      1.0000 0.14209  0.71248  0.19024  Biso   1.000  O
  O33      1.0000 0.09411  0.95920  0.61493  Biso   1.000  O
  O34      1.0000 0.91149  0.99984  0.65735  Biso   1.000  O
  O35      1.0000 0.43029  0.95778  0.38731  Biso   1.000  O
  O36      1.0000 0.62152  0.99997  0.37222  Biso   1.000  O
  C13      1.0000 0.18220  0.87677  0.43780  Biso   1.000  C
  C14      1.0000 0.33050  0.87405  0.59470  Biso   1.000  C
  C15      1.0000 0.18960  0.74137  0.28070  Biso   1.000  C
  C16      1.0000 0.34000  0.76384  0.26770  Biso   1.000  C
  C17      1.0000 0.00010  0.98864  0.57890  Biso   1.000  C
  C18      1.0000 0.51510  0.98774  0.43050  Biso   1.000  C
  Cu7      1.0000 0.74864  0.29653  0.98079  Biso   1.000  Cu
  Cu8      1.0000 0.73785  0.45447  0.99830  Biso   1.000  Cu
  O37      1.0000 0.89567  0.34650  0.11059  Biso   1.000  O
  O38      1.0000 0.84818  0.41005  0.12829  Biso   1.000  O
  O39      1.0000 0.62075  0.33990  0.85884  Biso   1.000  O
  O40      1.0000 0.61147  0.40484  0.83753  Biso   1.000  O
  O41      1.0000 0.62359  0.29419  0.14185  Biso   1.000  O
  O42      1.0000 0.58664  0.25190  0.32434  Biso   1.000  O
  O43      1.0000 0.87410  0.25375  0.11530  Biso   1.000  O
  O44      1.0000 0.85791  0.21248  0.30976  Biso   1.000  O
  O45      1.0000 0.90589  0.45920  0.88507  Biso   1.000  O
  O46      1.0000 0.08851  0.49984  0.84265  Biso   1.000  O
  O47      1.0000 0.56971  0.45778  0.11269  Biso   1.000  O
  O48      1.0000 0.37848  0.49997  0.12778  Biso   1.000  O
  C19      1.0000 0.81780  0.37677  0.06220  Biso   1.000  C
  C20      1.0000 0.66950  0.37405  0.90530  Biso   1.000  C
  C21      1.0000 0.81040  0.24137  0.21930  Biso   1.000  C
  C22      1.0000 0.66000  0.26384  0.23230  Biso   1.000  C
  C23      1.0000 0.99990  0.48864  0.92110  Biso   1.000  C
  C24      1.0000 0.48490  0.48774  0.06950  Biso   1.000  C
