data_image0
_cell_length_a       8.7407
_cell_length_b       33.9886
_cell_length_c       8.6771
_cell_angle_alpha    90
_cell_angle_beta     107.725
_cell_angle_gamma    90

_symmetry_space_group_name_H-M    "P 1"
_symmetry_int_tables_number       1

loop_
  _symmetry_equiv_pos_as_xyz
  'x, y, z'

loop_
  _atom_site_label
  _atom_site_occupancy
  _atom_site_fract_x
  _atom_site_fract_y
  _atom_site_fract_z
  _atom_site_thermal_displace_type
  _atom_site_B_iso_or_equiv
  _atom_site_type_symbol
  Cu1      1.0000 0.75056  0.20358  0.48505  Biso   1.000  Cu
  Cu2      1.0000 0.73979  0.04573  0.49924  Biso   1.000  Cu
  O1       1.0000 0.89475  0.15421  0.61392  Biso   1.000  O
  O2       1.0000 0.85275  0.09016  0.62874  Biso   1.000  O
  O3       1.0000 0.62200  0.15999  0.36281  Biso   1.000  O
  O4       1.0000 0.61334  0.09481  0.34448  Biso   1.000  O
  O5       1.0000 0.62451  0.20661  0.64767  Biso   1.000  O
  O6       1.0000 0.59380  0.24885  0.83130  Biso   1.000  O
  O7       1.0000 0.87709  0.24604  0.62152  Biso   1.000  O
  O8       1.0000 0.86310  0.28759  0.81501  Biso   1.000  O
  O9       1.0000 0.90827  0.04046  0.38243  Biso   1.000  O
  O10      1.0000 0.09040  0.99900  0.34630  Biso   1.000  O
  O11      1.0000 0.57127  0.04165  0.61610  Biso   1.000  O
  O12      1.0000 0.38000  0.99929  0.62764  Biso   1.000  O
  C1       1.0000 0.81960  0.12345  0.56470  Biso   1.000  C
  C2       1.0000 0.67130  0.12595  0.40980  Biso   1.000  C
  C3       1.0000 0.81460  0.25882  0.72460  Biso   1.000  C
  C4       1.0000 0.66440  0.23659  0.73790  Biso   1.000  C
  C5       1.0000 0.00080  0.01101  0.42170  Biso   1.000  C
  C6       1.0000 0.48570  0.01186  0.57060  Biso   1.000  C
  Cu3      1.0000 0.24944  0.70358  0.01495  Biso   1.000  Cu
  Cu4      1.0000 0.26021  0.54573  0.00076  Biso   1.000  Cu
  O13      1.0000 0.10525  0.65421  0.88608  Biso   1.000  O
  O14      1.0000 0.14725  0.59016  0.87126  Biso   1.000  O
  O15      1.0000 0.37800  0.65999  0.13719  Biso   1.000  O
  O16      1.0000 0.38666  0.59481  0.15552  Biso   1.000  O
  O17      1.0000 0.37549  0.70661  0.85233  Biso   1.000  O
  O18      1.0000 0.40620  0.74885  0.66870  Biso   1.000  O
  O19      1.0000 0.12291  0.74604  0.87848  Biso   1.000  O
  O20      1.0000 0.13690  0.78759  0.68499  Biso   1.000  O
  O21      1.0000 0.09173  0.54046  0.11757  Biso   1.000  O
  O22      1.0000 0.90960  0.49900  0.15370  Biso   1.000  O
  O23      1.0000 0.42873  0.54165  0.88390  Biso   1.000  O
  O24      1.0000 0.62000  0.49929  0.87236  Biso   1.000  O
  C7       1.0000 0.18040  0.62345  0.93530  Biso   1.000  C
  C8       1.0000 0.32870  0.62595  0.09020  Biso   1.000  C
  C9       1.0000 0.18540  0.75882  0.77540  Biso   1.000  C
  C10      1.0000 0.33560  0.73659  0.76210  Biso   1.000  C
  C11      1.0000 0.99920  0.51101  0.07830  Biso   1.000  C
  C12      1.0000 0.51430  0.51186  0.92940  Biso   1.000  C
  Cu5      1.0000 0.24944  0.79642  0.51495  Biso   1.000  Cu
  Cu6      1.0000 0.26021  0.95427  0.50076  Biso   1.000  Cu
  O25      1.0000 0.10525  0.84579  0.38608  Biso   1.000  O
  O26      1.0000 0.14725  0.90984  0.37126  Biso   1.000  O
  O27      1.0000 0.37800  0.84001  0.63719  Biso   1.000  O
  O28      1.0000 0.38666  0.90519  0.65552  Biso   1.000  O
  O29      1.0000 0.37549  0.79339  0.35233  Biso   1.000  O
  O30      1.0000 0.40620  0.75115  0.16870  Biso   1.000  O
  O31      1.0000 0.12291  0.75396  0.37848  Biso   1.000  O
  O32      1.0000 0.13690  0.71241  0.18499  Biso   1.000  O
  O33      1.0000 0.09173  0.95954  0.61757  Biso   1.000  O
  O34      1.0000 0.90960  0.00100  0.65370  Biso   1.000  O
  O35      1.0000 0.42873  0.95835  0.38390  Biso   1.000  O
  O36      1.0000 0.62000  0.00071  0.37236  Biso   1.000  O
  C13      1.0000 0.18040  0.87655  0.43530  Biso   1.000  C
  C14      1.0000 0.32870  0.87405  0.59020  Biso   1.000  C
  C15      1.0000 0.18540  0.74118  0.27540  Biso   1.000  C
  C16      1.0000 0.33560  0.76341  0.26210  Biso   1.000  C
  C17      1.0000 0.99920  0.98899  0.57830  Biso   1.000  C
  C18      1.0000 0.51430  0.98814  0.42940  Biso   1.000  C
  Cu7      1.0000 0.75056  0.29642  0.98505  Biso   1.000  Cu
  Cu8      1.0000 0.73979  0.45427  0.99924  Biso   1.000  Cu
  O37      1.0000 0.89475  0.34579  0.11392  Biso   1.000  O
  O38      1.0000 0.85275  0.40984  0.12874  Biso   1.000  O
  O39      1.0000 0.62200  0.34001  0.86281  Biso   1.000  O
  O40      1.0000 0.61334  0.40519  0.84448  Biso   1.000  O
  O41      1.0000 0.62451  0.29339  0.14767  Biso   1.000  O
  O42      1.0000 0.59380  0.25115  0.33130  Biso   1.000  O
  O43      1.0000 0.87709  0.25396  0.12152  Biso   1.000  O
  O44      1.0000 0.86310  0.21241  0.31501  Biso   1.000  O
  O45      1.0000 0.90827  0.45954  0.88243  Biso   1.000  O
  O46      1.0000 0.09040  0.50100  0.84630  Biso   1.000  O
  O47      1.0000 0.57127  0.45835  0.11610  Biso   1.000  O
  O48      1.0000 0.38000  0.50071  0.12764  Biso   1.000  O
  C19      1.0000 0.81960  0.37655  0.06470  Biso   1.000  C
  C20      1.0000 0.67130  0.37405  0.90980  Biso   1.000  C
  C21      1.0000 0.81460  0.24118  0.22460  Biso   1.000  C
  C22      1.0000 0.66440  0.26341  0.23790  Biso   1.000  C
  C23      1.0000 0.00080  0.48899  0.92170  Biso   1.000  C
  C24      1.0000 0.48570  0.48814  0.07060  Biso   1.000  C
