data_image0
_cell_length_a       8.7156
_cell_length_b       34.0813
_cell_length_c       8.636
_cell_angle_alpha    90
_cell_angle_beta     107.632
_cell_angle_gamma    90

_symmetry_space_group_name_H-M    "P 1"
_symmetry_int_tables_number       1

loop_
  _symmetry_equiv_pos_as_xyz
  'x, y, z'

loop_
  _atom_site_label
  _atom_site_occupancy
  _atom_site_fract_x
  _atom_site_fract_y
  _atom_site_fract_z
  _atom_site_thermal_displace_type
  _atom_site_B_iso_or_equiv
  _atom_site_type_symbol
  Cu1      1.0000 0.74952  0.20351  0.48285  Biso   1.000  Cu
  Cu2      1.0000 0.73860  0.04560  0.49861  Biso   1.000  Cu
  O1       1.0000 0.89530  0.15372  0.61227  Biso   1.000  O
  O2       1.0000 0.85006  0.09001  0.62846  Biso   1.000  O
  O3       1.0000 0.62165  0.16010  0.36067  Biso   1.000  O
  O4       1.0000 0.61226  0.09510  0.34028  Biso   1.000  O
  O5       1.0000 0.62391  0.20611  0.64438  Biso   1.000  O
  O6       1.0000 0.58961  0.24830  0.82738  Biso   1.000  O
  O7       1.0000 0.87528  0.24614  0.61822  Biso   1.000  O
  O8       1.0000 0.86017  0.28751  0.81236  Biso   1.000  O
  O9       1.0000 0.90657  0.04066  0.38405  Biso   1.000  O
  O10      1.0000 0.08905  0.99978  0.34410  Biso   1.000  O
  O11      1.0000 0.57042  0.04195  0.61404  Biso   1.000  O
  O12      1.0000 0.37925  0.99977  0.62772  Biso   1.000  O
  C1       1.0000 0.81870  0.12330  0.56340  Biso   1.000  C
  C2       1.0000 0.66990  0.12598  0.40740  Biso   1.000  C
  C3       1.0000 0.81230  0.25867  0.72170  Biso   1.000  C
  C4       1.0000 0.66200  0.23633  0.73470  Biso   1.000  C
  C5       1.0000 0.00050  0.01128  0.42130  Biso   1.000  C
  C6       1.0000 0.48510  0.01208  0.56990  Biso   1.000  C
  Cu3      1.0000 0.25048  0.70351  0.01715  Biso   1.000  Cu
  Cu4      1.0000 0.26140  0.54560  0.00139  Biso   1.000  Cu
  O13      1.0000 0.10470  0.65372  0.88773  Biso   1.000  O
  O14      1.0000 0.14994  0.59001  0.87154  Biso   1.000  O
  O15      1.0000 0.37835  0.66010  0.13933  Biso   1.000  O
  O16      1.0000 0.38774  0.59510  0.15972  Biso   1.000  O
  O17      1.0000 0.37609  0.70611  0.85562  Biso   1.000  O
  O18      1.0000 0.41039  0.74830  0.67262  Biso   1.000  O
  O19      1.0000 0.12472  0.74614  0.88178  Biso   1.000  O
  O20      1.0000 0.13983  0.78751  0.68764  Biso   1.000  O
  O21      1.0000 0.09343  0.54066  0.11595  Biso   1.000  O
  O22      1.0000 0.91095  0.49978  0.15590  Biso   1.000  O
  O23      1.0000 0.42958  0.54195  0.88596  Biso   1.000  O
  O24      1.0000 0.62075  0.49977  0.87228  Biso   1.000  O
  C7       1.0000 0.18130  0.62330  0.93660  Biso   1.000  C
  C8       1.0000 0.33010  0.62598  0.09260  Biso   1.000  C
  C9       1.0000 0.18770  0.75867  0.77830  Biso   1.000  C
  C10      1.0000 0.33800  0.73633  0.76530  Biso   1.000  C
  C11      1.0000 0.99950  0.51128  0.07870  Biso   1.000  C
  C12      1.0000 0.51490  0.51208  0.93010  Biso   1.000  C
  Cu5      1.0000 0.25048  0.79649  0.51715  Biso   1.000  Cu
  Cu6      1.0000 0.26140  0.95440  0.50139  Biso   1.000  Cu
  O25      1.0000 0.10470  0.84628  0.38773  Biso   1.000  O
  O26      1.0000 0.14994  0.90999  0.37154  Biso   1.000  O
  O27      1.0000 0.37835  0.83990  0.63933  Biso   1.000  O
  O28      1.0000 0.38774  0.90490  0.65972  Biso   1.000  O
  O29      1.0000 0.37609  0.79389  0.35562  Biso   1.000  O
  O30      1.0000 0.41039  0.75170  0.17262  Biso   1.000  O
  O31      1.0000 0.12472  0.75386  0.38178  Biso   1.000  O
  O32      1.0000 0.13983  0.71249  0.18764  Biso   1.000  O
  O33      1.0000 0.09343  0.95934  0.61595  Biso   1.000  O
  O34      1.0000 0.91095  0.00022  0.65590  Biso   1.000  O
  O35      1.0000 0.42958  0.95805  0.38596  Biso   1.000  O
  O36      1.0000 0.62075  0.00023  0.37228  Biso   1.000  O
  C13      1.0000 0.18130  0.87670  0.43660  Biso   1.000  C
  C14      1.0000 0.33010  0.87402  0.59260  Biso   1.000  C
  C15      1.0000 0.18770  0.74133  0.27830  Biso   1.000  C
  C16      1.0000 0.33800  0.76367  0.26530  Biso   1.000  C
  C17      1.0000 0.99950  0.98872  0.57870  Biso   1.000  C
  C18      1.0000 0.51490  0.98792  0.43010  Biso   1.000  C
  Cu7      1.0000 0.74952  0.29649  0.98285  Biso   1.000  Cu
  Cu8      1.0000 0.73860  0.45440  0.99861  Biso   1.000  Cu
  O37      1.0000 0.89530  0.34628  0.11227  Biso   1.000  O
  O38      1.0000 0.85006  0.40999  0.12846  Biso   1.000  O
  O39      1.0000 0.62165  0.33990  0.86067  Biso   1.000  O
  O40      1.0000 0.61226  0.40490  0.84028  Biso   1.000  O
  O41      1.0000 0.62391  0.29389  0.14438  Biso   1.000  O
  O42      1.0000 0.58961  0.25170  0.32738  Biso   1.000  O
  O43      1.0000 0.87528  0.25386  0.11822  Biso   1.000  O
  O44      1.0000 0.86017  0.21249  0.31236  Biso   1.000  O
  O45      1.0000 0.90657  0.45934  0.88405  Biso   1.000  O
  O46      1.0000 0.08905  0.50022  0.84410  Biso   1.000  O
  O47      1.0000 0.57042  0.45805  0.11404  Biso   1.000  O
  O48      1.0000 0.37925  0.50023  0.12772  Biso   1.000  O
  C19      1.0000 0.81870  0.37670  0.06340  Biso   1.000  C
  C20      1.0000 0.66990  0.37402  0.90740  Biso   1.000  C
  C21      1.0000 0.81230  0.24133  0.22170  Biso   1.000  C
  C22      1.0000 0.66200  0.26367  0.23470  Biso   1.000  C
  C23      1.0000 0.00050  0.48872  0.92130  Biso   1.000  C
  C24      1.0000 0.48510  0.48792  0.06990  Biso   1.000  C
