data_image0
_cell_length_a       8.8533
_cell_length_b       33.7162
_cell_length_c       8.8347
_cell_angle_alpha    90
_cell_angle_beta     107.963
_cell_angle_gamma    90

_symmetry_space_group_name_H-M    "P 1"
_symmetry_int_tables_number       1

loop_
  _symmetry_equiv_pos_as_xyz
  'x, y, z'

loop_
  _atom_site_label
  _atom_site_occupancy
  _atom_site_fract_x
  _atom_site_fract_y
  _atom_site_fract_z
  _atom_site_thermal_displace_type
  _atom_site_B_iso_or_equiv
  _atom_site_type_symbol
  Cu1      1.0000 0.74469  0.20420  0.50280  Biso   1.000  Cu
  Cu2      1.0000 0.74287  0.04557  0.50294  Biso   1.000  Cu
  O1       1.0000 0.88340  0.15544  0.62679  Biso   1.000  O
  O2       1.0000 0.85771  0.09051  0.63224  Biso   1.000  O
  O3       1.0000 0.61590  0.15977  0.38041  Biso   1.000  O
  O4       1.0000 0.61588  0.09437  0.35908  Biso   1.000  O
  O5       1.0000 0.61722  0.20826  0.66617  Biso   1.000  O
  O6       1.0000 0.59710  0.24961  0.85240  Biso   1.000  O
  O7       1.0000 0.87251  0.24631  0.64411  Biso   1.000  O
  O8       1.0000 0.86220  0.28745  0.83617  Biso   1.000  O
  O9       1.0000 0.91010  0.04003  0.38154  Biso   1.000  O
  O10      1.0000 0.09140  0.99839  0.35154  Biso   1.000  O
  O11      1.0000 0.57726  0.03998  0.62352  Biso   1.000  O
  O12      1.0000 0.38290  0.99849  0.62556  Biso   1.000  O
  C1       1.0000 0.81720  0.12401  0.57510  Biso   1.000  C
  C2       1.0000 0.66870  0.12605  0.42390  Biso   1.000  C
  C3       1.0000 0.81270  0.25925  0.74460  Biso   1.000  C
  C4       1.0000 0.66300  0.23743  0.75760  Biso   1.000  C
  C5       1.0000 0.00200  0.01081  0.42300  Biso   1.000  C
  C6       1.0000 0.48840  0.01124  0.57190  Biso   1.000  C
  Cu3      1.0000 0.25531  0.70420  0.99720  Biso   1.000  Cu
  Cu4      1.0000 0.25713  0.54557  0.99706  Biso   1.000  Cu
  O13      1.0000 0.11660  0.65544  0.87321  Biso   1.000  O
  O14      1.0000 0.14229  0.59051  0.86776  Biso   1.000  O
  O15      1.0000 0.38410  0.65977  0.11959  Biso   1.000  O
  O16      1.0000 0.38412  0.59437  0.14092  Biso   1.000  O
  O17      1.0000 0.38278  0.70826  0.83383  Biso   1.000  O
  O18      1.0000 0.40290  0.74961  0.64760  Biso   1.000  O
  O19      1.0000 0.12749  0.74631  0.85589  Biso   1.000  O
  O20      1.0000 0.13780  0.78745  0.66383  Biso   1.000  O
  O21      1.0000 0.08990  0.54003  0.11846  Biso   1.000  O
  O22      1.0000 0.90860  0.49839  0.14846  Biso   1.000  O
  O23      1.0000 0.42274  0.53998  0.87648  Biso   1.000  O
  O24      1.0000 0.61710  0.49849  0.87444  Biso   1.000  O
  C7       1.0000 0.18280  0.62401  0.92490  Biso   1.000  C
  C8       1.0000 0.33130  0.62605  0.07610  Biso   1.000  C
  C9       1.0000 0.18730  0.75925  0.75540  Biso   1.000  C
  C10      1.0000 0.33700  0.73743  0.74240  Biso   1.000  C
  C11      1.0000 0.99800  0.51081  0.07700  Biso   1.000  C
  C12      1.0000 0.51160  0.51124  0.92810  Biso   1.000  C
  Cu5      1.0000 0.25531  0.79580  0.49720  Biso   1.000  Cu
  Cu6      1.0000 0.25713  0.95443  0.49706  Biso   1.000  Cu
  O25      1.0000 0.11660  0.84456  0.37321  Biso   1.000  O
  O26      1.0000 0.14229  0.90949  0.36776  Biso   1.000  O
  O27      1.0000 0.38410  0.84023  0.61959  Biso   1.000  O
  O28      1.0000 0.38412  0.90563  0.64092  Biso   1.000  O
  O29      1.0000 0.38278  0.79174  0.33383  Biso   1.000  O
  O30      1.0000 0.40290  0.75039  0.14760  Biso   1.000  O
  O31      1.0000 0.12749  0.75369  0.35589  Biso   1.000  O
  O32      1.0000 0.13780  0.71255  0.16383  Biso   1.000  O
  O33      1.0000 0.08990  0.95997  0.61846  Biso   1.000  O
  O34      1.0000 0.90860  0.00161  0.64846  Biso   1.000  O
  O35      1.0000 0.42274  0.96002  0.37648  Biso   1.000  O
  O36      1.0000 0.61710  0.00151  0.37444  Biso   1.000  O
  C13      1.0000 0.18280  0.87599  0.42490  Biso   1.000  C
  C14      1.0000 0.33130  0.87395  0.57610  Biso   1.000  C
  C15      1.0000 0.18730  0.74075  0.25540  Biso   1.000  C
  C16      1.0000 0.33700  0.76257  0.24240  Biso   1.000  C
  C17      1.0000 0.99800  0.98919  0.57700  Biso   1.000  C
  C18      1.0000 0.51160  0.98876  0.42810  Biso   1.000  C
  Cu7      1.0000 0.74469  0.29580  0.00280  Biso   1.000  Cu
  Cu8      1.0000 0.74287  0.45443  0.00294  Biso   1.000  Cu
  O37      1.0000 0.88340  0.34456  0.12679  Biso   1.000  O
  O38      1.0000 0.85771  0.40949  0.13224  Biso   1.000  O
  O39      1.0000 0.61590  0.34023  0.88041  Biso   1.000  O
  O40      1.0000 0.61588  0.40563  0.85908  Biso   1.000  O
  O41      1.0000 0.61722  0.29174  0.16617  Biso   1.000  O
  O42      1.0000 0.59710  0.25039  0.35240  Biso   1.000  O
  O43      1.0000 0.87251  0.25369  0.14411  Biso   1.000  O
  O44      1.0000 0.86220  0.21255  0.33617  Biso   1.000  O
  O45      1.0000 0.91010  0.45997  0.88154  Biso   1.000  O
  O46      1.0000 0.09140  0.50161  0.85154  Biso   1.000  O
  O47      1.0000 0.57726  0.46002  0.12352  Biso   1.000  O
  O48      1.0000 0.38290  0.50151  0.12556  Biso   1.000  O
  C19      1.0000 0.81720  0.37599  0.07510  Biso   1.000  C
  C20      1.0000 0.66870  0.37395  0.92390  Biso   1.000  C
  C21      1.0000 0.81270  0.24075  0.24460  Biso   1.000  C
  C22      1.0000 0.66300  0.26257  0.25760  Biso   1.000  C
  C23      1.0000 0.00200  0.48919  0.92300  Biso   1.000  C
  C24      1.0000 0.48840  0.48876  0.07190  Biso   1.000  C
