data_image0
_cell_length_a       8.6926
_cell_length_b       34.1564
_cell_length_c       8.5956
_cell_angle_alpha    90
_cell_angle_beta     107.603
_cell_angle_gamma    90

_symmetry_space_group_name_H-M    "P 1"
_symmetry_int_tables_number       1

loop_
  _symmetry_equiv_pos_as_xyz
  'x, y, z'

loop_
  _atom_site_label
  _atom_site_occupancy
  _atom_site_fract_x
  _atom_site_fract_y
  _atom_site_fract_z
  _atom_site_thermal_displace_type
  _atom_site_B_iso_or_equiv
  _atom_site_type_symbol
  Cu1      1.0000 0.74841  0.20344  0.47899  Biso   1.000  Cu
  Cu2      1.0000 0.73767  0.04553  0.49829  Biso   1.000  Cu
  O1       1.0000 0.89598  0.15353  0.60962  Biso   1.000  O
  O2       1.0000 0.84743  0.09004  0.62837  Biso   1.000  O
  O3       1.0000 0.62062  0.16002  0.35709  Biso   1.000  O
  O4       1.0000 0.61134  0.09508  0.33619  Biso   1.000  O
  O5       1.0000 0.62325  0.20576  0.63985  Biso   1.000  O
  O6       1.0000 0.58553  0.24813  0.82180  Biso   1.000  O
  O7       1.0000 0.87358  0.24633  0.61316  Biso   1.000  O
  O8       1.0000 0.85748  0.28756  0.80797  Biso   1.000  O
  O9       1.0000 0.90551  0.04094  0.38551  Biso   1.000  O
  O10      1.0000 0.08821  0.00021  0.34207  Biso   1.000  O
  O11      1.0000 0.56945  0.04237  0.61234  Biso   1.000  O
  O12      1.0000 0.37793  0.00019  0.62780  Biso   1.000  O
  C1       1.0000 0.81770  0.12317  0.56150  Biso   1.000  C
  C2       1.0000 0.66930  0.12592  0.40400  Biso   1.000  C
  C3       1.0000 0.81020  0.25863  0.71720  Biso   1.000  C
  C4       1.0000 0.65910  0.23604  0.72990  Biso   1.000  C
  C5       1.0000 0.99980  0.01142  0.42130  Biso   1.000  C
  C6       1.0000 0.48470  0.01231  0.56900  Biso   1.000  C
  Cu3      1.0000 0.25159  0.70344  0.02101  Biso   1.000  Cu
  Cu4      1.0000 0.26233  0.54553  0.00171  Biso   1.000  Cu
  O13      1.0000 0.10402  0.65353  0.89038  Biso   1.000  O
  O14      1.0000 0.15257  0.59004  0.87163  Biso   1.000  O
  O15      1.0000 0.37938  0.66002  0.14291  Biso   1.000  O
  O16      1.0000 0.38866  0.59508  0.16381  Biso   1.000  O
  O17      1.0000 0.37675  0.70576  0.86015  Biso   1.000  O
  O18      1.0000 0.41447  0.74813  0.67820  Biso   1.000  O
  O19      1.0000 0.12642  0.74633  0.88684  Biso   1.000  O
  O20      1.0000 0.14252  0.78756  0.69203  Biso   1.000  O
  O21      1.0000 0.09449  0.54094  0.11449  Biso   1.000  O
  O22      1.0000 0.91179  0.50021  0.15793  Biso   1.000  O
  O23      1.0000 0.43055  0.54237  0.88766  Biso   1.000  O
  O24      1.0000 0.62207  0.50019  0.87220  Biso   1.000  O
  C7       1.0000 0.18230  0.62317  0.93850  Biso   1.000  C
  C8       1.0000 0.33070  0.62592  0.09600  Biso   1.000  C
  C9       1.0000 0.18980  0.75863  0.78280  Biso   1.000  C
  C10      1.0000 0.34090  0.73604  0.77010  Biso   1.000  C
  C11      1.0000 0.00020  0.51142  0.07870  Biso   1.000  C
  C12      1.0000 0.51530  0.51231  0.93100  Biso   1.000  C
  Cu5      1.0000 0.25159  0.79656  0.52101  Biso   1.000  Cu
  Cu6      1.0000 0.26233  0.95447  0.50171  Biso   1.000  Cu
  O25      1.0000 0.10402  0.84647  0.39038  Biso   1.000  O
  O26      1.0000 0.15257  0.90996  0.37163  Biso   1.000  O
  O27      1.0000 0.37938  0.83998  0.64291  Biso   1.000  O
  O28      1.0000 0.38866  0.90492  0.66381  Biso   1.000  O
  O29      1.0000 0.37675  0.79424  0.36015  Biso   1.000  O
  O30      1.0000 0.41447  0.75187  0.17820  Biso   1.000  O
  O31      1.0000 0.12642  0.75367  0.38684  Biso   1.000  O
  O32      1.0000 0.14252  0.71244  0.19203  Biso   1.000  O
  O33      1.0000 0.09449  0.95906  0.61449  Biso   1.000  O
  O34      1.0000 0.91179  0.99979  0.65793  Biso   1.000  O
  O35      1.0000 0.43055  0.95763  0.38766  Biso   1.000  O
  O36      1.0000 0.62207  0.99981  0.37220  Biso   1.000  O
  C13      1.0000 0.18230  0.87683  0.43850  Biso   1.000  C
  C14      1.0000 0.33070  0.87408  0.59600  Biso   1.000  C
  C15      1.0000 0.18980  0.74137  0.28280  Biso   1.000  C
  C16      1.0000 0.34090  0.76396  0.27010  Biso   1.000  C
  C17      1.0000 0.00020  0.98858  0.57870  Biso   1.000  C
  C18      1.0000 0.51530  0.98769  0.43100  Biso   1.000  C
  Cu7      1.0000 0.74841  0.29656  0.97899  Biso   1.000  Cu
  Cu8      1.0000 0.73767  0.45447  0.99829  Biso   1.000  Cu
  O37      1.0000 0.89598  0.34647  0.10962  Biso   1.000  O
  O38      1.0000 0.84743  0.40996  0.12837  Biso   1.000  O
  O39      1.0000 0.62062  0.33998  0.85709  Biso   1.000  O
  O40      1.0000 0.61134  0.40492  0.83619  Biso   1.000  O
  O41      1.0000 0.62325  0.29424  0.13985  Biso   1.000  O
  O42      1.0000 0.58553  0.25187  0.32180  Biso   1.000  O
  O43      1.0000 0.87358  0.25367  0.11316  Biso   1.000  O
  O44      1.0000 0.85748  0.21244  0.30797  Biso   1.000  O
  O45      1.0000 0.90551  0.45906  0.88551  Biso   1.000  O
  O46      1.0000 0.08821  0.49979  0.84207  Biso   1.000  O
  O47      1.0000 0.56945  0.45763  0.11234  Biso   1.000  O
  O48      1.0000 0.37793  0.49981  0.12780  Biso   1.000  O
  C19      1.0000 0.81770  0.37683  0.06150  Biso   1.000  C
  C20      1.0000 0.66930  0.37408  0.90400  Biso   1.000  C
  C21      1.0000 0.81020  0.24137  0.21720  Biso   1.000  C
  C22      1.0000 0.65910  0.26396  0.22990  Biso   1.000  C
  C23      1.0000 0.99980  0.48858  0.92130  Biso   1.000  C
  C24      1.0000 0.48470  0.48769  0.06900  Biso   1.000  C
