data_image0
_cell_length_a       8.8294
_cell_length_b       33.7719
_cell_length_c       8.8052
_cell_angle_alpha    90
_cell_angle_beta     107.901
_cell_angle_gamma    90

_symmetry_space_group_name_H-M    "P 1"
_symmetry_int_tables_number       1

loop_
  _symmetry_equiv_pos_as_xyz
  'x, y, z'

loop_
  _atom_site_label
  _atom_site_occupancy
  _atom_site_fract_x
  _atom_site_fract_y
  _atom_site_fract_z
  _atom_site_thermal_displace_type
  _atom_site_B_iso_or_equiv
  _atom_site_type_symbol
  Cu1      1.0000 0.74696  0.20406  0.49762  Biso   1.000  Cu
  Cu2      1.0000 0.74245  0.04569  0.50213  Biso   1.000  Cu
  O1       1.0000 0.88655  0.15532  0.62326  Biso   1.000  O
  O2       1.0000 0.85720  0.09044  0.63137  Biso   1.000  O
  O3       1.0000 0.61820  0.15975  0.37507  Biso   1.000  O
  O4       1.0000 0.61566  0.09430  0.35658  Biso   1.000  O
  O5       1.0000 0.61971  0.20803  0.66086  Biso   1.000  O
  O6       1.0000 0.59860  0.24970  0.84710  Biso   1.000  O
  O7       1.0000 0.87458  0.24621  0.63821  Biso   1.000  O
  O8       1.0000 0.86357  0.28758  0.82979  Biso   1.000  O
  O9       1.0000 0.91069  0.04012  0.38113  Biso   1.000  O
  O10      1.0000 0.09200  0.99824  0.35085  Biso   1.000  O
  O11      1.0000 0.57550  0.04031  0.62238  Biso   1.000  O
  O12      1.0000 0.38242  0.99851  0.62604  Biso   1.000  O
  C1       1.0000 0.81870  0.12392  0.57230  Biso   1.000  C
  C2       1.0000 0.66990  0.12601  0.42030  Biso   1.000  C
  C3       1.0000 0.81450  0.25919  0.73890  Biso   1.000  C
  C4       1.0000 0.66470  0.23731  0.75200  Biso   1.000  C
  C5       1.0000 0.00230  0.01086  0.42240  Biso   1.000  C
  C6       1.0000 0.48800  0.01140  0.57190  Biso   1.000  C
  Cu3      1.0000 0.25304  0.70406  0.00238  Biso   1.000  Cu
  Cu4      1.0000 0.25755  0.54569  0.99787  Biso   1.000  Cu
  O13      1.0000 0.11345  0.65532  0.87674  Biso   1.000  O
  O14      1.0000 0.14280  0.59044  0.86863  Biso   1.000  O
  O15      1.0000 0.38180  0.65975  0.12493  Biso   1.000  O
  O16      1.0000 0.38434  0.59430  0.14342  Biso   1.000  O
  O17      1.0000 0.38029  0.70803  0.83914  Biso   1.000  O
  O18      1.0000 0.40140  0.74970  0.65290  Biso   1.000  O
  O19      1.0000 0.12542  0.74621  0.86179  Biso   1.000  O
  O20      1.0000 0.13643  0.78758  0.67021  Biso   1.000  O
  O21      1.0000 0.08931  0.54012  0.11887  Biso   1.000  O
  O22      1.0000 0.90800  0.49824  0.14915  Biso   1.000  O
  O23      1.0000 0.42450  0.54031  0.87762  Biso   1.000  O
  O24      1.0000 0.61758  0.49851  0.87396  Biso   1.000  O
  C7       1.0000 0.18130  0.62392  0.92770  Biso   1.000  C
  C8       1.0000 0.33010  0.62601  0.07970  Biso   1.000  C
  C9       1.0000 0.18550  0.75919  0.76110  Biso   1.000  C
  C10      1.0000 0.33530  0.73731  0.74800  Biso   1.000  C
  C11      1.0000 0.99770  0.51086  0.07760  Biso   1.000  C
  C12      1.0000 0.51200  0.51140  0.92810  Biso   1.000  C
  Cu5      1.0000 0.25304  0.79594  0.50238  Biso   1.000  Cu
  Cu6      1.0000 0.25755  0.95431  0.49787  Biso   1.000  Cu
  O25      1.0000 0.11345  0.84468  0.37674  Biso   1.000  O
  O26      1.0000 0.14280  0.90956  0.36863  Biso   1.000  O
  O27      1.0000 0.38180  0.84025  0.62493  Biso   1.000  O
  O28      1.0000 0.38434  0.90570  0.64342  Biso   1.000  O
  O29      1.0000 0.38029  0.79197  0.33914  Biso   1.000  O
  O30      1.0000 0.40140  0.75030  0.15290  Biso   1.000  O
  O31      1.0000 0.12542  0.75379  0.36179  Biso   1.000  O
  O32      1.0000 0.13643  0.71242  0.17021  Biso   1.000  O
  O33      1.0000 0.08931  0.95988  0.61887  Biso   1.000  O
  O34      1.0000 0.90800  0.00176  0.64915  Biso   1.000  O
  O35      1.0000 0.42450  0.95969  0.37762  Biso   1.000  O
  O36      1.0000 0.61758  0.00149  0.37396  Biso   1.000  O
  C13      1.0000 0.18130  0.87608  0.42770  Biso   1.000  C
  C14      1.0000 0.33010  0.87399  0.57970  Biso   1.000  C
  C15      1.0000 0.18550  0.74081  0.26110  Biso   1.000  C
  C16      1.0000 0.33530  0.76269  0.24800  Biso   1.000  C
  C17      1.0000 0.99770  0.98914  0.57760  Biso   1.000  C
  C18      1.0000 0.51200  0.98860  0.42810  Biso   1.000  C
  Cu7      1.0000 0.74696  0.29594  0.99762  Biso   1.000  Cu
  Cu8      1.0000 0.74245  0.45431  0.00213  Biso   1.000  Cu
  O37      1.0000 0.88655  0.34468  0.12326  Biso   1.000  O
  O38      1.0000 0.85720  0.40956  0.13137  Biso   1.000  O
  O39      1.0000 0.61820  0.34025  0.87507  Biso   1.000  O
  O40      1.0000 0.61566  0.40570  0.85658  Biso   1.000  O
  O41      1.0000 0.61971  0.29197  0.16086  Biso   1.000  O
  O42      1.0000 0.59860  0.25030  0.34710  Biso   1.000  O
  O43      1.0000 0.87458  0.25379  0.13821  Biso   1.000  O
  O44      1.0000 0.86357  0.21242  0.32979  Biso   1.000  O
  O45      1.0000 0.91069  0.45988  0.88113  Biso   1.000  O
  O46      1.0000 0.09200  0.50176  0.85085  Biso   1.000  O
  O47      1.0000 0.57550  0.45969  0.12238  Biso   1.000  O
  O48      1.0000 0.38242  0.50149  0.12604  Biso   1.000  O
  C19      1.0000 0.81870  0.37608  0.07230  Biso   1.000  C
  C20      1.0000 0.66990  0.37399  0.92030  Biso   1.000  C
  C21      1.0000 0.81450  0.24081  0.23890  Biso   1.000  C
  C22      1.0000 0.66470  0.26269  0.25200  Biso   1.000  C
  C23      1.0000 0.00230  0.48914  0.92240  Biso   1.000  C
  C24      1.0000 0.48800  0.48860  0.07190  Biso   1.000  C
