data_image0
_cell_length_a       8.7368
_cell_length_b       33.9968
_cell_length_c       8.6704
_cell_angle_alpha    90
_cell_angle_beta     107.726
_cell_angle_gamma    90

_symmetry_space_group_name_H-M    "P 1"
_symmetry_int_tables_number       1

loop_
  _symmetry_equiv_pos_as_xyz
  'x, y, z'

loop_
  _atom_site_label
  _atom_site_occupancy
  _atom_site_fract_x
  _atom_site_fract_y
  _atom_site_fract_z
  _atom_site_thermal_displace_type
  _atom_site_B_iso_or_equiv
  _atom_site_type_symbol
  Cu1      1.0000 0.75034  0.20355  0.48460  Biso   1.000  Cu
  Cu2      1.0000 0.73960  0.04570  0.49914  Biso   1.000  Cu
  O1       1.0000 0.89453  0.15421  0.61347  Biso   1.000  O
  O2       1.0000 0.85236  0.09016  0.62857  Biso   1.000  O
  O3       1.0000 0.62200  0.15997  0.36232  Biso   1.000  O
  O4       1.0000 0.61329  0.09485  0.34359  Biso   1.000  O
  O5       1.0000 0.62424  0.20659  0.64701  Biso   1.000  O
  O6       1.0000 0.59307  0.24884  0.83029  Biso   1.000  O
  O7       1.0000 0.87669  0.24607  0.62079  Biso   1.000  O
  O8       1.0000 0.86265  0.28762  0.81439  Biso   1.000  O
  O9       1.0000 0.90765  0.04052  0.38290  Biso   1.000  O
  O10      1.0000 0.08979  0.99918  0.34568  Biso   1.000  O
  O11      1.0000 0.57113  0.04173  0.61568  Biso   1.000  O
  O12      1.0000 0.37984  0.99940  0.62775  Biso   1.000  O
  C1       1.0000 0.81950  0.12347  0.56430  Biso   1.000  C
  C2       1.0000 0.67100  0.12596  0.40920  Biso   1.000  C
  C3       1.0000 0.81440  0.25884  0.72410  Biso   1.000  C
  C4       1.0000 0.66380  0.23657  0.73750  Biso   1.000  C
  C5       1.0000 0.00070  0.01112  0.42150  Biso   1.000  C
  C6       1.0000 0.48570  0.01191  0.57020  Biso   1.000  C
  Cu3      1.0000 0.24966  0.70355  0.01540  Biso   1.000  Cu
  Cu4      1.0000 0.26040  0.54570  0.00086  Biso   1.000  Cu
  O13      1.0000 0.10547  0.65421  0.88653  Biso   1.000  O
  O14      1.0000 0.14764  0.59016  0.87143  Biso   1.000  O
  O15      1.0000 0.37800  0.65997  0.13768  Biso   1.000  O
  O16      1.0000 0.38671  0.59485  0.15641  Biso   1.000  O
  O17      1.0000 0.37576  0.70659  0.85299  Biso   1.000  O
  O18      1.0000 0.40693  0.74884  0.66971  Biso   1.000  O
  O19      1.0000 0.12331  0.74607  0.87921  Biso   1.000  O
  O20      1.0000 0.13735  0.78762  0.68561  Biso   1.000  O
  O21      1.0000 0.09235  0.54052  0.11710  Biso   1.000  O
  O22      1.0000 0.91021  0.49918  0.15432  Biso   1.000  O
  O23      1.0000 0.42887  0.54173  0.88432  Biso   1.000  O
  O24      1.0000 0.62016  0.49940  0.87225  Biso   1.000  O
  C7       1.0000 0.18050  0.62347  0.93570  Biso   1.000  C
  C8       1.0000 0.32900  0.62596  0.09080  Biso   1.000  C
  C9       1.0000 0.18560  0.75884  0.77590  Biso   1.000  C
  C10      1.0000 0.33620  0.73657  0.76250  Biso   1.000  C
  C11      1.0000 0.99930  0.51112  0.07850  Biso   1.000  C
  C12      1.0000 0.51430  0.51191  0.92980  Biso   1.000  C
  Cu5      1.0000 0.24966  0.79645  0.51540  Biso   1.000  Cu
  Cu6      1.0000 0.26040  0.95430  0.50086  Biso   1.000  Cu
  O25      1.0000 0.10547  0.84579  0.38653  Biso   1.000  O
  O26      1.0000 0.14764  0.90984  0.37143  Biso   1.000  O
  O27      1.0000 0.37800  0.84003  0.63768  Biso   1.000  O
  O28      1.0000 0.38671  0.90515  0.65641  Biso   1.000  O
  O29      1.0000 0.37576  0.79341  0.35299  Biso   1.000  O
  O30      1.0000 0.40693  0.75116  0.16971  Biso   1.000  O
  O31      1.0000 0.12331  0.75393  0.37921  Biso   1.000  O
  O32      1.0000 0.13735  0.71238  0.18561  Biso   1.000  O
  O33      1.0000 0.09235  0.95948  0.61710  Biso   1.000  O
  O34      1.0000 0.91021  0.00082  0.65432  Biso   1.000  O
  O35      1.0000 0.42887  0.95827  0.38432  Biso   1.000  O
  O36      1.0000 0.62016  0.00060  0.37225  Biso   1.000  O
  C13      1.0000 0.18050  0.87653  0.43570  Biso   1.000  C
  C14      1.0000 0.32900  0.87404  0.59080  Biso   1.000  C
  C15      1.0000 0.18560  0.74116  0.27590  Biso   1.000  C
  C16      1.0000 0.33620  0.76343  0.26250  Biso   1.000  C
  C17      1.0000 0.99930  0.98888  0.57850  Biso   1.000  C
  C18      1.0000 0.51430  0.98809  0.42980  Biso   1.000  C
  Cu7      1.0000 0.75034  0.29645  0.98460  Biso   1.000  Cu
  Cu8      1.0000 0.73960  0.45430  0.99914  Biso   1.000  Cu
  O37      1.0000 0.89453  0.34579  0.11347  Biso   1.000  O
  O38      1.0000 0.85236  0.40984  0.12857  Biso   1.000  O
  O39      1.0000 0.62200  0.34003  0.86232  Biso   1.000  O
  O40      1.0000 0.61329  0.40515  0.84359  Biso   1.000  O
  O41      1.0000 0.62424  0.29341  0.14701  Biso   1.000  O
  O42      1.0000 0.59307  0.25116  0.33029  Biso   1.000  O
  O43      1.0000 0.87669  0.25393  0.12079  Biso   1.000  O
  O44      1.0000 0.86265  0.21238  0.31439  Biso   1.000  O
  O45      1.0000 0.90765  0.45948  0.88290  Biso   1.000  O
  O46      1.0000 0.08979  0.50082  0.84568  Biso   1.000  O
  O47      1.0000 0.57113  0.45827  0.11568  Biso   1.000  O
  O48      1.0000 0.37984  0.50060  0.12775  Biso   1.000  O
  C19      1.0000 0.81950  0.37653  0.06430  Biso   1.000  C
  C20      1.0000 0.67100  0.37404  0.90920  Biso   1.000  C
  C21      1.0000 0.81440  0.24116  0.22410  Biso   1.000  C
  C22      1.0000 0.66380  0.26343  0.23750  Biso   1.000  C
  C23      1.0000 0.00070  0.48888  0.92150  Biso   1.000  C
  C24      1.0000 0.48570  0.48809  0.07020  Biso   1.000  C
