data_image0
_cell_length_a       11.98
_cell_length_b       17.982
_cell_length_c       18.625
_cell_angle_alpha    90
_cell_angle_beta     90
_cell_angle_gamma    90

_symmetry_space_group_name_H-M    P 1
_symmetry_int_tables_number       1

loop_
  _symmetry_equiv_pos_as_xyz
  'x, y, z'

loop_
  _atom_site_label
  _atom_site_occupancy
  _atom_site_fract_x
  _atom_site_fract_y
  _atom_site_fract_z
  _atom_site_thermal_displace_type
  _atom_site_B_iso_or_equiv
  _atom_site_type_symbol
  Zn1      1.0000 0.38990  0.80265  0.50913  Biso   1.000  Zn
  Zn2      1.0000 0.11010  0.80265  0.49087  Biso   1.000  Zn
  Zn3      1.0000 0.61010  0.69735  0.50913  Biso   1.000  Zn
  Zn4      1.0000 0.88990  0.69735  0.49087  Biso   1.000  Zn
  Zn5      1.0000 0.61010  0.19735  0.49087  Biso   1.000  Zn
  Zn6      1.0000 0.88990  0.19735  0.50913  Biso   1.000  Zn
  Zn7      1.0000 0.38990  0.30265  0.49087  Biso   1.000  Zn
  Zn8      1.0000 0.11010  0.30265  0.50913  Biso   1.000  Zn
  H1       1.0000 0.37450  0.74370  0.29280  Biso   1.000  H
  H2       1.0000 0.38430  0.82990  0.73580  Biso   1.000  H
  H3       1.0000 0.39690  0.06580  0.32620  Biso   1.000  H
  H4       1.0000 0.38690  0.83150  0.85880  Biso   1.000  H
  H5       1.0000 0.35740  0.80690  0.96820  Biso   1.000  H
  H6       1.0000 0.29090  0.83740  0.35730  Biso   1.000  H
  H7       1.0000 0.35530  0.80510  0.09100  Biso   1.000  H
  H8       1.0000 0.15120  0.91970  0.36280  Biso   1.000  H
  H9       1.0000 0.51090  0.89430  0.16220  Biso   1.000  H
  H10      1.0000 0.42830  0.98850  0.22770  Biso   1.000  H
  H11      1.0000 0.05130  0.01030  0.42260  Biso   1.000  H
  H12      1.0000 0.29720  0.15580  0.38620  Biso   1.000  H
  H13      1.0000 0.12550  0.74370  0.70720  Biso   1.000  H
  H14      1.0000 0.11570  0.82990  0.26420  Biso   1.000  H
  H15      1.0000 0.10310  0.06580  0.67380  Biso   1.000  H
  H16      1.0000 0.11310  0.83150  0.14120  Biso   1.000  H
  H17      1.0000 0.14260  0.80690  0.03180  Biso   1.000  H
  H18      1.0000 0.20910  0.83740  0.64270  Biso   1.000  H
  H19      1.0000 0.14470  0.80510  0.90900  Biso   1.000  H
  H20      1.0000 0.34880  0.91970  0.63720  Biso   1.000  H
  H21      1.0000 0.98910  0.89430  0.83780  Biso   1.000  H
  H22      1.0000 0.07170  0.98850  0.77230  Biso   1.000  H
  H23      1.0000 0.44870  0.01030  0.57740  Biso   1.000  H
  H24      1.0000 0.20280  0.15580  0.61380  Biso   1.000  H
  H25      1.0000 0.62550  0.75630  0.29280  Biso   1.000  H
  H26      1.0000 0.61570  0.67010  0.73580  Biso   1.000  H
  H27      1.0000 0.60310  0.43420  0.32620  Biso   1.000  H
  H28      1.0000 0.61310  0.66850  0.85880  Biso   1.000  H
  H29      1.0000 0.64260  0.69310  0.96820  Biso   1.000  H
  H30      1.0000 0.70910  0.66260  0.35730  Biso   1.000  H
  H31      1.0000 0.64470  0.69490  0.09100  Biso   1.000  H
  H32      1.0000 0.84880  0.58030  0.36280  Biso   1.000  H
  H33      1.0000 0.48910  0.60570  0.16220  Biso   1.000  H
  H34      1.0000 0.57170  0.51150  0.22770  Biso   1.000  H
  H35      1.0000 0.94870  0.48970  0.42260  Biso   1.000  H
  H36      1.0000 0.70280  0.34420  0.38620  Biso   1.000  H
  H37      1.0000 0.87450  0.75630  0.70720  Biso   1.000  H
  H38      1.0000 0.88430  0.67010  0.26420  Biso   1.000  H
  H39      1.0000 0.89690  0.43420  0.67380  Biso   1.000  H
  H40      1.0000 0.88690  0.66850  0.14120  Biso   1.000  H
  H41      1.0000 0.85740  0.69310  0.03180  Biso   1.000  H
  H42      1.0000 0.79090  0.66260  0.64270  Biso   1.000  H
  H43      1.0000 0.85530  0.69490  0.90900  Biso   1.000  H
  H44      1.0000 0.65120  0.58030  0.63720  Biso   1.000  H
  H45      1.0000 0.01090  0.60570  0.83780  Biso   1.000  H
  H46      1.0000 0.92830  0.51150  0.77230  Biso   1.000  H
  H47      1.0000 0.55130  0.48970  0.57740  Biso   1.000  H
  H48      1.0000 0.79720  0.34420  0.61380  Biso   1.000  H
  H49      1.0000 0.62550  0.25630  0.70720  Biso   1.000  H
  H50      1.0000 0.61570  0.17010  0.26420  Biso   1.000  H
  H51      1.0000 0.60310  0.93420  0.67380  Biso   1.000  H
  H52      1.0000 0.61310  0.16850  0.14120  Biso   1.000  H
  H53      1.0000 0.64260  0.19310  0.03180  Biso   1.000  H
  H54      1.0000 0.70910  0.16260  0.64270  Biso   1.000  H
  H55      1.0000 0.64470  0.19490  0.90900  Biso   1.000  H
  H56      1.0000 0.84880  0.08030  0.63720  Biso   1.000  H
  H57      1.0000 0.48910  0.10570  0.83780  Biso   1.000  H
  H58      1.0000 0.57170  0.01150  0.77230  Biso   1.000  H
  H59      1.0000 0.94870  0.98970  0.57740  Biso   1.000  H
  H60      1.0000 0.70280  0.84420  0.61380  Biso   1.000  H
  H61      1.0000 0.87450  0.25630  0.29280  Biso   1.000  H
  H62      1.0000 0.88430  0.17010  0.73580  Biso   1.000  H
  H63      1.0000 0.89690  0.93420  0.32620  Biso   1.000  H
  H64      1.0000 0.88690  0.16850  0.85880  Biso   1.000  H
  H65      1.0000 0.85740  0.19310  0.96820  Biso   1.000  H
  H66      1.0000 0.79090  0.16260  0.35730  Biso   1.000  H
  H67      1.0000 0.85530  0.19490  0.09100  Biso   1.000  H
  H68      1.0000 0.65120  0.08030  0.36280  Biso   1.000  H
  H69      1.0000 0.01090  0.10570  0.16220  Biso   1.000  H
  H70      1.0000 0.92830  0.01150  0.22770  Biso   1.000  H
  H71      1.0000 0.55130  0.98970  0.42260  Biso   1.000  H
  H72      1.0000 0.79720  0.84420  0.38620  Biso   1.000  H
  H73      1.0000 0.37450  0.24370  0.70720  Biso   1.000  H
  H74      1.0000 0.38430  0.32990  0.26420  Biso   1.000  H
  H75      1.0000 0.39690  0.56580  0.67380  Biso   1.000  H
  H76      1.0000 0.38690  0.33150  0.14120  Biso   1.000  H
  H77      1.0000 0.35740  0.30690  0.03180  Biso   1.000  H
  H78      1.0000 0.29090  0.33740  0.64270  Biso   1.000  H
  H79      1.0000 0.35530  0.30510  0.90900  Biso   1.000  H
  H80      1.0000 0.15120  0.41970  0.63720  Biso   1.000  H
  H81      1.0000 0.51090  0.39430  0.83780  Biso   1.000  H
  H82      1.0000 0.42830  0.48850  0.77230  Biso   1.000  H
  H83      1.0000 0.05130  0.51030  0.57740  Biso   1.000  H
  H84      1.0000 0.29720  0.65580  0.61380  Biso   1.000  H
  H85      1.0000 0.12550  0.24370  0.29280  Biso   1.000  H
  H86      1.0000 0.11570  0.32990  0.73580  Biso   1.000  H
  H87      1.0000 0.10310  0.56580  0.32620  Biso   1.000  H
  H88      1.0000 0.11310  0.33150  0.85880  Biso   1.000  H
  H89      1.0000 0.14260  0.30690  0.96820  Biso   1.000  H
  H90      1.0000 0.20910  0.33740  0.35730  Biso   1.000  H
  H91      1.0000 0.14470  0.30510  0.09100  Biso   1.000  H
  H92      1.0000 0.34880  0.41970  0.36280  Biso   1.000  H
  H93      1.0000 0.98910  0.39430  0.16220  Biso   1.000  H
  H94      1.0000 0.07170  0.48850  0.22770  Biso   1.000  H
  H95      1.0000 0.44870  0.51030  0.42260  Biso   1.000  H
  H96      1.0000 0.20280  0.65580  0.38620  Biso   1.000  H
  H97      1.0000 0.25000  0.40430  0.50000  Biso   1.000  H
  H98      1.0000 0.75000  0.09570  0.50000  Biso   1.000  H
  H99      1.0000 0.75000  0.59570  0.50000  Biso   1.000  H
  H100     1.0000 0.25000  0.90430  0.50000  Biso   1.000  H
  C1       1.0000 0.38450  0.79292  0.27880  Biso   1.000  C
  C2       1.0000 0.43160  0.79769  0.76041  Biso   1.000  C
  C3       1.0000 0.44910  0.80884  0.21982  Biso   1.000  C
  C4       1.0000 0.32740  0.05418  0.34540  Biso   1.000  C
  C5       1.0000 0.43250  0.79817  0.83443  Biso   1.000  C
  C6       1.0000 0.28540  0.98228  0.33776  Biso   1.000  C
  C7       1.0000 0.34690  0.92307  0.29836  Biso   1.000  C
  C8       1.0000 0.41530  0.78340  0.99253  Biso   1.000  C
  C9       1.0000 0.33420  0.84932  0.31753  Biso   1.000  C
  C10      1.0000 0.41430  0.78300  0.06660  Biso   1.000  C
  C11      1.0000 0.18110  0.96718  0.36722  Biso   1.000  C
  C12      1.0000 0.46580  0.88256  0.20126  Biso   1.000  C
  C13      1.0000 0.41560  0.93921  0.24050  Biso   1.000  C
  C14      1.0000 0.16310  0.09275  0.40982  Biso   1.000  C
  C15      1.0000 0.12070  0.02173  0.40304  Biso   1.000  C
  C16      1.0000 0.26740  0.10836  0.38120  Biso   1.000  C
  C17      1.0000 0.09800  0.15069  0.44770  Biso   1.000  C
  C18      1.0000 0.11550  0.79292  0.72120  Biso   1.000  C
  C19      1.0000 0.06840  0.79769  0.23959  Biso   1.000  C
  C20      1.0000 0.05090  0.80884  0.78018  Biso   1.000  C
  C21      1.0000 0.17260  0.05418  0.65460  Biso   1.000  C
  C22      1.0000 0.06750  0.79817  0.16557  Biso   1.000  C
  C23      1.0000 0.21460  0.98228  0.66224  Biso   1.000  C
  C24      1.0000 0.15310  0.92307  0.70164  Biso   1.000  C
  C25      1.0000 0.08470  0.78340  0.00747  Biso   1.000  C
  C26      1.0000 0.16580  0.84932  0.68247  Biso   1.000  C
  C27      1.0000 0.08570  0.78300  0.93340  Biso   1.000  C
  C28      1.0000 0.31890  0.96718  0.63278  Biso   1.000  C
  C29      1.0000 0.03420  0.88256  0.79874  Biso   1.000  C
  C30      1.0000 0.08440  0.93921  0.75950  Biso   1.000  C
  C31      1.0000 0.33690  0.09275  0.59018  Biso   1.000  C
  C32      1.0000 0.37930  0.02173  0.59696  Biso   1.000  C
  C33      1.0000 0.23260  0.10836  0.61880  Biso   1.000  C
  C34      1.0000 0.40200  0.15069  0.55230  Biso   1.000  C
  C35      1.0000 0.61550  0.70708  0.27880  Biso   1.000  C
  C36      1.0000 0.56840  0.70231  0.76041  Biso   1.000  C
  C37      1.0000 0.55090  0.69116  0.21982  Biso   1.000  C
  C38      1.0000 0.67260  0.44582  0.34540  Biso   1.000  C
  C39      1.0000 0.56750  0.70183  0.83443  Biso   1.000  C
  C40      1.0000 0.71460  0.51772  0.33776  Biso   1.000  C
  C41      1.0000 0.65310  0.57693  0.29836  Biso   1.000  C
  C42      1.0000 0.58470  0.71660  0.99253  Biso   1.000  C
  C43      1.0000 0.66580  0.65068  0.31753  Biso   1.000  C
  C44      1.0000 0.58570  0.71700  0.06660  Biso   1.000  C
  C45      1.0000 0.81890  0.53282  0.36722  Biso   1.000  C
  C46      1.0000 0.53420  0.61744  0.20126  Biso   1.000  C
  C47      1.0000 0.58440  0.56079  0.24050  Biso   1.000  C
  C48      1.0000 0.83690  0.40725  0.40982  Biso   1.000  C
  C49      1.0000 0.87930  0.47827  0.40304  Biso   1.000  C
  C50      1.0000 0.73260  0.39164  0.38120  Biso   1.000  C
  C51      1.0000 0.90200  0.34931  0.44770  Biso   1.000  C
  C52      1.0000 0.88450  0.70708  0.72120  Biso   1.000  C
  C53      1.0000 0.93160  0.70231  0.23959  Biso   1.000  C
  C54      1.0000 0.94910  0.69116  0.78018  Biso   1.000  C
  C55      1.0000 0.82740  0.44582  0.65460  Biso   1.000  C
  C56      1.0000 0.93250  0.70183  0.16557  Biso   1.000  C
  C57      1.0000 0.78540  0.51772  0.66224  Biso   1.000  C
  C58      1.0000 0.84690  0.57693  0.70164  Biso   1.000  C
  C59      1.0000 0.91530  0.71660  0.00747  Biso   1.000  C
  C60      1.0000 0.83420  0.65068  0.68247  Biso   1.000  C
  C61      1.0000 0.91430  0.71700  0.93340  Biso   1.000  C
  C62      1.0000 0.68110  0.53282  0.63278  Biso   1.000  C
  C63      1.0000 0.96580  0.61744  0.79874  Biso   1.000  C
  C64      1.0000 0.91560  0.56079  0.75950  Biso   1.000  C
  C65      1.0000 0.66310  0.40725  0.59018  Biso   1.000  C
  C66      1.0000 0.62070  0.47827  0.59696  Biso   1.000  C
  C67      1.0000 0.76740  0.39164  0.61880  Biso   1.000  C
  C68      1.0000 0.59800  0.34931  0.55230  Biso   1.000  C
  C69      1.0000 0.61550  0.20708  0.72120  Biso   1.000  C
  C70      1.0000 0.56840  0.20231  0.23959  Biso   1.000  C
  C71      1.0000 0.55090  0.19116  0.78018  Biso   1.000  C
  C72      1.0000 0.67260  0.94582  0.65460  Biso   1.000  C
  C73      1.0000 0.56750  0.20183  0.16557  Biso   1.000  C
  C74      1.0000 0.71460  0.01772  0.66224  Biso   1.000  C
  C75      1.0000 0.65310  0.07693  0.70164  Biso   1.000  C
  C76      1.0000 0.58470  0.21660  0.00747  Biso   1.000  C
  C77      1.0000 0.66580  0.15068  0.68247  Biso   1.000  C
  C78      1.0000 0.58570  0.21700  0.93340  Biso   1.000  C
  C79      1.0000 0.81890  0.03282  0.63278  Biso   1.000  C
  C80      1.0000 0.53420  0.11744  0.79874  Biso   1.000  C
  C81      1.0000 0.58440  0.06079  0.75950  Biso   1.000  C
  C82      1.0000 0.83690  0.90725  0.59018  Biso   1.000  C
  C83      1.0000 0.87930  0.97827  0.59696  Biso   1.000  C
  C84      1.0000 0.73260  0.89164  0.61880  Biso   1.000  C
  C85      1.0000 0.90200  0.84931  0.55230  Biso   1.000  C
  C86      1.0000 0.88450  0.20708  0.27880  Biso   1.000  C
  C87      1.0000 0.93160  0.20231  0.76041  Biso   1.000  C
  C88      1.0000 0.94910  0.19116  0.21982  Biso   1.000  C
  C89      1.0000 0.82740  0.94582  0.34540  Biso   1.000  C
  C90      1.0000 0.93250  0.20183  0.83443  Biso   1.000  C
  C91      1.0000 0.78540  0.01772  0.33776  Biso   1.000  C
  C92      1.0000 0.84690  0.07693  0.29836  Biso   1.000  C
  C93      1.0000 0.91530  0.21660  0.99253  Biso   1.000  C
  C94      1.0000 0.83420  0.15068  0.31753  Biso   1.000  C
  C95      1.0000 0.91430  0.21700  0.06660  Biso   1.000  C
  C96      1.0000 0.68110  0.03282  0.36722  Biso   1.000  C
  C97      1.0000 0.96580  0.11744  0.20126  Biso   1.000  C
  C98      1.0000 0.91560  0.06079  0.24050  Biso   1.000  C
  C99      1.0000 0.66310  0.90725  0.40982  Biso   1.000  C
  C100     1.0000 0.62070  0.97827  0.40304  Biso   1.000  C
  C101     1.0000 0.76740  0.89164  0.38120  Biso   1.000  C
  C102     1.0000 0.59800  0.84931  0.44770  Biso   1.000  C
  C103     1.0000 0.38450  0.29292  0.72120  Biso   1.000  C
  C104     1.0000 0.43160  0.29769  0.23959  Biso   1.000  C
  C105     1.0000 0.44910  0.30884  0.78018  Biso   1.000  C
  C106     1.0000 0.32740  0.55418  0.65460  Biso   1.000  C
  C107     1.0000 0.43250  0.29817  0.16557  Biso   1.000  C
  C108     1.0000 0.28540  0.48228  0.66224  Biso   1.000  C
  C109     1.0000 0.34690  0.42307  0.70164  Biso   1.000  C
  C110     1.0000 0.41530  0.28340  0.00747  Biso   1.000  C
  C111     1.0000 0.33420  0.34932  0.68247  Biso   1.000  C
  C112     1.0000 0.41430  0.28300  0.93340  Biso   1.000  C
  C113     1.0000 0.18110  0.46718  0.63278  Biso   1.000  C
  C114     1.0000 0.46580  0.38256  0.79874  Biso   1.000  C
  C115     1.0000 0.41560  0.43921  0.75950  Biso   1.000  C
  C116     1.0000 0.16310  0.59275  0.59018  Biso   1.000  C
  C117     1.0000 0.12070  0.52173  0.59696  Biso   1.000  C
  C118     1.0000 0.26740  0.60836  0.61880  Biso   1.000  C
  C119     1.0000 0.09800  0.65069  0.55230  Biso   1.000  C
  C120     1.0000 0.11550  0.29292  0.27880  Biso   1.000  C
  C121     1.0000 0.06840  0.29769  0.76041  Biso   1.000  C
  C122     1.0000 0.05090  0.30884  0.21982  Biso   1.000  C
  C123     1.0000 0.17260  0.55418  0.34540  Biso   1.000  C
  C124     1.0000 0.06750  0.29817  0.83443  Biso   1.000  C
  C125     1.0000 0.21460  0.48228  0.33776  Biso   1.000  C
  C126     1.0000 0.15310  0.42307  0.29836  Biso   1.000  C
  C127     1.0000 0.08470  0.28340  0.99253  Biso   1.000  C
  C128     1.0000 0.16580  0.34932  0.31753  Biso   1.000  C
  C129     1.0000 0.08570  0.28300  0.06660  Biso   1.000  C
  C130     1.0000 0.31890  0.46718  0.36722  Biso   1.000  C
  C131     1.0000 0.03420  0.38256  0.20126  Biso   1.000  C
  C132     1.0000 0.08440  0.43921  0.24050  Biso   1.000  C
  C133     1.0000 0.33690  0.59275  0.40982  Biso   1.000  C
  C134     1.0000 0.37930  0.52173  0.40304  Biso   1.000  C
  C135     1.0000 0.23260  0.60836  0.38120  Biso   1.000  C
  C136     1.0000 0.40200  0.65069  0.44770  Biso   1.000  C
  C137     1.0000 0.50000  0.75000  0.10500  Biso   1.000  C
  C138     1.0000 0.50000  0.75000  0.87350  Biso   1.000  C
  C139     1.0000 0.50000  0.75000  0.64155  Biso   1.000  C
  C140     1.0000 0.50000  0.75000  0.72215  Biso   1.000  C
  C141     1.0000 0.50000  0.75000  0.95310  Biso   1.000  C
  C142     1.0000 0.00000  0.75000  0.89500  Biso   1.000  C
  C143     1.0000 0.00000  0.75000  0.12650  Biso   1.000  C
  C144     1.0000 0.00000  0.75000  0.35845  Biso   1.000  C
  C145     1.0000 0.00000  0.75000  0.27785  Biso   1.000  C
  C146     1.0000 0.00000  0.75000  0.04690  Biso   1.000  C
  C147     1.0000 0.50000  0.25000  0.89500  Biso   1.000  C
  C148     1.0000 0.50000  0.25000  0.12650  Biso   1.000  C
  C149     1.0000 0.50000  0.25000  0.35845  Biso   1.000  C
  C150     1.0000 0.50000  0.25000  0.27785  Biso   1.000  C
  C151     1.0000 0.50000  0.25000  0.04690  Biso   1.000  C
  C152     1.0000 0.00000  0.25000  0.10500  Biso   1.000  C
  C153     1.0000 0.00000  0.25000  0.87350  Biso   1.000  C
  C154     1.0000 0.00000  0.25000  0.64155  Biso   1.000  C
  C155     1.0000 0.00000  0.25000  0.72215  Biso   1.000  C
  C156     1.0000 0.00000  0.25000  0.95310  Biso   1.000  C
  N1       1.0000 0.50000  0.75000  0.18067  Biso   1.000  N
  N2       1.0000 0.00000  0.75000  0.81933  Biso   1.000  N
  N3       1.0000 0.50000  0.25000  0.81933  Biso   1.000  N
  N4       1.0000 0.00000  0.25000  0.18067  Biso   1.000  N
  O1       1.0000 0.42306  0.78439  0.61068  Biso   1.000  O
  O2       1.0000 0.13960  0.21489  0.45150  Biso   1.000  O
  O3       1.0000 0.00559  0.13234  0.47355  Biso   1.000  O
  O4       1.0000 0.07694  0.78439  0.38932  Biso   1.000  O
  O5       1.0000 0.36040  0.21489  0.54850  Biso   1.000  O
  O6       1.0000 0.49441  0.13234  0.52645  Biso   1.000  O
  O7       1.0000 0.57694  0.71561  0.61068  Biso   1.000  O
  O8       1.0000 0.86040  0.28511  0.45150  Biso   1.000  O
  O9       1.0000 0.99441  0.36766  0.47355  Biso   1.000  O
  O10      1.0000 0.92306  0.71561  0.38932  Biso   1.000  O
  O11      1.0000 0.63960  0.28511  0.54850  Biso   1.000  O
  O12      1.0000 0.50559  0.36766  0.52645  Biso   1.000  O
  O13      1.0000 0.57694  0.21561  0.38932  Biso   1.000  O
  O14      1.0000 0.86040  0.78511  0.54850  Biso   1.000  O
  O15      1.0000 0.99441  0.86766  0.52645  Biso   1.000  O
  O16      1.0000 0.92306  0.21561  0.61068  Biso   1.000  O
  O17      1.0000 0.63960  0.78511  0.45150  Biso   1.000  O
  O18      1.0000 0.50559  0.86766  0.47355  Biso   1.000  O
  O19      1.0000 0.42306  0.28439  0.38932  Biso   1.000  O
  O20      1.0000 0.13960  0.71489  0.54850  Biso   1.000  O
  O21      1.0000 0.00559  0.63234  0.52645  Biso   1.000  O
  O22      1.0000 0.07694  0.28439  0.61068  Biso   1.000  O
  O23      1.0000 0.36040  0.71489  0.45150  Biso   1.000  O
  O24      1.0000 0.49441  0.63234  0.47355  Biso   1.000  O
  O25      1.0000 0.25000  0.35254  0.50000  Biso   1.000  O
  O26      1.0000 0.75000  0.14746  0.50000  Biso   1.000  O
  O27      1.0000 0.75000  0.64746  0.50000  Biso   1.000  O
  O28      1.0000 0.25000  0.85254  0.50000  Biso   1.000  O
