data_image0
_cell_length_a       6.3632
_cell_length_b       9.4906
_cell_length_c       15.1002
_cell_angle_alpha    96.575
_cell_angle_beta     93.094
_cell_angle_gamma    100.221

_symmetry_space_group_name_H-M    P 1
_symmetry_int_tables_number       1

loop_
  _symmetry_equiv_pos_as_xyz
  'x, y, z'

loop_
  _atom_site_label
  _atom_site_occupancy
  _atom_site_fract_x
  _atom_site_fract_y
  _atom_site_fract_z
  _atom_site_thermal_displace_type
  _atom_site_B_iso_or_equiv
  _atom_site_type_symbol
  Ag1      1.0000 0.62477  0.13980  0.98749  Biso   1.000  Ag
  Ag2      1.0000 0.13808  0.58685  0.57397  Biso   1.000  Ag
  Ag3      1.0000 0.44510  0.59046  0.41613  Biso   1.000  Ag
  Ag4      1.0000 0.37523  0.86020  0.01251  Biso   1.000  Ag
  Ag5      1.0000 0.86192  0.41315  0.42603  Biso   1.000  Ag
  Ag6      1.0000 0.55490  0.40954  0.58387  Biso   1.000  Ag
  H1       1.0000 0.17800  0.60100  0.20100  Biso   1.000  H
  H2       1.0000 0.54900  0.11000  0.42300  Biso   1.000  H
  H3       1.0000 0.11400  0.11500  0.10000  Biso   1.000  H
  H4       1.0000 0.76980  0.00320  0.26530  Biso   1.000  H
  H5       1.0000 0.77760  0.76940  0.25780  Biso   1.000  H
  H6       1.0000 0.86740  0.90580  0.39010  Biso   1.000  H
  H7       1.0000 0.18580  0.00660  0.45650  Biso   1.000  H
  H8       1.0000 0.00050  0.13670  0.38090  Biso   1.000  H
  H9       1.0000 0.01430  0.18970  0.24210  Biso   1.000  H
  H10      1.0000 0.82200  0.39900  0.79900  Biso   1.000  H
  H11      1.0000 0.45100  0.89000  0.57700  Biso   1.000  H
  H12      1.0000 0.88600  0.88500  0.90000  Biso   1.000  H
  H13      1.0000 0.23020  0.99680  0.73470  Biso   1.000  H
  H14      1.0000 0.22240  0.23060  0.74220  Biso   1.000  H
  H15      1.0000 0.13260  0.09420  0.60990  Biso   1.000  H
  H16      1.0000 0.81420  0.99340  0.54350  Biso   1.000  H
  H17      1.0000 0.99950  0.86330  0.61910  Biso   1.000  H
  H18      1.0000 0.98570  0.81030  0.75790  Biso   1.000  H
  C1       1.0000 0.88340  0.97460  0.22980  Biso   1.000  C
  C2       1.0000 0.91800  0.83330  0.26400  Biso   1.000  C
  C3       1.0000 0.98560  0.86480  0.36510  Biso   1.000  C
  C4       1.0000 0.18100  0.98540  0.39130  Biso   1.000  C
  C5       1.0000 0.13410  0.12280  0.35470  Biso   1.000  C
  C6       1.0000 0.07220  0.10390  0.25340  Biso   1.000  C
  C7       1.0000 0.78380  0.95270  0.13450  Biso   1.000  C
  C8       1.0000 0.06170  0.75710  0.20700  Biso   1.000  C
  C9       1.0000 0.98610  0.73120  0.41190  Biso   1.000  C
  C10      1.0000 0.39350  0.93680  0.37160  Biso   1.000  C
  C11      1.0000 0.28770  0.26320  0.38890  Biso   1.000  C
  C12      1.0000 0.26880  0.10770  0.20040  Biso   1.000  C
  C13      1.0000 0.11660  0.02540  0.77020  Biso   1.000  C
  C14      1.0000 0.08200  0.16670  0.73600  Biso   1.000  C
  C15      1.0000 0.01440  0.13520  0.63490  Biso   1.000  C
  C16      1.0000 0.81900  0.01460  0.60870  Biso   1.000  C
  C17      1.0000 0.86590  0.87720  0.64530  Biso   1.000  C
  C18      1.0000 0.92780  0.89610  0.74660  Biso   1.000  C
  C19      1.0000 0.21620  0.04730  0.86550  Biso   1.000  C
  C20      1.0000 0.93830  0.24290  0.79300  Biso   1.000  C
  C21      1.0000 0.01390  0.26880  0.58810  Biso   1.000  C
  C22      1.0000 0.60650  0.06320  0.62840  Biso   1.000  C
  C23      1.0000 0.71230  0.73680  0.61110  Biso   1.000  C
  C24      1.0000 0.73120  0.89230  0.79960  Biso   1.000  C
  O1       1.0000 0.83390  0.05220  0.08600  Biso   1.000  O
  O2       1.0000 0.64650  0.84020  0.11000  Biso   1.000  O
  O3       1.0000 0.15050  0.80930  0.14680  Biso   1.000  O
  O4       1.0000 0.06950  0.62460  0.22500  Biso   1.000  O
  O5       1.0000 0.12150  0.73930  0.47640  Biso   1.000  O
  O6       1.0000 0.83930  0.62500  0.38660  Biso   1.000  O
  O7       1.0000 0.40580  0.82070  0.33270  Biso   1.000  O
  O8       1.0000 0.56980  0.02560  0.40730  Biso   1.000  O
  O9       1.0000 0.43480  0.26210  0.44790  Biso   1.000  O
  O10      1.0000 0.24930  0.37630  0.36010  Biso   1.000  O
  O11      1.0000 0.44520  0.11510  0.23620  Biso   1.000  O
  O12      1.0000 0.24540  0.11820  0.11440  Biso   1.000  O
  O13      1.0000 0.16610  0.94780  0.91400  Biso   1.000  O
  O14      1.0000 0.35350  0.15980  0.89000  Biso   1.000  O
  O15      1.0000 0.84950  0.19070  0.85320  Biso   1.000  O
  O16      1.0000 0.93050  0.37540  0.77500  Biso   1.000  O
  O17      1.0000 0.87850  0.26070  0.52360  Biso   1.000  O
  O18      1.0000 0.16070  0.37500  0.61340  Biso   1.000  O
  O19      1.0000 0.59420  0.17930  0.66730  Biso   1.000  O
  O20      1.0000 0.43020  0.97440  0.59270  Biso   1.000  O
  O21      1.0000 0.56520  0.73790  0.55210  Biso   1.000  O
  O22      1.0000 0.75070  0.62370  0.63990  Biso   1.000  O
  O23      1.0000 0.55480  0.88490  0.76380  Biso   1.000  O
  O24      1.0000 0.75460  0.88180  0.88560  Biso   1.000  O
