data_KEHGOV_clean5b
_audit_creation_date              2014-07-02
_audit_creation_method            'Materials Studio'
_symmetry_space_group_name_H-M    'P1'
_symmetry_Int_Tables_number       1
_symmetry_cell_setting            triclinic
loop_
_symmetry_equiv_pos_as_xyz
  x,y,z
_cell_length_a                    8.7809
_cell_length_b                    28.2333
_cell_length_c                    11.3833
_cell_angle_alpha                 90.0000
_cell_angle_beta                  90.0000
_cell_angle_gamma                 90.0000
loop_
_atom_site_label
_atom_site_type_symbol
_atom_site_fract_x
_atom_site_fract_y
_atom_site_fract_z
_atom_site_U_iso_or_equiv
_atom_site_adp_type
_atom_site_occupancy
Cd1    Cd    0.68336   0.38328   0.50028   0.01267  Uiso   1.00
Cd2    Cd    0.31656   0.61673   0.49958   0.01267  Uiso   1.00
Cd3    Cd    0.18345   0.11675  -0.00063   0.01267  Uiso   1.00
Cd4    Cd    0.81664   0.88328  -0.00063   0.01267  Uiso   1.00
Cd5    Cd    0.50004   0.50000   0.49995   0.01267  Uiso   1.00
Cd6    Cd    0.00039   0.00004  -0.00067   0.01267  Uiso   1.00
H1     H     0.51861   0.34438   0.25390   0.01267  Uiso   1.00
H2     H     0.29021   0.47513   0.25794   0.01267  Uiso   1.00
H3     H     0.83393   0.43974   0.18431   0.01267  Uiso   1.00
H4     H     0.18122   0.32545   0.19224   0.01267  Uiso   1.00
H5     H     0.35273   0.31408   0.11193   0.01267  Uiso   1.00
H6     H     0.14994   0.45568   0.10761   0.01267  Uiso   1.00
H7     H     0.06747   0.40866   0.19120   0.01267  Uiso   1.00
H8     H     0.93226   0.34246   0.07952   0.01267  Uiso   1.00
H9     H     0.48213   0.65559   0.25392   0.01267  Uiso   1.00
H10    H     0.71178   0.52505   0.25878   0.01267  Uiso   1.00
H11    H     0.16640   0.56024   0.18347   0.01267  Uiso   1.00
H12    H     0.81974   0.67464   0.19189   0.01267  Uiso   1.00
H13    H     0.64782   0.68594   0.11205   0.01267  Uiso   1.00
H14    H     0.85050   0.54435   0.10735   0.01267  Uiso   1.00
H15    H     0.93345   0.59137   0.19067   0.01267  Uiso   1.00
H16    H     0.06801   0.65755   0.07856   0.01267  Uiso   1.00
H17    H     0.01875   0.15550   0.24578   0.01267  Uiso   1.00
H18    H     0.78963   0.02487   0.24117   0.01267  Uiso   1.00
H19    H     0.33371   0.06014   0.31571   0.01267  Uiso   1.00
H20    H     0.68101   0.17448   0.30714   0.01267  Uiso   1.00
H21    H     0.85264   0.18588   0.38727   0.01267  Uiso   1.00
H22    H     0.64991   0.04428   0.39212   0.01267  Uiso   1.00
H23    H     0.56726   0.09123   0.30847   0.01267  Uiso   1.00
H24    H     0.43226   0.15753   0.42008   0.01267  Uiso   1.00
H25    H     0.98097   0.84457   0.24588   0.01267  Uiso   1.00
H26    H     0.21073   0.97509   0.24095   0.01267  Uiso   1.00
H27    H     0.66623   0.93988   0.31572   0.01267  Uiso   1.00
H28    H     0.31889   0.82558   0.30697   0.01267  Uiso   1.00
H29    H     0.14730   0.81414   0.38712   0.01267  Uiso   1.00
H30    H     0.34996   0.95575   0.39221   0.01267  Uiso   1.00
H31    H     0.43263   0.90882   0.30845   0.01267  Uiso   1.00
H32    H     0.56770   0.84250   0.41992   0.01267  Uiso   1.00
H33    H     0.48131   0.65559   0.74608   0.01267  Uiso   1.00
H34    H     0.70972   0.52484   0.74200   0.01267  Uiso   1.00
H35    H     0.16612   0.56027   0.81568   0.01267  Uiso   1.00
H36    H     0.81867   0.67448   0.80757   0.01267  Uiso   1.00
H37    H     0.64719   0.68588   0.88790   0.01267  Uiso   1.00
H38    H     0.85003   0.54429   0.89240   0.01267  Uiso   1.00
H39    H     0.93247   0.59129   0.80874   0.01267  Uiso   1.00
H40    H     0.06771   0.65752   0.92032   0.01267  Uiso   1.00
H41    H     0.51787   0.34443   0.74605   0.01267  Uiso   1.00
H42    H     0.28829   0.47498   0.74119   0.01267  Uiso   1.00
H43    H     0.83353   0.43976   0.81652   0.01267  Uiso   1.00
H44    H     0.18028   0.32542   0.80791   0.01267  Uiso   1.00
H45    H     0.35215   0.31409   0.88779   0.01267  Uiso   1.00
H46    H     0.14952   0.45568   0.89267   0.01267  Uiso   1.00
H47    H     0.06657   0.40868   0.80927   0.01267  Uiso   1.00
H48    H     0.93192   0.34248   0.92129   0.01267  Uiso   1.00
H49    H     0.98243   0.84422   0.75385   0.01267  Uiso   1.00
H50    H     0.21093   0.97496   0.75778   0.01267  Uiso   1.00
H51    H     0.66600   0.93964   0.68350   0.01267  Uiso   1.00
H52    H     0.31934   0.82527   0.69129   0.01267  Uiso   1.00
H53    H     0.14753   0.81401   0.61125   0.01267  Uiso   1.00
H54    H     0.35035   0.95558   0.60710   0.01267  Uiso   1.00
H55    H     0.43310   0.90850   0.69036   0.01267  Uiso   1.00
H56    H     0.56785   0.84241   0.57816   0.01267  Uiso   1.00
H57    H     0.01743   0.15577   0.75386   0.01267  Uiso   1.00
H58    H     0.78948   0.02494   0.75761   0.01267  Uiso   1.00
H59    H     0.33388   0.06036   0.68350   0.01267  Uiso   1.00
H60    H     0.68069   0.17466   0.69146   0.01267  Uiso   1.00
H61    H     0.85245   0.18595   0.61140   0.01267  Uiso   1.00
H62    H     0.64959   0.04439   0.60709   0.01267  Uiso   1.00
H63    H     0.56689   0.09146   0.69041   0.01267  Uiso   1.00
H64    H     0.43210   0.15757   0.57832   0.01267  Uiso   1.00
H65    H     0.32637   0.23215  -0.00023   0.01267  Uiso   1.00
H66    H     0.86370   0.26905  -0.00001   0.01267  Uiso   1.00
H67    H     0.48413   0.38183  -0.00046   0.01267  Uiso   1.00
H68    H     0.40079   0.43991  -0.00035   0.01267  Uiso   1.00
H69    H     0.67350   0.76785  -0.00065   0.01267  Uiso   1.00
H70    H     0.13618   0.73096  -0.00033   0.01267  Uiso   1.00
H71    H     0.51584   0.61815   0.00045   0.01267  Uiso   1.00
H72    H     0.59919   0.56009   0.00041   0.01267  Uiso   1.00
H73    H     0.82657   0.26785   0.49952   0.01267  Uiso   1.00
H74    H     0.36387   0.23097   0.49976   0.01267  Uiso   1.00
H75    H     0.98418   0.11816   0.49968   0.01267  Uiso   1.00
H76    H     0.90085   0.06009   0.49978   0.01267  Uiso   1.00
H77    H     0.17345   0.73213   0.49901   0.01267  Uiso   1.00
H78    H     0.63612   0.76904   0.49920   0.01267  Uiso   1.00
H79    H     0.01575   0.88182   0.49969   0.01267  Uiso   1.00
H80    H     0.09907   0.93990   0.49987   0.01267  Uiso   1.00
C1     C     0.48078   0.37978   0.27543   0.01267  Uiso   1.00
C2     C     0.36449   0.44579   0.27773   0.01267  Uiso   1.00
C3     C     0.80449   0.44496   0.09325   0.01267  Uiso   1.00
C4     C     0.24551   0.33500   0.11144   0.01267  Uiso   1.00
C5     C     0.28279   0.38948   0.11208   0.01267  Uiso   1.00
C6     C     0.13001   0.41696   0.10947   0.01267  Uiso   1.00
C7     C     0.52047   0.62028   0.27578   0.01267  Uiso   1.00
C8     C     0.63738   0.55438   0.27851   0.01267  Uiso   1.00
C9     C     0.19566   0.55503   0.09236   0.01267  Uiso   1.00
C10    C     0.75507   0.66504   0.11131   0.01267  Uiso   1.00
C11    C     0.71790   0.61057   0.11223   0.01267  Uiso   1.00
C12    C     0.87053   0.58307   0.10913   0.01267  Uiso   1.00
C13    C     0.98071   0.12013   0.22408   0.01267  Uiso   1.00
C14    C     0.86408   0.05419   0.22149   0.01267  Uiso   1.00
C15    C     0.30440   0.05499   0.40682   0.01267  Uiso   1.00
C16    C     0.74541   0.16496   0.38791   0.01267  Uiso   1.00
C17    C     0.78267   0.11048   0.38734   0.01267  Uiso   1.00
C18    C     0.62992   0.08299   0.39017   0.01267  Uiso   1.00
C19    C     0.01919   0.87991   0.22411   0.01267  Uiso   1.00
C20    C     0.13616   0.94579   0.22134   0.01267  Uiso   1.00
C21    C     0.69554   0.94502   0.40683   0.01267  Uiso   1.00
C22    C     0.25453   0.83506   0.38778   0.01267  Uiso   1.00
C23    C     0.21726   0.88953   0.38733   0.01267  Uiso   1.00
C24    C     0.36999   0.91704   0.39018   0.01267  Uiso   1.00
C25    C     0.51914   0.62019   0.72454   0.01267  Uiso   1.00
C26    C     0.63542   0.55418   0.72222   0.01267  Uiso   1.00
C27    C     0.19553   0.55505   0.90675   0.01267  Uiso   1.00
C28    C     0.75441   0.66496   0.88841   0.01267  Uiso   1.00
C29    C     0.71715   0.61049   0.88787   0.01267  Uiso   1.00
C30    C     0.86994   0.58301   0.89049   0.01267  Uiso   1.00
C31    C     0.47954   0.37974   0.72418   0.01267  Uiso   1.00
C32    C     0.36267   0.44565   0.72145   0.01267  Uiso   1.00
C33    C     0.80429   0.44497   0.90763   0.01267  Uiso   1.00
C34    C     0.24490   0.33499   0.88853   0.01267  Uiso   1.00
C35    C     0.28211   0.38946   0.88772   0.01267  Uiso   1.00
C36    C     0.12947   0.41696   0.89083   0.01267  Uiso   1.00
C37    C     0.02046   0.87960   0.77546   0.01267  Uiso   1.00
C38    C     0.13684   0.94559   0.77774   0.01267  Uiso   1.00
C39    C     0.69541   0.94491   0.59244   0.01267  Uiso   1.00
C40    C     0.25480   0.83491   0.61068   0.01267  Uiso   1.00
C41    C     0.21764   0.88937   0.61168   0.01267  Uiso   1.00
C42    C     0.37031   0.91686   0.60879   0.01267  Uiso   1.00
C43    C     0.97963   0.12037   0.77538   0.01267  Uiso   1.00
C44    C     0.86356   0.05432   0.77755   0.01267  Uiso   1.00
C45    C     0.30450   0.05509   0.59243   0.01267  Uiso   1.00
C46    C     0.74519   0.16505   0.61081   0.01267  Uiso   1.00
C47    C     0.78235   0.11058   0.61169   0.01267  Uiso   1.00
C48    C     0.62966   0.08311   0.60882   0.01267  Uiso   1.00
C49    C     0.20322   0.23087  -0.00004   0.01267  Uiso   1.00
C50    C     0.97007   0.24982   0.00002   0.01267  Uiso   1.00
C51    C     0.15047   0.32124   0.00011   0.01267  Uiso   1.00
C52    C     0.03432   0.40442   0.00027   0.01267  Uiso   1.00
C53    C     0.00121   0.35113   0.00032   0.01267  Uiso   1.00
C54    C     0.37431   0.40155  -0.00028   0.01267  Uiso   1.00
C55    C     0.79665   0.76914  -0.00048   0.01267  Uiso   1.00
C56    C     0.02980   0.75019  -0.00037   0.01267  Uiso   1.00
C57    C     0.84946   0.67876  -0.00032   0.01267  Uiso   1.00
C58    C     0.96566   0.59558  -0.00034   0.01267  Uiso   1.00
C59    C     0.99874   0.64888  -0.00048   0.01267  Uiso   1.00
C60    C     0.62566   0.59844   0.00027   0.01267  Uiso   1.00
C61    C     0.70342   0.26914   0.49945   0.01267  Uiso   1.00
C62    C     0.47025   0.25020   0.49961   0.01267  Uiso   1.00
C63    C     0.65059   0.17876   0.49930   0.01267  Uiso   1.00
C64    C     0.53437   0.09559   0.49942   0.01267  Uiso   1.00
C65    C     0.50130   0.14889   0.49926   0.01267  Uiso   1.00
C66    C     0.87437   0.09844   0.49963   0.01267  Uiso   1.00
C67    C     0.29660   0.73085   0.49922   0.01267  Uiso   1.00
C68    C     0.52975   0.74981   0.49923   0.01267  Uiso   1.00
C69    C     0.34938   0.82123   0.49911   0.01267  Uiso   1.00
C70    C     0.46557   0.90440   0.49938   0.01267  Uiso   1.00
C71    C     0.49866   0.85111   0.49911   0.01267  Uiso   1.00
C72    C     0.12556   0.90154   0.49966   0.01267  Uiso   1.00
N1     N     0.53425   0.40502   0.36700   0.01267  Uiso   1.00
N2     N     0.46199   0.44628   0.36878   0.01267  Uiso   1.00
N3     N     0.37142   0.40410   0.21756   0.01267  Uiso   1.00
N4     N     0.67643   0.46692   0.05862   0.01267  Uiso   1.00
N5     N     0.46709   0.59506   0.36737   0.01267  Uiso   1.00
N6     N     0.53967   0.55386   0.36943   0.01267  Uiso   1.00
N7     N     0.63005   0.59601   0.21811   0.01267  Uiso   1.00
N8     N     0.32364   0.53307   0.05760   0.01267  Uiso   1.00
N9     N     0.03412   0.09493   0.13245   0.01267  Uiso   1.00
N10    N     0.96172   0.05370   0.13051   0.01267  Uiso   1.00
N11    N     0.87117   0.09584   0.28180   0.01267  Uiso   1.00
N12    N     0.17643   0.03303   0.44165   0.01267  Uiso   1.00
N13    N     0.96597   0.90509   0.13237   0.01267  Uiso   1.00
N14    N     0.03859   0.94628   0.13032   0.01267  Uiso   1.00
N15    N     0.12878   0.90418   0.28180   0.01267  Uiso   1.00
N16    N     0.82352   0.96697   0.44168   0.01267  Uiso   1.00
N17    N     0.46571   0.59497   0.63292   0.01267  Uiso   1.00
N18    N     0.53797   0.55371   0.63114   0.01267  Uiso   1.00
N19    N     0.62846   0.59586   0.78242   0.01267  Uiso   1.00
N20    N     0.32357   0.53308   0.94139   0.01267  Uiso   1.00
N21    N     0.53288   0.40495   0.63255   0.01267  Uiso   1.00
N22    N     0.46035   0.44615   0.63050   0.01267  Uiso   1.00
N23    N     0.37000   0.40403   0.78187   0.01267  Uiso   1.00
N24    N     0.67632   0.46693   0.94242   0.01267  Uiso   1.00
N25    N     0.96707   0.90485   0.86701   0.01267  Uiso   1.00
N26    N     0.03943   0.94609   0.86883   0.01267  Uiso   1.00
N27    N     0.12970   0.90392   0.71753   0.01267  Uiso   1.00
N28    N     0.82343   0.96689   0.55789   0.01267  Uiso   1.00
N29    N     0.03323   0.09511   0.86684   0.01267  Uiso   1.00
N30    N     0.96111   0.05383   0.86857   0.01267  Uiso   1.00
N31    N     0.87043   0.09602   0.71745   0.01267  Uiso   1.00
N32    N     0.17649   0.03310   0.55786   0.01267  Uiso   1.00
N33    N     0.12059   0.19016  -0.00009   0.01267  Uiso   1.00
N34    N     0.97544   0.20228  -0.00010   0.01267  Uiso   1.00
N35    N     0.11109   0.26957   0.00010   0.01267  Uiso   1.00
N36    N     0.88910   0.43107   0.00039   0.01267  Uiso   1.00
N37    N     0.87928   0.80985  -0.00034   0.01267  Uiso   1.00
N38    N     0.02443   0.79772  -0.00031   0.01267  Uiso   1.00
N39    N     0.88880   0.73043  -0.00045   0.01267  Uiso   1.00
N40    N     0.11089   0.56894  -0.00041   0.01267  Uiso   1.00
N41    N     0.62080   0.30985   0.49971   0.01267  Uiso   1.00
N42    N     0.47565   0.29773   0.49987   0.01267  Uiso   1.00
N43    N     0.61125   0.23044   0.49930   0.01267  Uiso   1.00
N44    N     0.38914   0.06895   0.49954   0.01267  Uiso   1.00
N45    N     0.37925   0.69014   0.49967   0.01267  Uiso   1.00
N46    N     0.52439   0.70227   0.49962   0.01267  Uiso   1.00
N47    N     0.38874   0.76956   0.49900   0.01267  Uiso   1.00
N48    N     0.61078   0.93105   0.49953   0.01267  Uiso   1.00
Cl2    Cl    0.88904   0.37131   0.36599   0.01267  Uiso   1.00
Cl3    Cl    0.24501   0.53250   0.49901   0.01267  Uiso   1.00
Cl4    Cl    0.11256   0.62912   0.36408   0.01267  Uiso   1.00
Cl6    Cl    0.38819   0.12876   0.13442   0.01267  Uiso   1.00
Cl8    Cl    0.61204   0.87134   0.13458   0.01267  Uiso   1.00
Cl10   Cl    0.11113   0.62878   0.63405   0.01267  Uiso   1.00
Cl11   Cl    0.75513   0.46749   0.50097   0.01267  Uiso   1.00
Cl12   Cl    0.88716   0.37079   0.63597   0.01267  Uiso   1.00
Cl13   Cl    0.74536   0.96754   0.99829   0.01267  Uiso   1.00
Cl14   Cl    0.61185   0.87091   0.86452   0.01267  Uiso   1.00
Cl15   Cl    0.25538   0.03256   0.99854   0.01267  Uiso   1.00
Cl16   Cl    0.38808   0.12928   0.86441   0.01267  Uiso   1.00
loop_
_geom_bond_atom_site_label_1
_geom_bond_atom_site_label_2
_geom_bond_distance
_geom_bond_site_symmetry_2
_ccdc_geom_bond_type
Cd1    N1      2.096   .     S
Cd1    N21     2.095   .     S
Cd1    N41     2.145   .     S
Cd1    Cl2     2.390   .     S
Cd1    Cl11    2.460   .     S
Cd1    Cl12    2.390   .     S
Cd2    N5      2.094   .     S
Cd2    N17     2.097   .     S
Cd2    N45     2.144   .     S
Cd2    Cl3     2.460   .     S
Cd2    Cl4     2.390   .     S
Cd2    Cl10    2.390   .     S
Cd3    N9      2.096   .     S
Cd3    N33     2.145   .     S
Cd3    Cl6     2.390   .     S
Cd3    N29     2.095   1_554 S
Cd3    Cl15    2.459   1_554 S
Cd3    Cl16    2.390   1_554 S
Cd4    N13     2.095   .     S
Cd4    N37     2.145   .     S
Cd4    Cl8     2.390   .     S
Cd4    N25     2.094   1_554 S
Cd4    Cl13    2.460   1_554 S
Cd4    Cl14    2.390   1_554 S
Cd5    N2      2.154   .     S
Cd5    N6      2.154   .     S
Cd5    N18     2.154   .     S
Cd5    N22     2.154   .     S
Cd5    Cl3     2.420   .     S
Cd5    Cl11    2.421   .     S
Cd6    N10     2.154   1_455 S
Cd6    N14     2.154   1_545 S
Cd6    N26     2.155   1_544 S
Cd6    N30     2.154   1_454 S
Cd6    Cl13    2.420   1_444 S
Cd6    Cl15    2.420   1_554 S
H1     C1      1.081   .     S
H2     C2      1.078   .     S
H3     C3      1.078   .     S
H4     C4      1.112   .     S
H5     C4      1.111   .     S
H6     C6      1.107   .     S
H7     C6      1.105   .     S
H8     C53     1.113   1_655 S
H9     C7      1.081   .     S
H10    C8      1.078   .     S
H11    C9      1.079   .     S
H12    C10     1.112   .     S
H13    C10     1.111   .     S
H14    C12     1.107   .     S
H15    C12     1.105   .     S
H16    C59     1.113   1_455 S
H17    C13     1.082   1_455 S
H18    C14     1.078   .     S
H19    C15     1.078   .     S
H20    C16     1.112   .     S
H21    C16     1.112   .     S
H22    C18     1.107   .     S
H23    C18     1.105   .     S
H24    C65     1.113   .     S
H25    C19     1.081   1_655 S
H26    C20     1.078   .     S
H27    C21     1.078   .     S
H28    C22     1.112   .     S
H29    C22     1.112   .     S
H30    C24     1.107   .     S
H31    C24     1.105   .     S
H32    C71     1.113   .     S
H33    C25     1.081   .     S
H34    C26     1.078   .     S
H35    C27     1.078   .     S
H36    C28     1.112   .     S
H37    C28     1.111   .     S
H38    C30     1.107   .     S
H39    C30     1.105   .     S
H40    C59     1.113   1_456 S
H41    C31     1.081   .     S
H42    C32     1.078   .     S
H43    C33     1.079   .     S
H44    C34     1.112   .     S
H45    C34     1.111   .     S
H46    C36     1.107   .     S
H47    C36     1.105   .     S
H48    C53     1.113   1_656 S
H49    C37     1.082   1_655 S
H50    C38     1.078   .     S
H51    C39     1.079   .     S
H52    C40     1.112   .     S
H53    C40     1.112   .     S
H54    C42     1.107   .     S
H55    C42     1.105   .     S
H56    C71     1.113   .     S
H57    C43     1.081   1_455 S
H58    C44     1.078   .     S
H59    C45     1.079   .     S
H60    C46     1.112   .     S
H61    C46     1.111   .     S
H62    C48     1.107   .     S
H63    C48     1.105   .     S
H64    C65     1.113   .     S
H65    C49     1.082   .     S
H66    C50     1.080   .     S
H67    C54     1.114   .     S
H68    C54     1.108   .     S
H69    C55     1.082   .     S
H70    C56     1.080   .     S
H71    C60     1.113   .     S
H72    C60     1.107   .     S
H73    C61     1.082   .     S
H74    C62     1.080   .     S
H75    C66     1.113   .     S
H76    C66     1.107   .     S
H77    C67     1.082   .     S
H78    C68     1.080   .     S
H79    C72     1.113   .     S
H80    C72     1.108   .     S
C1     N1      1.347   .     A
C1     N3      1.352   .     A
C2     N2      1.344   .     A
C2     N3      1.363   .     A
C3     N4      1.343   .     A
C3     N36     1.350   .     A
C4     C5      1.573   .     S
C4     C51     1.566   .     S
C5     C6      1.550   .     S
C5     C54     1.549   .     S
C5     N3      1.489   .     S
C6     C52     1.542   .     S
C7     N5      1.347   .     A
C7     N7      1.351   .     A
C8     N6      1.344   .     A
C8     N7      1.363   .     A
C9     N8      1.343   .     A
C9     N40     1.350   .     A
C10    C11     1.572   .     S
C10    C57     1.566   .     S
C11    C12     1.549   .     S
C11    C60     1.548   .     S
C11    N7      1.489   .     S
C12    C58     1.541   .     S
C13    N11     1.352   .     A
C13    H17     1.082   1_655 S
C13    N9      1.347   1_655 S
C14    N10     1.345   .     A
C14    N11     1.363   .     A
C15    N12     1.343   .     A
C15    N44     1.350   .     A
C16    C17     1.573   .     S
C16    C63     1.566   .     S
C17    C18     1.550   .     S
C17    C66     1.548   .     S
C17    N11     1.489   .     S
C18    C64     1.542   .     S
C19    N15     1.352   .     A
C19    H25     1.081   1_455 S
C19    N13     1.347   1_455 S
C20    N14     1.345   .     A
C20    N15     1.363   .     A
C21    N16     1.343   .     A
C21    N48     1.350   .     A
C22    C23     1.572   .     S
C22    C69     1.566   .     S
C23    C24     1.550   .     S
C23    C72     1.549   .     S
C23    N15     1.489   .     S
C24    C70     1.542   .     S
C25    N17     1.347   .     A
C25    N19     1.352   .     A
C26    N18     1.344   .     A
C26    N19     1.363   .     A
C27    N20     1.343   .     A
C27    N40     1.350   1_556 S
C28    C29     1.572   .     S
C28    C57     1.566   1_556 S
C29    C30     1.550   .     S
C29    N19     1.489   .     S
C29    C60     1.549   1_556 S
C30    C58     1.542   1_556 S
C31    N21     1.347   .     A
C31    N23     1.352   .     A
C32    N22     1.345   .     A
C32    N23     1.363   .     A
C33    N24     1.343   .     A
C33    N36     1.350   1_556 S
C34    C35     1.572   .     S
C34    C51     1.566   1_556 S
C35    C36     1.549   .     S
C35    N23     1.489   .     S
C35    C54     1.548   1_556 S
C36    C52     1.541   1_556 S
C37    N27     1.351   .     A
C37    H49     1.082   1_455 S
C37    N25     1.347   1_455 S
C38    N26     1.344   .     A
C38    N27     1.363   .     A
C39    N28     1.343   .     A
C39    N48     1.351   .     A
C40    C41     1.572   .     S
C40    C69     1.566   .     S
C41    C42     1.549   .     S
C41    C72     1.548   .     S
C41    N27     1.489   .     S
C42    C70     1.541   .     S
C43    N31     1.352   .     A
C43    H57     1.081   1_655 S
C43    N29     1.347   1_655 S
C44    N30     1.344   .     A
C44    N31     1.363   .     A
C45    N32     1.343   .     A
C45    N44     1.350   .     A
C46    C47     1.572   .     S
C46    C63     1.566   .     S
C47    C48     1.549   .     S
C47    C66     1.548   .     S
C47    N31     1.489   .     S
C48    C64     1.541   .     S
C49    N33     1.359   .     A
C49    N35     1.360   .     A
C50    N34     1.343   .     A
C50    N35     1.358   1_655 S
C51    C53     1.559   .     S
C51    N35     1.499   .     S
C51    C34     1.566   1_554 S
C52    C53     1.532   .     S
C52    C36     1.541   1_554 S
C52    N36     1.481   1_455 S
C53    H8      1.113   1_455 S
C53    H48     1.113   1_454 S
C54    C35     1.548   1_554 S
C55    N37     1.359   .     A
C55    N39     1.360   .     A
C56    N38     1.343   .     A
C56    N39     1.358   1_455 S
C57    C59     1.559   .     S
C57    N39     1.499   .     S
C57    C28     1.566   1_554 S
C58    C59     1.533   .     S
C58    C30     1.542   1_554 S
C58    N40     1.481   1_655 S
C59    H16     1.113   1_655 S
C59    H40     1.113   1_654 S
C60    C29     1.549   1_554 S
C61    N41     1.359   .     A
C61    N43     1.360   .     A
C62    N42     1.343   .     A
C62    N43     1.358   .     A
C63    C65     1.559   .     S
C63    N43     1.499   .     S
C64    C65     1.533   .     S
C64    N44     1.481   .     S
C67    N45     1.359   .     A
C67    N47     1.360   .     A
C68    N46     1.343   .     A
C68    N47     1.358   .     A
C69    C71     1.559   .     S
C69    N47     1.499   .     S
C70    C71     1.532   .     S
C70    N48     1.481   .     S
N1     N2      1.327   .     A
N4     N24     1.323   1_554 S
N5     N6      1.327   .     A
N8     N20     1.323   1_554 S
N9     C13     1.347   1_455 S
N9     N10     1.327   1_455 S
N10    Cd6     2.154   1_655 S
N10    N9      1.327   1_655 S
N12    N32     1.323   .     A
N13    C19     1.347   1_655 S
N13    N14     1.326   1_655 S
N14    Cd6     2.154   1_565 S
N14    N13     1.326   1_455 S
N16    N28     1.323   .     A
N17    N18     1.327   .     A
N20    N8      1.323   1_556 S
N21    N22     1.326   .     A
N24    N4      1.323   1_556 S
N25    Cd4     2.094   1_556 S
N25    C37     1.347   1_655 S
N25    N26     1.327   1_655 S
N26    Cd6     2.155   1_566 S
N26    N25     1.327   1_455 S
N29    Cd3     2.095   1_556 S
N29    C43     1.347   1_455 S
N29    N30     1.327   1_455 S
N30    Cd6     2.154   1_656 S
N30    N29     1.327   1_655 S
N33    N34     1.320   1_455 S
N34    N33     1.320   1_655 S
N35    C50     1.358   1_455 S
N36    C33     1.350   1_554 S
N36    C52     1.481   1_655 S
N37    N38     1.320   1_655 S
N38    N37     1.320   1_455 S
N39    C56     1.358   1_655 S
N40    C27     1.350   1_554 S
N40    C58     1.481   1_455 S
N41    N42     1.320   .     A
N45    N46     1.320   .     A
Cl13   Cd4     2.460   1_556 S
Cl13   Cd6     2.420   1_666 S
Cl14   Cd4     2.390   1_556 S
Cl15   Cd3     2.459   1_556 S
Cl15   Cd6     2.420   1_556 S
Cl16   Cd3     2.390   1_556 S
