data_image0
_cell_length_a       16.7963
_cell_length_b       16.7963
_cell_length_c       16.7963
_cell_angle_alpha    90
_cell_angle_beta     90
_cell_angle_gamma    90

_symmetry_space_group_name_H-M    "P 1"
_symmetry_int_tables_number       1

loop_
  _symmetry_equiv_pos_as_xyz
  'x, y, z'

loop_
  _atom_site_label
  _atom_site_occupancy
  _atom_site_fract_x
  _atom_site_fract_y
  _atom_site_fract_z
  _atom_site_thermal_displace_type
  _atom_site_B_iso_or_equiv
  _atom_site_type_symbol
  O1       1.0000 0.90960  0.48000  0.19410  Biso   1.000  O
  O2       1.0000 0.40960  0.98000  0.69410  Biso   1.000  O
  O3       1.0000 0.09040  0.52000  0.19410  Biso   1.000  O
  O4       1.0000 0.59040  0.02000  0.69410  Biso   1.000  O
  O5       1.0000 0.09040  0.48000  0.80590  Biso   1.000  O
  O6       1.0000 0.59040  0.98000  0.30590  Biso   1.000  O
  O7       1.0000 0.90960  0.52000  0.80590  Biso   1.000  O
  O8       1.0000 0.40960  0.02000  0.30590  Biso   1.000  O
  O9       1.0000 0.19410  0.90960  0.48000  Biso   1.000  O
  O10      1.0000 0.69410  0.40960  0.98000  Biso   1.000  O
  O11      1.0000 0.19410  0.09040  0.52000  Biso   1.000  O
  O12      1.0000 0.69410  0.59040  0.02000  Biso   1.000  O
  O13      1.0000 0.80590  0.09040  0.48000  Biso   1.000  O
  O14      1.0000 0.30590  0.59040  0.98000  Biso   1.000  O
  O15      1.0000 0.80590  0.90960  0.52000  Biso   1.000  O
  O16      1.0000 0.30590  0.40960  0.02000  Biso   1.000  O
  O17      1.0000 0.48000  0.19410  0.90960  Biso   1.000  O
  O18      1.0000 0.98000  0.69410  0.40960  Biso   1.000  O
  O19      1.0000 0.52000  0.19410  0.09040  Biso   1.000  O
  O20      1.0000 0.02000  0.69410  0.59040  Biso   1.000  O
  O21      1.0000 0.48000  0.80590  0.09040  Biso   1.000  O
  O22      1.0000 0.98000  0.30590  0.59040  Biso   1.000  O
  O23      1.0000 0.52000  0.80590  0.90960  Biso   1.000  O
  O24      1.0000 0.02000  0.30590  0.40960  Biso   1.000  O
  O25      1.0000 0.48000  0.90960  0.19410  Biso   1.000  O
  O26      1.0000 0.98000  0.40960  0.69410  Biso   1.000  O
  O27      1.0000 0.52000  0.09040  0.19410  Biso   1.000  O
  O28      1.0000 0.02000  0.59040  0.69410  Biso   1.000  O
  O29      1.0000 0.48000  0.09040  0.80590  Biso   1.000  O
  O30      1.0000 0.98000  0.59040  0.30590  Biso   1.000  O
  O31      1.0000 0.52000  0.90960  0.80590  Biso   1.000  O
  O32      1.0000 0.02000  0.40960  0.30590  Biso   1.000  O
  O33      1.0000 0.90960  0.19410  0.48000  Biso   1.000  O
  O34      1.0000 0.40960  0.69410  0.98000  Biso   1.000  O
  O35      1.0000 0.09040  0.19410  0.52000  Biso   1.000  O
  O36      1.0000 0.59040  0.69410  0.02000  Biso   1.000  O
  O37      1.0000 0.09040  0.80590  0.48000  Biso   1.000  O
  O38      1.0000 0.59040  0.30590  0.98000  Biso   1.000  O
  O39      1.0000 0.90960  0.80590  0.52000  Biso   1.000  O
  O40      1.0000 0.40960  0.30590  0.02000  Biso   1.000  O
  O41      1.0000 0.19410  0.48000  0.90960  Biso   1.000  O
  O42      1.0000 0.69410  0.98000  0.40960  Biso   1.000  O
  O43      1.0000 0.19410  0.52000  0.09040  Biso   1.000  O
  O44      1.0000 0.69410  0.02000  0.59040  Biso   1.000  O
  O45      1.0000 0.80590  0.48000  0.09040  Biso   1.000  O
  O46      1.0000 0.30590  0.98000  0.59040  Biso   1.000  O
  O47      1.0000 0.80590  0.52000  0.90960  Biso   1.000  O
  O48      1.0000 0.30590  0.02000  0.40960  Biso   1.000  O
  Al1      1.0000 0.00000  0.50000  0.00000  Biso   1.000  Al
  Al2      1.0000 0.50000  0.00000  0.50000  Biso   1.000  Al
  Al3      1.0000 0.00000  0.00000  0.50000  Biso   1.000  Al
  Al4      1.0000 0.50000  0.50000  0.00000  Biso   1.000  Al
  Al5      1.0000 0.50000  0.00000  0.00000  Biso   1.000  Al
  Al6      1.0000 0.00000  0.50000  0.50000  Biso   1.000  Al
  P1       1.0000 0.87780  0.43360  0.12220  Biso   1.000  P
  O49      1.0000 0.85900  0.34710  0.14100  Biso   1.000  O
  O50      1.0000 0.94250  0.43740  0.05750  Biso   1.000  O
  P2       1.0000 0.37780  0.93360  0.62220  Biso   1.000  P
  O51      1.0000 0.35900  0.84710  0.64100  Biso   1.000  O
  O52      1.0000 0.44250  0.93740  0.55750  Biso   1.000  O
  P3       1.0000 0.12220  0.56640  0.12220  Biso   1.000  P
  O53      1.0000 0.14100  0.65290  0.14100  Biso   1.000  O
  O54      1.0000 0.05750  0.56260  0.05750  Biso   1.000  O
  P4       1.0000 0.62220  0.06640  0.62220  Biso   1.000  P
  O55      1.0000 0.64100  0.15290  0.64100  Biso   1.000  O
  O56      1.0000 0.55750  0.06260  0.55750  Biso   1.000  O
  P5       1.0000 0.12220  0.43360  0.87780  Biso   1.000  P
  O57      1.0000 0.14100  0.34710  0.85900  Biso   1.000  O
  O58      1.0000 0.05750  0.43740  0.94250  Biso   1.000  O
  P6       1.0000 0.62220  0.93360  0.37780  Biso   1.000  P
  O59      1.0000 0.64100  0.84710  0.35900  Biso   1.000  O
  O60      1.0000 0.55750  0.93740  0.44250  Biso   1.000  O
  P7       1.0000 0.87780  0.56640  0.87780  Biso   1.000  P
  O61      1.0000 0.85900  0.65290  0.85900  Biso   1.000  O
  O62      1.0000 0.94250  0.56260  0.94250  Biso   1.000  O
  P8       1.0000 0.37780  0.06640  0.37780  Biso   1.000  P
  O63      1.0000 0.35900  0.15290  0.35900  Biso   1.000  O
  O64      1.0000 0.44250  0.06260  0.44250  Biso   1.000  O
  P9       1.0000 0.12220  0.87780  0.43360  Biso   1.000  P
  O65      1.0000 0.14100  0.85900  0.34710  Biso   1.000  O
  O66      1.0000 0.05750  0.94250  0.43740  Biso   1.000  O
  P10      1.0000 0.62220  0.37780  0.93360  Biso   1.000  P
  O67      1.0000 0.64100  0.35900  0.84710  Biso   1.000  O
  O68      1.0000 0.55750  0.44250  0.93740  Biso   1.000  O
  P11      1.0000 0.12220  0.12220  0.56640  Biso   1.000  P
  O69      1.0000 0.14100  0.14100  0.65290  Biso   1.000  O
  O70      1.0000 0.05750  0.05750  0.56260  Biso   1.000  O
  P12      1.0000 0.62220  0.62220  0.06640  Biso   1.000  P
  O71      1.0000 0.64100  0.64100  0.15290  Biso   1.000  O
  O72      1.0000 0.55750  0.55750  0.06260  Biso   1.000  O
  P13      1.0000 0.87780  0.12220  0.43360  Biso   1.000  P
  O73      1.0000 0.85900  0.14100  0.34710  Biso   1.000  O
  O74      1.0000 0.94250  0.05750  0.43740  Biso   1.000  O
  P14      1.0000 0.37780  0.62220  0.93360  Biso   1.000  P
  O75      1.0000 0.35900  0.64100  0.84710  Biso   1.000  O
  O76      1.0000 0.44250  0.55750  0.93740  Biso   1.000  O
  P15      1.0000 0.87780  0.87780  0.56640  Biso   1.000  P
  O77      1.0000 0.85900  0.85900  0.65290  Biso   1.000  O
  O78      1.0000 0.94250  0.94250  0.56260  Biso   1.000  O
  P16      1.0000 0.37780  0.37780  0.06640  Biso   1.000  P
  O79      1.0000 0.35900  0.35900  0.15290  Biso   1.000  O
  O80      1.0000 0.44250  0.44250  0.06260  Biso   1.000  O
  P17      1.0000 0.43360  0.12220  0.87780  Biso   1.000  P
  O81      1.0000 0.34710  0.14100  0.85900  Biso   1.000  O
  O82      1.0000 0.43740  0.05750  0.94250  Biso   1.000  O
  P18      1.0000 0.93360  0.62220  0.37780  Biso   1.000  P
  O83      1.0000 0.84710  0.64100  0.35900  Biso   1.000  O
  O84      1.0000 0.93740  0.55750  0.44250  Biso   1.000  O
  P19      1.0000 0.56640  0.12220  0.12220  Biso   1.000  P
  O85      1.0000 0.65290  0.14100  0.14100  Biso   1.000  O
  O86      1.0000 0.56260  0.05750  0.05750  Biso   1.000  O
  P20      1.0000 0.06640  0.62220  0.62220  Biso   1.000  P
  O87      1.0000 0.15290  0.64100  0.64100  Biso   1.000  O
  O88      1.0000 0.06260  0.55750  0.55750  Biso   1.000  O
  P21      1.0000 0.43360  0.87780  0.12220  Biso   1.000  P
  O89      1.0000 0.34710  0.85900  0.14100  Biso   1.000  O
  O90      1.0000 0.43740  0.94250  0.05750  Biso   1.000  O
  P22      1.0000 0.93360  0.37780  0.62220  Biso   1.000  P
  O91      1.0000 0.84710  0.35900  0.64100  Biso   1.000  O
  O92      1.0000 0.93740  0.44250  0.55750  Biso   1.000  O
  P23      1.0000 0.56640  0.87780  0.87780  Biso   1.000  P
  O93      1.0000 0.65290  0.85900  0.85900  Biso   1.000  O
  O94      1.0000 0.56260  0.94250  0.94250  Biso   1.000  O
  P24      1.0000 0.06640  0.37780  0.37780  Biso   1.000  P
  O95      1.0000 0.15290  0.35900  0.35900  Biso   1.000  O
  O96      1.0000 0.06260  0.44250  0.44250  Biso   1.000  O
  Al7      1.0000 0.00000  0.50000  0.25000  Biso   1.000  Al
  Al8      1.0000 0.00000  0.50000  0.75000  Biso   1.000  Al
  Al9      1.0000 0.50000  0.00000  0.25000  Biso   1.000  Al
  Al10     1.0000 0.25000  0.00000  0.50000  Biso   1.000  Al
  Al11     1.0000 0.75000  0.00000  0.50000  Biso   1.000  Al
  Al12     1.0000 0.25000  0.50000  0.00000  Biso   1.000  Al
  Al13     1.0000 0.50000  0.25000  0.00000  Biso   1.000  Al
  Al14     1.0000 0.50000  0.75000  0.00000  Biso   1.000  Al
  Al15     1.0000 0.00000  0.25000  0.50000  Biso   1.000  Al
  Al16     1.0000 0.50000  0.00000  0.75000  Biso   1.000  Al
  Al17     1.0000 0.00000  0.75000  0.50000  Biso   1.000  Al
  Al18     1.0000 0.75000  0.50000  0.00000  Biso   1.000  Al
