data_image0
_cell_length_a       8.707
_cell_length_b       11.678
_cell_length_c       28.005
_cell_angle_alpha    90
_cell_angle_beta     90
_cell_angle_gamma    104.2

_symmetry_space_group_name_H-M    P 1
_symmetry_int_tables_number       1

loop_
  _symmetry_equiv_pos_as_xyz
  'x, y, z'

loop_
  _atom_site_label
  _atom_site_occupancy
  _atom_site_fract_x
  _atom_site_fract_y
  _atom_site_fract_z
  _atom_site_thermal_displace_type
  _atom_site_B_iso_or_equiv
  _atom_site_type_symbol
  Mn1      1.0000 0.19194  0.36568  0.19905  Biso   1.000  Mn
  Mn2      1.0000 0.30806  0.63432  0.69905  Biso   1.000  Mn
  Mn3      1.0000 0.80806  0.63432  0.80095  Biso   1.000  Mn
  Mn4      1.0000 0.69194  0.36568  0.30095  Biso   1.000  Mn
  H1       1.0000 0.89570  0.36050  0.19780  Biso   1.000  H
  H2       1.0000 0.93590  0.33500  0.15370  Biso   1.000  H
  H3       1.0000 0.43340  0.49660  0.12780  Biso   1.000  H
  H4       1.0000 0.63230  0.39090  0.12920  Biso   1.000  H
  H5       1.0000 0.73940  0.50360  0.15320  Biso   1.000  H
  H6       1.0000 0.48860  0.67950  0.01890  Biso   1.000  H
  H7       1.0000 0.58960  0.66650  0.94260  Biso   1.000  H
  H8       1.0000 0.98680  0.61180  0.99900  Biso   1.000  H
  H9       1.0000 0.88480  0.62220  0.07500  Biso   1.000  H
  H10      1.0000 0.05730  0.55700  0.14450  Biso   1.000  H
  H11      1.0000 0.04990  0.75050  0.14400  Biso   1.000  H
  H12      1.0000 0.34410  0.80390  0.25480  Biso   1.000  H
  H13      1.0000 0.34540  0.60780  0.25160  Biso   1.000  H
  H14      1.0000 0.04190  0.11850  0.14840  Biso   1.000  H
  H15      1.0000 0.03520  0.92390  0.14800  Biso   1.000  H
  H16      1.0000 0.34720  0.98260  0.25240  Biso   1.000  H
  H17      1.0000 0.32620  0.17310  0.25460  Biso   1.000  H
  H18      1.0000 0.60430  0.63950  0.69780  Biso   1.000  H
  H19      1.0000 0.56410  0.66500  0.65370  Biso   1.000  H
  H20      1.0000 0.06660  0.50340  0.62780  Biso   1.000  H
  H21      1.0000 0.86770  0.60910  0.62920  Biso   1.000  H
  H22      1.0000 0.76060  0.49640  0.65320  Biso   1.000  H
  H23      1.0000 0.01140  0.32050  0.51890  Biso   1.000  H
  H24      1.0000 0.91040  0.33350  0.44260  Biso   1.000  H
  H25      1.0000 0.51320  0.38820  0.49900  Biso   1.000  H
  H26      1.0000 0.61520  0.37780  0.57500  Biso   1.000  H
  H27      1.0000 0.44270  0.44300  0.64450  Biso   1.000  H
  H28      1.0000 0.45010  0.24950  0.64400  Biso   1.000  H
  H29      1.0000 0.15590  0.19610  0.75480  Biso   1.000  H
  H30      1.0000 0.15460  0.39220  0.75160  Biso   1.000  H
  H31      1.0000 0.45810  0.88150  0.64840  Biso   1.000  H
  H32      1.0000 0.46480  0.07610  0.64800  Biso   1.000  H
  H33      1.0000 0.15280  0.01740  0.75240  Biso   1.000  H
  H34      1.0000 0.17380  0.82690  0.75460  Biso   1.000  H
  H35      1.0000 0.10430  0.63950  0.80220  Biso   1.000  H
  H36      1.0000 0.06410  0.66500  0.84630  Biso   1.000  H
  H37      1.0000 0.56660  0.50340  0.87220  Biso   1.000  H
  H38      1.0000 0.36770  0.60910  0.87080  Biso   1.000  H
  H39      1.0000 0.26060  0.49640  0.84680  Biso   1.000  H
  H40      1.0000 0.51140  0.32050  0.98110  Biso   1.000  H
  H41      1.0000 0.41040  0.33350  0.05740  Biso   1.000  H
  H42      1.0000 0.01320  0.38820  0.00100  Biso   1.000  H
  H43      1.0000 0.11520  0.37780  0.92500  Biso   1.000  H
  H44      1.0000 0.94270  0.44300  0.85550  Biso   1.000  H
  H45      1.0000 0.95010  0.24950  0.85600  Biso   1.000  H
  H46      1.0000 0.65590  0.19610  0.74520  Biso   1.000  H
  H47      1.0000 0.65460  0.39220  0.74840  Biso   1.000  H
  H48      1.0000 0.95810  0.88150  0.85160  Biso   1.000  H
  H49      1.0000 0.96480  0.07610  0.85200  Biso   1.000  H
  H50      1.0000 0.65280  0.01740  0.74760  Biso   1.000  H
  H51      1.0000 0.67380  0.82690  0.74540  Biso   1.000  H
  H52      1.0000 0.39570  0.36050  0.30220  Biso   1.000  H
  H53      1.0000 0.43590  0.33500  0.34630  Biso   1.000  H
  H54      1.0000 0.93340  0.49660  0.37220  Biso   1.000  H
  H55      1.0000 0.13230  0.39090  0.37080  Biso   1.000  H
  H56      1.0000 0.23940  0.50360  0.34680  Biso   1.000  H
  H57      1.0000 0.98860  0.67950  0.48110  Biso   1.000  H
  H58      1.0000 0.08960  0.66650  0.55740  Biso   1.000  H
  H59      1.0000 0.48680  0.61180  0.50100  Biso   1.000  H
  H60      1.0000 0.38480  0.62220  0.42500  Biso   1.000  H
  H61      1.0000 0.55730  0.55700  0.35550  Biso   1.000  H
  H62      1.0000 0.54990  0.75050  0.35600  Biso   1.000  H
  H63      1.0000 0.84410  0.80390  0.24520  Biso   1.000  H
  H64      1.0000 0.84540  0.60780  0.24840  Biso   1.000  H
  H65      1.0000 0.54190  0.11850  0.35160  Biso   1.000  H
  H66      1.0000 0.53520  0.92390  0.35200  Biso   1.000  H
  H67      1.0000 0.84720  0.98260  0.24760  Biso   1.000  H
  H68      1.0000 0.82620  0.17310  0.24540  Biso   1.000  H
  C1       1.0000 0.57790  0.40630  0.19919  Biso   1.000  C
  C2       1.0000 0.63160  0.45590  0.15070  Biso   1.000  C
  C3       1.0000 0.67800  0.64930  0.05380  Biso   1.000  C
  C4       1.0000 0.58820  0.66500  0.01480  Biso   1.000  C
  C5       1.0000 0.65040  0.65870  0.96920  Biso   1.000  C
  C6       1.0000 0.79860  0.64130  0.96270  Biso   1.000  C
  C7       1.0000 0.88690  0.62570  0.00280  Biso   1.000  C
  C8       1.0000 0.82530  0.63110  0.04830  Biso   1.000  C
  C9       1.0000 0.86770  0.63950  0.91360  Biso   1.000  C
  C10      1.0000 0.11600  0.60740  0.16720  Biso   1.000  C
  C11      1.0000 0.11100  0.72400  0.16680  Biso   1.000  C
  C12      1.0000 0.19600  0.80260  0.20000  Biso   1.000  C
  C13      1.0000 0.28390  0.75560  0.23170  Biso   1.000  C
  C14      1.0000 0.28380  0.63680  0.22980  Biso   1.000  C
  C15      1.0000 0.10450  0.09140  0.17050  Biso   1.000  C
  C16      1.0000 0.10110  0.97350  0.16960  Biso   1.000  C
  C17      1.0000 0.19310  0.92870  0.19980  Biso   1.000  C
  C18      1.0000 0.28030  0.00720  0.23090  Biso   1.000  C
  C19      1.0000 0.27070  0.12400  0.23100  Biso   1.000  C
  C20      1.0000 0.92210  0.59370  0.69919  Biso   1.000  C
  C21      1.0000 0.86840  0.54410  0.65070  Biso   1.000  C
  C22      1.0000 0.82200  0.35070  0.55380  Biso   1.000  C
  C23      1.0000 0.91180  0.33500  0.51480  Biso   1.000  C
  C24      1.0000 0.84960  0.34130  0.46920  Biso   1.000  C
  C25      1.0000 0.70140  0.35870  0.46270  Biso   1.000  C
  C26      1.0000 0.61310  0.37430  0.50280  Biso   1.000  C
  C27      1.0000 0.67470  0.36890  0.54830  Biso   1.000  C
  C28      1.0000 0.63230  0.36050  0.41360  Biso   1.000  C
  C29      1.0000 0.38400  0.39260  0.66720  Biso   1.000  C
  C30      1.0000 0.38900  0.27600  0.66680  Biso   1.000  C
  C31      1.0000 0.30400  0.19740  0.70000  Biso   1.000  C
  C32      1.0000 0.21610  0.24440  0.73170  Biso   1.000  C
  C33      1.0000 0.21620  0.36320  0.72980  Biso   1.000  C
  C34      1.0000 0.39550  0.90860  0.67050  Biso   1.000  C
  C35      1.0000 0.39890  0.02650  0.66960  Biso   1.000  C
  C36      1.0000 0.30690  0.07130  0.69980  Biso   1.000  C
  C37      1.0000 0.21970  0.99280  0.73090  Biso   1.000  C
  C38      1.0000 0.22930  0.87600  0.73100  Biso   1.000  C
  C39      1.0000 0.42210  0.59370  0.80081  Biso   1.000  C
  C40      1.0000 0.36840  0.54410  0.84930  Biso   1.000  C
  C41      1.0000 0.32200  0.35070  0.94620  Biso   1.000  C
  C42      1.0000 0.41180  0.33500  0.98520  Biso   1.000  C
  C43      1.0000 0.34960  0.34130  0.03080  Biso   1.000  C
  C44      1.0000 0.20140  0.35870  0.03730  Biso   1.000  C
  C45      1.0000 0.11310  0.37430  0.99720  Biso   1.000  C
  C46      1.0000 0.17470  0.36890  0.95170  Biso   1.000  C
  C47      1.0000 0.13230  0.36050  0.08640  Biso   1.000  C
  C48      1.0000 0.88400  0.39260  0.83280  Biso   1.000  C
  C49      1.0000 0.88900  0.27600  0.83320  Biso   1.000  C
  C50      1.0000 0.80400  0.19740  0.80000  Biso   1.000  C
  C51      1.0000 0.71610  0.24440  0.76830  Biso   1.000  C
  C52      1.0000 0.71620  0.36320  0.77020  Biso   1.000  C
  C53      1.0000 0.89550  0.90860  0.82950  Biso   1.000  C
  C54      1.0000 0.89890  0.02650  0.83040  Biso   1.000  C
  C55      1.0000 0.80690  0.07130  0.80020  Biso   1.000  C
  C56      1.0000 0.71970  0.99280  0.76910  Biso   1.000  C
  C57      1.0000 0.72930  0.87600  0.76900  Biso   1.000  C
  C58      1.0000 0.07790  0.40630  0.30081  Biso   1.000  C
  C59      1.0000 0.13160  0.45590  0.34930  Biso   1.000  C
  C60      1.0000 0.17800  0.64930  0.44620  Biso   1.000  C
  C61      1.0000 0.08820  0.66500  0.48520  Biso   1.000  C
  C62      1.0000 0.15040  0.65870  0.53080  Biso   1.000  C
  C63      1.0000 0.29860  0.64130  0.53730  Biso   1.000  C
  C64      1.0000 0.38690  0.62570  0.49720  Biso   1.000  C
  C65      1.0000 0.32530  0.63110  0.45170  Biso   1.000  C
  C66      1.0000 0.36770  0.63950  0.58640  Biso   1.000  C
  C67      1.0000 0.61600  0.60740  0.33280  Biso   1.000  C
  C68      1.0000 0.61100  0.72400  0.33320  Biso   1.000  C
  C69      1.0000 0.69600  0.80260  0.30000  Biso   1.000  C
  C70      1.0000 0.78390  0.75560  0.26830  Biso   1.000  C
  C71      1.0000 0.78380  0.63680  0.27020  Biso   1.000  C
  C72      1.0000 0.60450  0.09140  0.32950  Biso   1.000  C
  C73      1.0000 0.60110  0.97350  0.33040  Biso   1.000  C
  C74      1.0000 0.69310  0.92870  0.30020  Biso   1.000  C
  C75      1.0000 0.78030  0.00720  0.26910  Biso   1.000  C
  C76      1.0000 0.77070  0.12400  0.26900  Biso   1.000  C
  S1       1.0000 0.60110  0.65910  0.11214  Biso   1.000  S
  S2       1.0000 0.89890  0.34090  0.61214  Biso   1.000  S
  S3       1.0000 0.39890  0.34090  0.88786  Biso   1.000  S
  S4       1.0000 0.10110  0.65910  0.38786  Biso   1.000  S
  N1       1.0000 0.53360  0.52720  0.13020  Biso   1.000  N
  N2       1.0000 0.19980  0.56330  0.19825  Biso   1.000  N
  N3       1.0000 0.18970  0.17040  0.20043  Biso   1.000  N
  N4       1.0000 0.96640  0.47280  0.63020  Biso   1.000  N
  N5       1.0000 0.30020  0.43670  0.69825  Biso   1.000  N
  N6       1.0000 0.31030  0.82960  0.70043  Biso   1.000  N
  N7       1.0000 0.46640  0.47280  0.86980  Biso   1.000  N
  N8       1.0000 0.80020  0.43670  0.80175  Biso   1.000  N
  N9       1.0000 0.81030  0.82960  0.79957  Biso   1.000  N
  N10      1.0000 0.03360  0.52720  0.36980  Biso   1.000  N
  N11      1.0000 0.69980  0.56330  0.30175  Biso   1.000  N
  N12      1.0000 0.68970  0.17040  0.29957  Biso   1.000  N
  O1       1.0000 0.44330  0.40660  0.21327  Biso   1.000  O
  O2       1.0000 0.67870  0.37020  0.22314  Biso   1.000  O
  O3       1.0000 0.46740  0.70790  0.10810  Biso   1.000  O
  O4       1.0000 0.73170  0.71300  0.14160  Biso   1.000  O
  O5       1.0000 0.77350  0.63030  0.87861  Biso   1.000  O
  O6       1.0000 0.01210  0.64540  0.91014  Biso   1.000  O
  O7       1.0000 0.94070  0.31860  0.18241  Biso   1.000  O
  O8       1.0000 0.05670  0.59340  0.71327  Biso   1.000  O
  O9       1.0000 0.82130  0.62980  0.72314  Biso   1.000  O
  O10      1.0000 0.03260  0.29210  0.60810  Biso   1.000  O
  O11      1.0000 0.76830  0.28700  0.64160  Biso   1.000  O
  O12      1.0000 0.72650  0.36970  0.37861  Biso   1.000  O
  O13      1.0000 0.48790  0.35460  0.41014  Biso   1.000  O
  O14      1.0000 0.55930  0.68140  0.68241  Biso   1.000  O
  O15      1.0000 0.55670  0.59340  0.78673  Biso   1.000  O
  O16      1.0000 0.32130  0.62980  0.77686  Biso   1.000  O
  O17      1.0000 0.53260  0.29210  0.89190  Biso   1.000  O
  O18      1.0000 0.26830  0.28700  0.85840  Biso   1.000  O
  O19      1.0000 0.22650  0.36970  0.12139  Biso   1.000  O
  O20      1.0000 0.98790  0.35460  0.08986  Biso   1.000  O
  O21      1.0000 0.05930  0.68140  0.81759  Biso   1.000  O
  O22      1.0000 0.94330  0.40660  0.28673  Biso   1.000  O
  O23      1.0000 0.17870  0.37020  0.27686  Biso   1.000  O
  O24      1.0000 0.96740  0.70790  0.39190  Biso   1.000  O
  O25      1.0000 0.23170  0.71300  0.35840  Biso   1.000  O
  O26      1.0000 0.27350  0.63030  0.62139  Biso   1.000  O
  O27      1.0000 0.51210  0.64540  0.58986  Biso   1.000  O
  O28      1.0000 0.44070  0.31860  0.31759  Biso   1.000  O
