data_image0
_cell_length_a       10.3779
_cell_length_b       11.3829
_cell_length_c       22.3878
_cell_angle_alpha    90
_cell_angle_beta     97.399
_cell_angle_gamma    90

_symmetry_space_group_name_H-M    P 1
_symmetry_int_tables_number       1

loop_
  _symmetry_equiv_pos_as_xyz
  'x, y, z'

loop_
  _atom_site_label
  _atom_site_occupancy
  _atom_site_fract_x
  _atom_site_fract_y
  _atom_site_fract_z
  _atom_site_thermal_displace_type
  _atom_site_B_iso_or_equiv
  _atom_site_type_symbol
  Pr1      1.0000 0.26224  0.08124  0.06469  Biso   1.000  Pr
  Pr2      1.0000 0.89149  0.30850  0.27467  Biso   1.000  Pr
  Pr3      1.0000 0.23776  0.58124  0.43531  Biso   1.000  Pr
  Pr4      1.0000 0.60851  0.80850  0.22533  Biso   1.000  Pr
  Pr5      1.0000 0.73776  0.91876  0.93531  Biso   1.000  Pr
  Pr6      1.0000 0.10851  0.69150  0.72533  Biso   1.000  Pr
  Pr7      1.0000 0.76224  0.41876  0.56469  Biso   1.000  Pr
  Pr8      1.0000 0.39149  0.19150  0.77467  Biso   1.000  Pr
  H1       1.0000 0.20430  0.22590  0.41300  Biso   1.000  H
  H2       1.0000 0.09330  0.13180  0.40940  Biso   1.000  H
  H3       1.0000 0.23880  0.09290  0.42400  Biso   1.000  H
  H4       1.0000 0.88420  0.17590  0.73100  Biso   1.000  H
  H5       1.0000 0.98840  0.08910  0.71150  Biso   1.000  H
  H6       1.0000 0.01430  0.22480  0.71210  Biso   1.000  H
  H7       1.0000 0.33620  0.02300  0.33610  Biso   1.000  H
  H8       1.0000 0.88640  0.12400  0.83830  Biso   1.000  H
  H9       1.0000 0.46000  0.88600  0.05450  Biso   1.000  H
  H10      1.0000 0.40300  0.89900  0.99630  Biso   1.000  H
  H11      1.0000 0.52800  0.20160  0.09050  Biso   1.000  H
  H12      1.0000 0.54300  0.10200  0.12480  Biso   1.000  H
  H13      1.0000 0.33700  0.33780  0.04720  Biso   1.000  H
  H14      1.0000 0.22000  0.34630  0.07240  Biso   1.000  H
  H15      1.0000 0.29570  0.72590  0.08700  Biso   1.000  H
  H16      1.0000 0.40670  0.63180  0.09060  Biso   1.000  H
  H17      1.0000 0.26120  0.59290  0.07600  Biso   1.000  H
  H18      1.0000 0.61580  0.67590  0.76900  Biso   1.000  H
  H19      1.0000 0.51160  0.58910  0.78850  Biso   1.000  H
  H20      1.0000 0.48570  0.72480  0.78790  Biso   1.000  H
  H21      1.0000 0.16380  0.52300  0.16390  Biso   1.000  H
  H22      1.0000 0.61360  0.62400  0.66170  Biso   1.000  H
  H23      1.0000 0.04000  0.38600  0.44550  Biso   1.000  H
  H24      1.0000 0.09700  0.39900  0.50370  Biso   1.000  H
  H25      1.0000 0.97200  0.70160  0.40950  Biso   1.000  H
  H26      1.0000 0.95700  0.60200  0.37520  Biso   1.000  H
  H27      1.0000 0.16300  0.83780  0.45280  Biso   1.000  H
  H28      1.0000 0.28000  0.84630  0.42760  Biso   1.000  H
  H29      1.0000 0.79570  0.77410  0.58700  Biso   1.000  H
  H30      1.0000 0.90670  0.86820  0.59060  Biso   1.000  H
  H31      1.0000 0.76120  0.90710  0.57600  Biso   1.000  H
  H32      1.0000 0.11580  0.82410  0.26900  Biso   1.000  H
  H33      1.0000 0.01160  0.91090  0.28850  Biso   1.000  H
  H34      1.0000 0.98570  0.77520  0.28790  Biso   1.000  H
  H35      1.0000 0.66380  0.97700  0.66390  Biso   1.000  H
  H36      1.0000 0.11360  0.87600  0.16170  Biso   1.000  H
  H37      1.0000 0.54000  0.11400  0.94550  Biso   1.000  H
  H38      1.0000 0.59700  0.10100  0.00370  Biso   1.000  H
  H39      1.0000 0.47200  0.79840  0.90950  Biso   1.000  H
  H40      1.0000 0.45700  0.89800  0.87520  Biso   1.000  H
  H41      1.0000 0.66300  0.66220  0.95280  Biso   1.000  H
  H42      1.0000 0.78000  0.65370  0.92760  Biso   1.000  H
  H43      1.0000 0.70430  0.27410  0.91300  Biso   1.000  H
  H44      1.0000 0.59330  0.36820  0.90940  Biso   1.000  H
  H45      1.0000 0.73880  0.40710  0.92400  Biso   1.000  H
  H46      1.0000 0.38420  0.32410  0.23100  Biso   1.000  H
  H47      1.0000 0.48840  0.41090  0.21150  Biso   1.000  H
  H48      1.0000 0.51430  0.27520  0.21210  Biso   1.000  H
  H49      1.0000 0.83620  0.47700  0.83610  Biso   1.000  H
  H50      1.0000 0.38640  0.37600  0.33830  Biso   1.000  H
  H51      1.0000 0.96000  0.61400  0.55450  Biso   1.000  H
  H52      1.0000 0.90300  0.60100  0.49630  Biso   1.000  H
  H53      1.0000 0.02800  0.29840  0.59050  Biso   1.000  H
  H54      1.0000 0.04300  0.39800  0.62480  Biso   1.000  H
  H55      1.0000 0.83700  0.16220  0.54720  Biso   1.000  H
  H56      1.0000 0.72000  0.15370  0.57240  Biso   1.000  H
  C1       1.0000 0.08310  0.17960  0.18070  Biso   1.000  C
  C2       1.0000 0.15270  0.14000  0.23868  Biso   1.000  C
  C3       1.0000 0.25760  0.06540  0.25293  Biso   1.000  C
  C4       1.0000 0.33920  0.98870  0.21831  Biso   1.000  C
  C5       1.0000 0.18810  0.13140  0.33620  Biso   1.000  C
  C6       1.0000 0.18040  0.14690  0.40140  Biso   1.000  C
  C7       1.0000 0.30480  0.15170  0.91282  Biso   1.000  C
  C8       1.0000 0.17280  0.14870  0.87724  Biso   1.000  C
  C9       1.0000 0.05190  0.13060  0.89443  Biso   1.000  C
  C10      1.0000 0.99550  0.11720  0.95153  Biso   1.000  C
  C11      1.0000 0.03730  0.15350  0.79542  Biso   1.000  C
  C12      1.0000 0.97560  0.16160  0.73190  Biso   1.000  C
  C13      1.0000 0.76440  0.04090  0.28548  Biso   1.000  C
  C14      1.0000 0.70380  0.08700  0.22277  Biso   1.000  C
  C15      1.0000 0.41690  0.67960  0.31930  Biso   1.000  C
  C16      1.0000 0.34730  0.64000  0.26132  Biso   1.000  C
  C17      1.0000 0.24240  0.56540  0.24707  Biso   1.000  C
  C18      1.0000 0.16080  0.48870  0.28169  Biso   1.000  C
  C19      1.0000 0.31190  0.63140  0.16380  Biso   1.000  C
  C20      1.0000 0.31960  0.64690  0.09860  Biso   1.000  C
  C21      1.0000 0.19520  0.65170  0.58718  Biso   1.000  C
  C22      1.0000 0.32720  0.64870  0.62276  Biso   1.000  C
  C23      1.0000 0.44810  0.63060  0.60557  Biso   1.000  C
  C24      1.0000 0.50450  0.61720  0.54847  Biso   1.000  C
  C25      1.0000 0.46270  0.65350  0.70458  Biso   1.000  C
  C26      1.0000 0.52440  0.66160  0.76810  Biso   1.000  C
  C27      1.0000 0.73560  0.54090  0.21452  Biso   1.000  C
  C28      1.0000 0.79620  0.58700  0.27723  Biso   1.000  C
  C29      1.0000 0.91690  0.82040  0.81930  Biso   1.000  C
  C30      1.0000 0.84730  0.86000  0.76132  Biso   1.000  C
  C31      1.0000 0.74240  0.93460  0.74707  Biso   1.000  C
  C32      1.0000 0.66080  0.01130  0.78169  Biso   1.000  C
  C33      1.0000 0.81190  0.86860  0.66380  Biso   1.000  C
  C34      1.0000 0.81960  0.85310  0.59860  Biso   1.000  C
  C35      1.0000 0.69520  0.84830  0.08718  Biso   1.000  C
  C36      1.0000 0.82720  0.85130  0.12276  Biso   1.000  C
  C37      1.0000 0.94810  0.86940  0.10557  Biso   1.000  C
  C38      1.0000 0.00450  0.88280  0.04847  Biso   1.000  C
  C39      1.0000 0.96270  0.84650  0.20458  Biso   1.000  C
  C40      1.0000 0.02440  0.83840  0.26810  Biso   1.000  C
  C41      1.0000 0.23560  0.95910  0.71452  Biso   1.000  C
  C42      1.0000 0.29620  0.91300  0.77723  Biso   1.000  C
  C43      1.0000 0.58310  0.32040  0.68070  Biso   1.000  C
  C44      1.0000 0.65270  0.36000  0.73868  Biso   1.000  C
  C45      1.0000 0.75760  0.43460  0.75293  Biso   1.000  C
  C46      1.0000 0.83920  0.51130  0.71831  Biso   1.000  C
  C47      1.0000 0.68810  0.36860  0.83620  Biso   1.000  C
  C48      1.0000 0.68040  0.35310  0.90140  Biso   1.000  C
  C49      1.0000 0.80480  0.34830  0.41282  Biso   1.000  C
  C50      1.0000 0.67280  0.35130  0.37724  Biso   1.000  C
  C51      1.0000 0.55190  0.36940  0.39443  Biso   1.000  C
  C52      1.0000 0.49550  0.38280  0.45153  Biso   1.000  C
  C53      1.0000 0.53730  0.34650  0.29542  Biso   1.000  C
  C54      1.0000 0.47560  0.33840  0.23190  Biso   1.000  C
  C55      1.0000 0.26440  0.45910  0.78548  Biso   1.000  C
  C56      1.0000 0.20380  0.41300  0.72277  Biso   1.000  C
  N1       1.0000 0.11020  0.17960  0.29132  Biso   1.000  N
  N2       1.0000 0.27680  0.06260  0.31455  Biso   1.000  N
  N3       1.0000 0.16230  0.16290  0.81567  Biso   1.000  N
  N4       1.0000 0.96920  0.13350  0.84150  Biso   1.000  N
  N5       1.0000 0.38980  0.67960  0.20868  Biso   1.000  N
  N6       1.0000 0.22320  0.56260  0.18545  Biso   1.000  N
  N7       1.0000 0.33770  0.66290  0.68433  Biso   1.000  N
  N8       1.0000 0.53080  0.63350  0.65850  Biso   1.000  N
  N9       1.0000 0.88980  0.82040  0.70868  Biso   1.000  N
  N10      1.0000 0.72320  0.93740  0.68545  Biso   1.000  N
  N11      1.0000 0.83770  0.83710  0.18433  Biso   1.000  N
  N12      1.0000 0.03080  0.86650  0.15850  Biso   1.000  N
  N13      1.0000 0.61020  0.32040  0.79132  Biso   1.000  N
  N14      1.0000 0.77680  0.43740  0.81455  Biso   1.000  N
  N15      1.0000 0.66230  0.33710  0.31567  Biso   1.000  N
  N16      1.0000 0.46920  0.36650  0.34150  Biso   1.000  N
  O1       1.0000 0.97880  0.23490  0.18248  Biso   1.000  O
  O2       1.0000 0.12810  0.16010  0.13268  Biso   1.000  O
  O3       1.0000 0.31440  0.98010  0.16217  Biso   1.000  O
  O4       1.0000 0.42620  0.93420  0.25037  Biso   1.000  O
  O5       1.0000 0.39920  0.17960  0.88507  Biso   1.000  O
  O6       1.0000 0.31950  0.12420  0.96708  Biso   1.000  O
  O7       1.0000 0.06280  0.13380  0.00083  Biso   1.000  O
  O8       1.0000 0.87590  0.09190  0.94556  Biso   1.000  O
  O9       1.0000 0.84190  0.10820  0.31586  Biso   1.000  O
  O10      1.0000 0.73200  0.94040  0.30080  Biso   1.000  O
  O11      1.0000 0.73100  0.18960  0.20969  Biso   1.000  O
  O12      1.0000 0.63140  0.01790  0.19075  Biso   1.000  O
  O13      1.0000 0.39340  0.91350  0.03272  Biso   1.000  O
  O14      1.0000 0.49090  0.13740  0.09798  Biso   1.000  O
  O15      1.0000 0.27740  0.30150  0.06150  Biso   1.000  O
  O16      1.0000 0.52120  0.73490  0.31752  Biso   1.000  O
  O17      1.0000 0.37190  0.66010  0.36732  Biso   1.000  O
  O18      1.0000 0.18560  0.48010  0.33783  Biso   1.000  O
  O19      1.0000 0.07380  0.43420  0.24963  Biso   1.000  O
  O20      1.0000 0.10080  0.67960  0.61493  Biso   1.000  O
  O21      1.0000 0.18050  0.62420  0.53292  Biso   1.000  O
  O22      1.0000 0.43720  0.63380  0.49917  Biso   1.000  O
  O23      1.0000 0.62410  0.59190  0.55444  Biso   1.000  O
  O24      1.0000 0.65810  0.60820  0.18414  Biso   1.000  O
  O25      1.0000 0.76800  0.44040  0.19920  Biso   1.000  O
  O26      1.0000 0.76900  0.68960  0.29031  Biso   1.000  O
  O27      1.0000 0.86860  0.51790  0.30925  Biso   1.000  O
  O28      1.0000 0.10660  0.41350  0.46728  Biso   1.000  O
  O29      1.0000 0.00910  0.63740  0.40202  Biso   1.000  O
  O30      1.0000 0.22260  0.80150  0.43850  Biso   1.000  O
  O31      1.0000 0.02120  0.76510  0.81752  Biso   1.000  O
  O32      1.0000 0.87190  0.83990  0.86732  Biso   1.000  O
  O33      1.0000 0.68560  0.01990  0.83783  Biso   1.000  O
  O34      1.0000 0.57380  0.06580  0.74963  Biso   1.000  O
  O35      1.0000 0.60080  0.82040  0.11493  Biso   1.000  O
  O36      1.0000 0.68050  0.87580  0.03292  Biso   1.000  O
  O37      1.0000 0.93720  0.86620  0.99917  Biso   1.000  O
  O38      1.0000 0.12410  0.90810  0.05444  Biso   1.000  O
  O39      1.0000 0.15810  0.89180  0.68414  Biso   1.000  O
  O40      1.0000 0.26800  0.05960  0.69920  Biso   1.000  O
  O41      1.0000 0.26900  0.81040  0.79031  Biso   1.000  O
  O42      1.0000 0.36860  0.98210  0.80925  Biso   1.000  O
  O43      1.0000 0.60660  0.08650  0.96728  Biso   1.000  O
  O44      1.0000 0.50910  0.86260  0.90202  Biso   1.000  O
  O45      1.0000 0.72260  0.69850  0.93850  Biso   1.000  O
  O46      1.0000 0.47880  0.26510  0.68248  Biso   1.000  O
  O47      1.0000 0.62810  0.33990  0.63268  Biso   1.000  O
  O48      1.0000 0.81440  0.51990  0.66217  Biso   1.000  O
  O49      1.0000 0.92620  0.56580  0.75037  Biso   1.000  O
  O50      1.0000 0.89920  0.32040  0.38507  Biso   1.000  O
  O51      1.0000 0.81950  0.37580  0.46708  Biso   1.000  O
  O52      1.0000 0.56280  0.36620  0.50083  Biso   1.000  O
  O53      1.0000 0.37590  0.40810  0.44556  Biso   1.000  O
  O54      1.0000 0.34190  0.39180  0.81586  Biso   1.000  O
  O55      1.0000 0.23200  0.55960  0.80080  Biso   1.000  O
  O56      1.0000 0.23100  0.31040  0.70969  Biso   1.000  O
  O57      1.0000 0.13140  0.48210  0.69075  Biso   1.000  O
  O58      1.0000 0.89340  0.58650  0.53272  Biso   1.000  O
  O59      1.0000 0.99090  0.36260  0.59798  Biso   1.000  O
  O60      1.0000 0.77740  0.19850  0.56150  Biso   1.000  O
