data_image0
_cell_length_a       7.91801
_cell_length_b       8.4419
_cell_length_c       19.617
_cell_angle_alpha    87.8165
_cell_angle_beta     85.34
_cell_angle_gamma    62.0325

_symmetry_space_group_name_H-M    P 1
_symmetry_int_tables_number       1

loop_
  _symmetry_equiv_pos_as_xyz
  'x, y, z'

loop_
  _atom_site_label
  _atom_site_occupancy
  _atom_site_fract_x
  _atom_site_fract_y
  _atom_site_fract_z
  _atom_site_thermal_displace_type
  _atom_site_B_iso_or_equiv
  _atom_site_type_symbol
  Dy1      1.0000 0.79437  0.92550  0.48756  Biso   1.000  Dy
  Dy2      1.0000 0.28013  0.92550  0.01244  Biso   1.000  Dy
  Dy3      1.0000 0.20563  0.07450  0.51244  Biso   1.000  Dy
  Dy4      1.0000 0.71987  0.07450  0.98756  Biso   1.000  Dy
  H1       1.0000 0.24680  0.53260  0.32190  Biso   1.000  H
  H2       1.0000 0.05690  0.55000  0.29600  Biso   1.000  H
  H3       1.0000 0.18430  0.80680  0.26500  Biso   1.000  H
  H4       1.0000 0.67600  0.53000  0.46210  Biso   1.000  H
  H5       1.0000 0.84990  0.44160  0.40760  Biso   1.000  H
  H6       1.0000 0.63990  0.45480  0.32650  Biso   1.000  H
  H7       1.0000 0.46620  0.54660  0.38110  Biso   1.000  H
  H8       1.0000 0.50750  0.75700  0.30280  Biso   1.000  H
  H9       1.0000 0.69860  0.71020  0.33660  Biso   1.000  H
  H10      1.0000 0.65600  0.72680  0.56710  Biso   1.000  H
  H11      1.0000 0.83870  0.59840  0.55660  Biso   1.000  H
  H12      1.0000 0.22060  0.53260  0.17810  Biso   1.000  H
  H13      1.0000 0.39310  0.55000  0.20400  Biso   1.000  H
  H14      1.0000 0.00890  0.80680  0.23500  Biso   1.000  H
  H15      1.0000 0.79400  0.53000  0.03790  Biso   1.000  H
  H16      1.0000 0.70850  0.44160  0.09240  Biso   1.000  H
  H17      1.0000 0.90530  0.45480  0.17350  Biso   1.000  H
  H18      1.0000 0.98720  0.54660  0.11890  Biso   1.000  H
  H19      1.0000 0.73550  0.75700  0.19720  Biso   1.000  H
  H20      1.0000 0.59120  0.71020  0.16340  Biso   1.000  H
  H21      1.0000 0.61720  0.72680  0.93290  Biso   1.000  H
  H22      1.0000 0.56290  0.59840  0.94340  Biso   1.000  H
  H23      1.0000 0.75320  0.46740  0.67810  Biso   1.000  H
  H24      1.0000 0.94310  0.45000  0.70400  Biso   1.000  H
  H25      1.0000 0.81570  0.19320  0.73500  Biso   1.000  H
  H26      1.0000 0.32400  0.47000  0.53790  Biso   1.000  H
  H27      1.0000 0.15010  0.55840  0.59240  Biso   1.000  H
  H28      1.0000 0.36010  0.54520  0.67350  Biso   1.000  H
  H29      1.0000 0.53380  0.45340  0.61890  Biso   1.000  H
  H30      1.0000 0.49250  0.24300  0.69720  Biso   1.000  H
  H31      1.0000 0.30140  0.28980  0.66340  Biso   1.000  H
  H32      1.0000 0.34400  0.27320  0.43290  Biso   1.000  H
  H33      1.0000 0.16130  0.40160  0.44340  Biso   1.000  H
  H34      1.0000 0.77940  0.46740  0.82190  Biso   1.000  H
  H35      1.0000 0.60690  0.45000  0.79600  Biso   1.000  H
  H36      1.0000 0.99110  0.19320  0.76500  Biso   1.000  H
  H37      1.0000 0.20600  0.47000  0.96210  Biso   1.000  H
  H38      1.0000 0.29150  0.55840  0.90760  Biso   1.000  H
  H39      1.0000 0.09470  0.54520  0.82650  Biso   1.000  H
  H40      1.0000 0.01280  0.45340  0.88110  Biso   1.000  H
  H41      1.0000 0.26450  0.24300  0.80280  Biso   1.000  H
  H42      1.0000 0.40880  0.28980  0.83660  Biso   1.000  H
  H43      1.0000 0.38280  0.27320  0.06710  Biso   1.000  H
  H44      1.0000 0.43710  0.40160  0.05660  Biso   1.000  H
  C1       1.0000 0.00820  0.72520  0.37250  Biso   1.000  C
  C2       1.0000 0.11870  0.61780  0.31010  Biso   1.000  C
  C3       1.0000 0.75290  0.26900  0.44440  Biso   1.000  C
  C4       1.0000 0.72590  0.45080  0.42270  Biso   1.000  C
  C5       1.0000 0.59160  0.53400  0.36590  Biso   1.000  C
  C6       1.0000 0.57220  0.71860  0.34490  Biso   1.000  C
  C7       1.0000 0.46050  0.85340  0.40010  Biso   1.000  C
  C8       1.0000 0.26660  0.72520  0.12750  Biso   1.000  C
  C9       1.0000 0.26350  0.61780  0.18990  Biso   1.000  C
  C10      1.0000 0.97810  0.26900  0.05560  Biso   1.000  C
  C11      1.0000 0.82330  0.45080  0.07730  Biso   1.000  C
  C12      1.0000 0.87440  0.53400  0.13410  Biso   1.000  C
  C13      1.0000 0.70920  0.71860  0.15510  Biso   1.000  C
  C14      1.0000 0.68610  0.85340  0.09990  Biso   1.000  C
  C15      1.0000 0.99180  0.27480  0.62750  Biso   1.000  C
  C16      1.0000 0.88130  0.38220  0.68990  Biso   1.000  C
  C17      1.0000 0.24710  0.73100  0.55560  Biso   1.000  C
  C18      1.0000 0.27410  0.54920  0.57730  Biso   1.000  C
  C19      1.0000 0.40840  0.46600  0.63410  Biso   1.000  C
  C20      1.0000 0.42780  0.28140  0.65510  Biso   1.000  C
  C21      1.0000 0.53950  0.14660  0.59990  Biso   1.000  C
  C22      1.0000 0.73340  0.27480  0.87250  Biso   1.000  C
  C23      1.0000 0.73650  0.38220  0.81010  Biso   1.000  C
  C24      1.0000 0.02190  0.73100  0.94440  Biso   1.000  C
  C25      1.0000 0.17670  0.54920  0.92270  Biso   1.000  C
  C26      1.0000 0.12560  0.46600  0.86590  Biso   1.000  C
  C27      1.0000 0.29080  0.28140  0.84490  Biso   1.000  C
  C28      1.0000 0.31390  0.14660  0.90010  Biso   1.000  C
  C29      1.0000 0.13460  0.73080  0.25000  Biso   1.000  C
  C30      1.0000 0.86540  0.26920  0.75000  Biso   1.000  C
  O1       1.0000 0.90920  0.89260  0.36961  Biso   1.000  O
  O2       1.0000 0.01100  0.64480  0.42902  Biso   1.000  O
  O3       1.0000 0.90960  0.15560  0.46698  Biso   1.000  O
  O4       1.0000 0.61940  0.22620  0.44192  Biso   1.000  O
  O5       1.0000 0.28490  0.90700  0.40909  Biso   1.000  O
  O6       1.0000 0.54130  0.91020  0.43924  Biso   1.000  O
  O7       1.0000 0.76230  0.71160  0.56020  Biso   1.000  O
  O8       1.0000 0.19820  0.89260  0.13039  Biso   1.000  O
  O9       1.0000 0.34420  0.64480  0.07098  Biso   1.000  O
  O10      1.0000 0.93480  0.15560  0.03302  Biso   1.000  O
  O11      1.0000 0.15440  0.22620  0.05808  Biso   1.000  O
  O12      1.0000 0.80810  0.90700  0.09091  Biso   1.000  O
  O13      1.0000 0.54850  0.91020  0.06076  Biso   1.000  O
  O14      1.0000 0.52610  0.71160  0.93980  Biso   1.000  O
  O15      1.0000 0.09080  0.10740  0.63039  Biso   1.000  O
  O16      1.0000 0.98900  0.35520  0.57098  Biso   1.000  O
  O17      1.0000 0.09040  0.84440  0.53302  Biso   1.000  O
  O18      1.0000 0.38060  0.77380  0.55808  Biso   1.000  O
  O19      1.0000 0.71510  0.09300  0.59091  Biso   1.000  O
  O20      1.0000 0.45870  0.08980  0.56076  Biso   1.000  O
  O21      1.0000 0.23770  0.28840  0.43980  Biso   1.000  O
  O22      1.0000 0.80180  0.10740  0.86961  Biso   1.000  O
  O23      1.0000 0.65580  0.35520  0.92902  Biso   1.000  O
  O24      1.0000 0.06520  0.84440  0.96698  Biso   1.000  O
  O25      1.0000 0.84560  0.77380  0.94192  Biso   1.000  O
  O26      1.0000 0.19190  0.09300  0.90909  Biso   1.000  O
  O27      1.0000 0.45150  0.08980  0.93924  Biso   1.000  O
  O28      1.0000 0.47390  0.28840  0.06020  Biso   1.000  O
