data_image0
_cell_length_a       15.646
_cell_length_b       17.2762
_cell_length_c       17.8861
_cell_angle_alpha    77.9019
_cell_angle_beta     64.0632
_cell_angle_gamma    63.0753

_symmetry_space_group_name_H-M    P 1
_symmetry_int_tables_number       1

loop_
  _symmetry_equiv_pos_as_xyz
  'x, y, z'

loop_
  _atom_site_label
  _atom_site_occupancy
  _atom_site_fract_x
  _atom_site_fract_y
  _atom_site_fract_z
  _atom_site_thermal_displace_type
  _atom_site_B_iso_or_equiv
  _atom_site_type_symbol
  La1      1.0000 0.52714  0.04998  0.17132  Biso   1.000  La
  La2      1.0000 0.20192  0.32428  0.01338  Biso   1.000  La
  La3      1.0000 0.74844  0.45002  0.32868  Biso   1.000  La
  La4      1.0000 0.53958  0.17572  0.48662  Biso   1.000  La
  La5      1.0000 0.47286  0.95002  0.82868  Biso   1.000  La
  La6      1.0000 0.79808  0.67572  0.98662  Biso   1.000  La
  La7      1.0000 0.25156  0.54998  0.67132  Biso   1.000  La
  La8      1.0000 0.46042  0.82428  0.51338  Biso   1.000  La
  H1       1.0000 0.19470  0.00820  0.43200  Biso   1.000  H
  H2       1.0000 0.06180  0.12860  0.40380  Biso   1.000  H
  H3       1.0000 0.10410  0.20520  0.28060  Biso   1.000  H
  H4       1.0000 0.87550  0.22050  0.14470  Biso   1.000  H
  H5       1.0000 0.95140  0.10140  0.06040  Biso   1.000  H
  H6       1.0000 0.12440  0.06040  0.96280  Biso   1.000  H
  H7       1.0000 0.63490  0.49180  0.06800  Biso   1.000  H
  H8       1.0000 0.59420  0.37140  0.09620  Biso   1.000  H
  H9       1.0000 0.58990  0.29480  0.21940  Biso   1.000  H
  H10      1.0000 0.24070  0.27950  0.35530  Biso   1.000  H
  H11      1.0000 0.11320  0.39860  0.43960  Biso   1.000  H
  H12      1.0000 0.14760  0.43960  0.53720  Biso   1.000  H
  H13      1.0000 0.80530  0.99180  0.56800  Biso   1.000  H
  H14      1.0000 0.93820  0.87140  0.59620  Biso   1.000  H
  H15      1.0000 0.89590  0.79480  0.71940  Biso   1.000  H
  H16      1.0000 0.12450  0.77950  0.85530  Biso   1.000  H
  H17      1.0000 0.04860  0.89860  0.93960  Biso   1.000  H
  H18      1.0000 0.87560  0.93960  0.03720  Biso   1.000  H
  H19      1.0000 0.36510  0.50820  0.93200  Biso   1.000  H
  H20      1.0000 0.40580  0.62860  0.90380  Biso   1.000  H
  H21      1.0000 0.41010  0.70520  0.78060  Biso   1.000  H
  H22      1.0000 0.75930  0.72050  0.64470  Biso   1.000  H
  H23      1.0000 0.88680  0.60140  0.56040  Biso   1.000  H
  H24      1.0000 0.85240  0.56040  0.46280  Biso   1.000  H
  C1       1.0000 0.40320  0.95500  0.34560  Biso   1.000  C
  C2       1.0000 0.31140  0.02160  0.32840  Biso   1.000  C
  C3       1.0000 0.21000  0.04140  0.38380  Biso   1.000  C
  C4       1.0000 0.13090  0.11220  0.36640  Biso   1.000  C
  C5       1.0000 0.15580  0.15760  0.29340  Biso   1.000  C
  C6       1.0000 0.25820  0.13180  0.23960  Biso   1.000  C
  C7       1.0000 0.29290  0.17190  0.15490  Biso   1.000  C
  C8       1.0000 0.96040  0.32630  0.14530  Biso   1.000  C
  C9       1.0000 0.00110  0.24990  0.09390  Biso   1.000  C
  C10      1.0000 0.94330  0.20400  0.10480  Biso   1.000  C
  C11      1.0000 0.98890  0.13280  0.05480  Biso   1.000  C
  C12      1.0000 0.09170  0.10870  0.99590  Biso   1.000  C
  C13      1.0000 0.14310  0.15990  0.98850  Biso   1.000  C
  C14      1.0000 0.25400  0.13840  0.93100  Biso   1.000  C
  C15      1.0000 0.70380  0.54500  0.15440  Biso   1.000  C
  C16      1.0000 0.66140  0.47840  0.17160  Biso   1.000  C
  C17      1.0000 0.63520  0.45860  0.11620  Biso   1.000  C
  C18      1.0000 0.60950  0.38780  0.13360  Biso   1.000  C
  C19      1.0000 0.60680  0.34240  0.20660  Biso   1.000  C
  C20      1.0000 0.62960  0.36820  0.26040  Biso   1.000  C
  C21      1.0000 0.61970  0.32810  0.34510  Biso   1.000  C
  C22      1.0000 0.43200  0.17370  0.35470  Biso   1.000  C
  C23      1.0000 0.34490  0.25010  0.40610  Biso   1.000  C
  C24      1.0000 0.25210  0.29600  0.39520  Biso   1.000  C
  C25      1.0000 0.17650  0.36720  0.44520  Biso   1.000  C
  C26      1.0000 0.19630  0.39130  0.50410  Biso   1.000  C
  C27      1.0000 0.29150  0.34010  0.51150  Biso   1.000  C
  C28      1.0000 0.32340  0.36160  0.56900  Biso   1.000  C
  C29      1.0000 0.59680  0.04500  0.65440  Biso   1.000  C
  C30      1.0000 0.68860  0.97840  0.67160  Biso   1.000  C
  C31      1.0000 0.79000  0.95860  0.61620  Biso   1.000  C
  C32      1.0000 0.86910  0.88780  0.63360  Biso   1.000  C
  C33      1.0000 0.84420  0.84240  0.70660  Biso   1.000  C
  C34      1.0000 0.74180  0.86820  0.76040  Biso   1.000  C
  C35      1.0000 0.70710  0.82810  0.84510  Biso   1.000  C
  C36      1.0000 0.03960  0.67370  0.85470  Biso   1.000  C
  C37      1.0000 0.99890  0.75010  0.90610  Biso   1.000  C
  C38      1.0000 0.05670  0.79600  0.89520  Biso   1.000  C
  C39      1.0000 0.01110  0.86720  0.94520  Biso   1.000  C
  C40      1.0000 0.90830  0.89130  0.00410  Biso   1.000  C
  C41      1.0000 0.85690  0.84010  0.01150  Biso   1.000  C
  C42      1.0000 0.74600  0.86160  0.06900  Biso   1.000  C
  C43      1.0000 0.29620  0.45500  0.84560  Biso   1.000  C
  C44      1.0000 0.33860  0.52160  0.82840  Biso   1.000  C
  C45      1.0000 0.36480  0.54140  0.88380  Biso   1.000  C
  C46      1.0000 0.39050  0.61220  0.86640  Biso   1.000  C
  C47      1.0000 0.39320  0.65760  0.79340  Biso   1.000  C
  C48      1.0000 0.37040  0.63180  0.73960  Biso   1.000  C
  C49      1.0000 0.38030  0.67190  0.65490  Biso   1.000  C
  C50      1.0000 0.56800  0.82630  0.64530  Biso   1.000  C
  C51      1.0000 0.65510  0.74990  0.59390  Biso   1.000  C
  C52      1.0000 0.74790  0.70400  0.60480  Biso   1.000  C
  C53      1.0000 0.82350  0.63280  0.55480  Biso   1.000  C
  C54      1.0000 0.80370  0.60870  0.49590  Biso   1.000  C
  C55      1.0000 0.70850  0.65990  0.48850  Biso   1.000  C
  C56      1.0000 0.67660  0.63840  0.43100  Biso   1.000  C
  N1       1.0000 0.33510  0.06680  0.25680  Biso   1.000  N
  N2       1.0000 0.09810  0.23020  0.03580  Biso   1.000  N
  N3       1.0000 0.65870  0.43320  0.24320  Biso   1.000  N
  N4       1.0000 0.36410  0.26980  0.46420  Biso   1.000  N
  N5       1.0000 0.66490  0.93320  0.74320  Biso   1.000  N
  N6       1.0000 0.90190  0.76980  0.96420  Biso   1.000  N
  N7       1.0000 0.34130  0.56680  0.75680  Biso   1.000  N
  N8       1.0000 0.63590  0.73020  0.53580  Biso   1.000  N
  O1       1.0000 0.49190  0.95210  0.29530  Biso   1.000  O
  O2       1.0000 0.38620  0.90840  0.40940  Biso   1.000  O
  O3       1.0000 0.39040  0.15020  0.11680  Biso   1.000  O
  O4       1.0000 0.22690  0.22210  0.12790  Biso   1.000  O
  O5       1.0000 0.01730  0.36720  0.12580  Biso   1.000  O
  O6       1.0000 0.87560  0.34390  0.20590  Biso   1.000  O
  O7       1.0000 0.30120  0.07090  0.88830  Biso   1.000  O
  O8       1.0000 0.29480  0.18690  0.93030  Biso   1.000  O
  O9       1.0000 0.21740  0.39760  0.11400  Biso   1.000  O
  O10      1.0000 0.39720  0.25860  0.98480  Biso   1.000  O
  O11      1.0000 0.08520  0.48740  0.02060  Biso   1.000  O
  O12      1.0000 0.13160  0.37060  0.89440  Biso   1.000  O
  O13      1.0000 0.59810  0.05310  0.00790  Biso   1.000  O
  O14      1.0000 0.54420  0.19630  0.12590  Biso   1.000  O
  O15      1.0000 0.64790  0.03770  0.23610  Biso   1.000  O
  O16      1.0000 0.49630  0.93110  0.12270  Biso   1.000  O
  O17      1.0000 0.73930  0.54790  0.20470  Biso   1.000  O
  O18      1.0000 0.70400  0.59160  0.09060  Biso   1.000  O
  O19      1.0000 0.65740  0.34980  0.38320  Biso   1.000  O
  O20      1.0000 0.57690  0.27790  0.37210  Biso   1.000  O
  O21      1.0000 0.51030  0.13280  0.37420  Biso   1.000  O
  O22      1.0000 0.42540  0.15610  0.29410  Biso   1.000  O
  O23      1.0000 0.26040  0.42910  0.61170  Biso   1.000  O
  O24      1.0000 0.41200  0.31310  0.56970  Biso   1.000  O
  O25      1.0000 0.72900  0.10240  0.38600  Biso   1.000  O
  O26      1.0000 0.64060  0.24140  0.51520  Biso   1.000  O
  O27      1.0000 0.59320  0.01260  0.47940  Biso   1.000  O
  O28      1.0000 0.39660  0.12940  0.60560  Biso   1.000  O
  O29      1.0000 0.65910  0.44690  0.49210  Biso   1.000  O
  O30      1.0000 0.86640  0.30370  0.37410  Biso   1.000  O
  O31      1.0000 0.92170  0.46230  0.26390  Biso   1.000  O
  O32      1.0000 0.55010  0.56890  0.37730  Biso   1.000  O
  O33      1.0000 0.50810  0.04790  0.70470  Biso   1.000  O
  O34      1.0000 0.61380  0.09160  0.59060  Biso   1.000  O
  O35      1.0000 0.60960  0.84980  0.88320  Biso   1.000  O
  O36      1.0000 0.77310  0.77790  0.87210  Biso   1.000  O
  O37      1.0000 0.98270  0.63280  0.87420  Biso   1.000  O
  O38      1.0000 0.12440  0.65610  0.79410  Biso   1.000  O
  O39      1.0000 0.69880  0.92910  0.11170  Biso   1.000  O
  O40      1.0000 0.70520  0.81310  0.06970  Biso   1.000  O
  O41      1.0000 0.78260  0.60240  0.88600  Biso   1.000  O
  O42      1.0000 0.60280  0.74140  0.01520  Biso   1.000  O
  O43      1.0000 0.91480  0.51260  0.97940  Biso   1.000  O
  O44      1.0000 0.86840  0.62940  0.10560  Biso   1.000  O
  O45      1.0000 0.40190  0.94690  0.99210  Biso   1.000  O
  O46      1.0000 0.45580  0.80370  0.87410  Biso   1.000  O
  O47      1.0000 0.35210  0.96230  0.76390  Biso   1.000  O
  O48      1.0000 0.50370  0.06890  0.87730  Biso   1.000  O
  O49      1.0000 0.26070  0.45210  0.79530  Biso   1.000  O
  O50      1.0000 0.29600  0.40840  0.90940  Biso   1.000  O
  O51      1.0000 0.34260  0.65020  0.61680  Biso   1.000  O
  O52      1.0000 0.42310  0.72210  0.62790  Biso   1.000  O
  O53      1.0000 0.48970  0.86720  0.62580  Biso   1.000  O
  O54      1.0000 0.57460  0.84390  0.70590  Biso   1.000  O
  O55      1.0000 0.73960  0.57090  0.38830  Biso   1.000  O
  O56      1.0000 0.58800  0.68690  0.43030  Biso   1.000  O
  O57      1.0000 0.27100  0.89760  0.61400  Biso   1.000  O
  O58      1.0000 0.35940  0.75860  0.48480  Biso   1.000  O
  O59      1.0000 0.40680  0.98740  0.52060  Biso   1.000  O
  O60      1.0000 0.60340  0.87060  0.39440  Biso   1.000  O
  O61      1.0000 0.34090  0.55310  0.50790  Biso   1.000  O
  O62      1.0000 0.13360  0.69630  0.62590  Biso   1.000  O
  O63      1.0000 0.07830  0.53770  0.73610  Biso   1.000  O
  O64      1.0000 0.44990  0.43110  0.62270  Biso   1.000  O
