data_image0
_cell_length_a       9.08701
_cell_length_b       14.9997
_cell_length_c       17.239
_cell_angle_alpha    105.306
_cell_angle_beta     90
_cell_angle_gamma    107.632

_symmetry_space_group_name_H-M    P 1
_symmetry_int_tables_number       1

loop_
  _symmetry_equiv_pos_as_xyz
  'x, y, z'

loop_
  _atom_site_label
  _atom_site_occupancy
  _atom_site_fract_x
  _atom_site_fract_y
  _atom_site_fract_z
  _atom_site_thermal_displace_type
  _atom_site_B_iso_or_equiv
  _atom_site_type_symbol
  Cd1      1.0000 0.00000  0.00000  0.00000  Biso   1.000  Cd
  Cd2      1.0000 0.00000  0.00000  0.50000  Biso   1.000  Cd
  Ni1      1.0000 0.34254  0.00000  0.75000  Biso   1.000  Ni
  Ni2      1.0000 0.65746  0.00000  0.25000  Biso   1.000  Ni
  H1       1.0000 0.04400  0.84800  0.04900  Biso   1.000  H
  H2       1.0000 0.17900  0.91600  0.06500  Biso   1.000  H
  H3       1.0000 0.23800  0.86000  0.94100  Biso   1.000  H
  H4       1.0000 0.21500  0.78800  0.99400  Biso   1.000  H
  H5       1.0000 0.99000  0.77400  0.87600  Biso   1.000  H
  H6       1.0000 0.96500  0.71600  0.94000  Biso   1.000  H
  H7       1.0000 0.15700  0.69400  0.81800  Biso   1.000  H
  H8       1.0000 0.15200  0.64200  0.88000  Biso   1.000  H
  H9       1.0000 0.89700  0.55800  0.83000  Biso   1.000  H
  H10      1.0000 0.91200  0.61200  0.76300  Biso   1.000  H
  H11      1.0000 0.08900  0.53000  0.70900  Biso   1.000  H
  H12      1.0000 0.05900  0.47800  0.77100  Biso   1.000  H
  H13      1.0000 0.83400  0.44800  0.65600  Biso   1.000  H
  H14      1.0000 0.80600  0.39800  0.72400  Biso   1.000  H
  H15      1.0000 0.97900  0.31000  0.66900  Biso   1.000  H
  H16      1.0000 0.01100  0.36400  0.61000  Biso   1.000  H
  H17      1.0000 0.72100  0.23600  0.60700  Biso   1.000  H
  H18      1.0000 0.76200  0.30000  0.53900  Biso   1.000  H
  H19      1.0000 0.76600  0.14000  0.48000  Biso   1.000  H
  H20      1.0000 0.93600  0.20800  0.48900  Biso   1.000  H
  H21      1.0000 0.94600  0.15000  0.60600  Biso   1.000  H
  H22      1.0000 0.79800  0.08800  0.58000  Biso   1.000  H
  H23      1.0000 0.19600  0.15200  0.45100  Biso   1.000  H
  H24      1.0000 0.26300  0.08400  0.43500  Biso   1.000  H
  H25      1.0000 0.37800  0.14000  0.55900  Biso   1.000  H
  H26      1.0000 0.42700  0.21200  0.50600  Biso   1.000  H
  H27      1.0000 0.21600  0.22600  0.62400  Biso   1.000  H
  H28      1.0000 0.24900  0.28400  0.56000  Biso   1.000  H
  H29      1.0000 0.46300  0.30600  0.68200  Biso   1.000  H
  H30      1.0000 0.51000  0.35800  0.62000  Biso   1.000  H
  H31      1.0000 0.33900  0.44200  0.67000  Biso   1.000  H
  H32      1.0000 0.30000  0.38800  0.73700  Biso   1.000  H
  H33      1.0000 0.55900  0.47000  0.79100  Biso   1.000  H
  H34      1.0000 0.58100  0.52200  0.72900  Biso   1.000  H
  H35      1.0000 0.38600  0.55200  0.84400  Biso   1.000  H
  H36      1.0000 0.40800  0.60200  0.77600  Biso   1.000  H
  H37      1.0000 0.66900  0.69000  0.83100  Biso   1.000  H
  H38      1.0000 0.64700  0.63600  0.89000  Biso   1.000  H
  H39      1.0000 0.48500  0.76400  0.89300  Biso   1.000  H
  H40      1.0000 0.46200  0.70000  0.96100  Biso   1.000  H
  H41      1.0000 0.62600  0.86000  0.02000  Biso   1.000  H
  H42      1.0000 0.72800  0.79200  0.01100  Biso   1.000  H
  H43      1.0000 0.79600  0.85000  0.89400  Biso   1.000  H
  H44      1.0000 0.71000  0.91200  0.92000  Biso   1.000  H
  H45      1.0000 0.95600  0.15200  0.95100  Biso   1.000  H
  H46      1.0000 0.82100  0.08400  0.93500  Biso   1.000  H
  H47      1.0000 0.76200  0.14000  0.05900  Biso   1.000  H
  H48      1.0000 0.78500  0.21200  0.00600  Biso   1.000  H
  H49      1.0000 0.01000  0.22600  0.12400  Biso   1.000  H
  H50      1.0000 0.03500  0.28400  0.06000  Biso   1.000  H
  H51      1.0000 0.84300  0.30600  0.18200  Biso   1.000  H
  H52      1.0000 0.84800  0.35800  0.12000  Biso   1.000  H
  H53      1.0000 0.10300  0.44200  0.17000  Biso   1.000  H
  H54      1.0000 0.08800  0.38800  0.23700  Biso   1.000  H
  H55      1.0000 0.91100  0.47000  0.29100  Biso   1.000  H
  H56      1.0000 0.94100  0.52200  0.22900  Biso   1.000  H
  H57      1.0000 0.16600  0.55200  0.34400  Biso   1.000  H
  H58      1.0000 0.19400  0.60200  0.27600  Biso   1.000  H
  H59      1.0000 0.02100  0.69000  0.33100  Biso   1.000  H
  H60      1.0000 0.98900  0.63600  0.39000  Biso   1.000  H
  H61      1.0000 0.27900  0.76400  0.39300  Biso   1.000  H
  H62      1.0000 0.23800  0.70000  0.46100  Biso   1.000  H
  H63      1.0000 0.23400  0.86000  0.52000  Biso   1.000  H
  H64      1.0000 0.06400  0.79200  0.51100  Biso   1.000  H
  H65      1.0000 0.05400  0.85000  0.39400  Biso   1.000  H
  H66      1.0000 0.20200  0.91200  0.42000  Biso   1.000  H
  H67      1.0000 0.80400  0.84800  0.54900  Biso   1.000  H
  H68      1.0000 0.73700  0.91600  0.56500  Biso   1.000  H
  H69      1.0000 0.62200  0.86000  0.44100  Biso   1.000  H
  H70      1.0000 0.57300  0.78800  0.49400  Biso   1.000  H
  H71      1.0000 0.78400  0.77400  0.37600  Biso   1.000  H
  H72      1.0000 0.75100  0.71600  0.44000  Biso   1.000  H
  H73      1.0000 0.53700  0.69400  0.31800  Biso   1.000  H
  H74      1.0000 0.49000  0.64200  0.38000  Biso   1.000  H
  H75      1.0000 0.66100  0.55800  0.33000  Biso   1.000  H
  H76      1.0000 0.70000  0.61200  0.26300  Biso   1.000  H
  H77      1.0000 0.44100  0.53000  0.20900  Biso   1.000  H
  H78      1.0000 0.41900  0.47800  0.27100  Biso   1.000  H
  H79      1.0000 0.61400  0.44800  0.15600  Biso   1.000  H
  H80      1.0000 0.59200  0.39800  0.22400  Biso   1.000  H
  H81      1.0000 0.33100  0.31000  0.16900  Biso   1.000  H
  H82      1.0000 0.35300  0.36400  0.11000  Biso   1.000  H
  H83      1.0000 0.51500  0.23600  0.10700  Biso   1.000  H
  H84      1.0000 0.53800  0.30000  0.03900  Biso   1.000  H
  H85      1.0000 0.37400  0.14000  0.98000  Biso   1.000  H
  H86      1.0000 0.27200  0.20800  0.98900  Biso   1.000  H
  H87      1.0000 0.20400  0.15000  0.10600  Biso   1.000  H
  H88      1.0000 0.29000  0.08800  0.08000  Biso   1.000  H
  C1       1.0000 0.16710  0.81980  0.96720  Biso   1.000  C
  C2       1.0000 0.03920  0.74280  0.90860  Biso   1.000  C
  C3       1.0000 0.09340  0.66520  0.85160  Biso   1.000  C
  C4       1.0000 0.96260  0.58320  0.79800  Biso   1.000  C
  C5       1.0000 0.01400  0.50380  0.74220  Biso   1.000  C
  C6       1.0000 0.88110  0.42320  0.68880  Biso   1.000  C
  C7       1.0000 0.92950  0.34100  0.63430  Biso   1.000  C
  C8       1.0000 0.79990  0.26500  0.57520  Biso   1.000  C
  C9       1.0000 0.84850  0.18260  0.52130  Biso   1.000  C
  C10      1.0000 0.19570  0.99320  0.82550  Biso   1.000  C
  C11      1.0000 0.48500  0.99320  0.82360  Biso   1.000  C
  C12      1.0000 0.34730  0.18020  0.53280  Biso   1.000  C
  C13      1.0000 0.29640  0.25720  0.59140  Biso   1.000  C
  C14      1.0000 0.42820  0.33480  0.64840  Biso   1.000  C
  C15      1.0000 0.37940  0.41680  0.70200  Biso   1.000  C
  C16      1.0000 0.51020  0.49620  0.75780  Biso   1.000  C
  C17      1.0000 0.45790  0.57680  0.81120  Biso   1.000  C
  C18      1.0000 0.58850  0.65900  0.86570  Biso   1.000  C
  C19      1.0000 0.53490  0.73500  0.92480  Biso   1.000  C
  C20      1.0000 0.66590  0.81740  0.97870  Biso   1.000  C
  C21      1.0000 0.20250  0.00680  0.67450  Biso   1.000  C
  C22      1.0000 0.49180  0.00680  0.67640  Biso   1.000  C
  C23      1.0000 0.83290  0.18020  0.03280  Biso   1.000  C
  C24      1.0000 0.96080  0.25720  0.09140  Biso   1.000  C
  C25      1.0000 0.90660  0.33480  0.14840  Biso   1.000  C
  C26      1.0000 0.03740  0.41680  0.20200  Biso   1.000  C
  C27      1.0000 0.98600  0.49620  0.25780  Biso   1.000  C
  C28      1.0000 0.11890  0.57680  0.31120  Biso   1.000  C
  C29      1.0000 0.07050  0.65900  0.36570  Biso   1.000  C
  C30      1.0000 0.20010  0.73500  0.42480  Biso   1.000  C
  C31      1.0000 0.15150  0.81740  0.47870  Biso   1.000  C
  C32      1.0000 0.80430  0.00680  0.17450  Biso   1.000  C
  C33      1.0000 0.51500  0.00680  0.17640  Biso   1.000  C
  C34      1.0000 0.65270  0.81980  0.46720  Biso   1.000  C
  C35      1.0000 0.70360  0.74280  0.40860  Biso   1.000  C
  C36      1.0000 0.57180  0.66520  0.35160  Biso   1.000  C
  C37      1.0000 0.62060  0.58320  0.29800  Biso   1.000  C
  C38      1.0000 0.48980  0.50380  0.24220  Biso   1.000  C
  C39      1.0000 0.54210  0.42320  0.18880  Biso   1.000  C
  C40      1.0000 0.41150  0.34100  0.13430  Biso   1.000  C
  C41      1.0000 0.46510  0.26500  0.07520  Biso   1.000  C
  C42      1.0000 0.33410  0.18260  0.02130  Biso   1.000  C
  C43      1.0000 0.79750  0.99320  0.32550  Biso   1.000  C
  C44      1.0000 0.50820  0.99320  0.32360  Biso   1.000  C
  N1       1.0000 0.10550  0.88540  0.02840  Biso   1.000  N
  N2       1.0000 0.88520  0.11860  0.56360  Biso   1.000  N
  N3       1.0000 0.10690  0.98880  0.87210  Biso   1.000  N
  N4       1.0000 0.57670  0.99040  0.86790  Biso   1.000  N
  N5       1.0000 0.22010  0.11460  0.47160  Biso   1.000  N
  N6       1.0000 0.76660  0.88140  0.93640  Biso   1.000  N
  N7       1.0000 0.11810  0.01120  0.62790  Biso   1.000  N
  N8       1.0000 0.58630  0.00960  0.63210  Biso   1.000  N
  N9       1.0000 0.89450  0.11460  0.97160  Biso   1.000  N
  N10      1.0000 0.11480  0.88140  0.43640  Biso   1.000  N
  N11      1.0000 0.89310  0.01120  0.12790  Biso   1.000  N
  N12      1.0000 0.42330  0.00960  0.13210  Biso   1.000  N
  N13      1.0000 0.77990  0.88540  0.52840  Biso   1.000  N
  N14      1.0000 0.23340  0.11860  0.06360  Biso   1.000  N
  N15      1.0000 0.88190  0.98880  0.37210  Biso   1.000  N
  N16      1.0000 0.41370  0.99040  0.36790  Biso   1.000  N
