data_image0
_cell_length_a       7.2776
_cell_length_b       7.2776
_cell_length_c       26.931
_cell_angle_alpha    90
_cell_angle_beta     90
_cell_angle_gamma    90.4899

_symmetry_space_group_name_H-M    P 1
_symmetry_int_tables_number       1

loop_
  _symmetry_equiv_pos_as_xyz
  'x, y, z'

loop_
  _atom_site_label
  _atom_site_occupancy
  _atom_site_fract_x
  _atom_site_fract_y
  _atom_site_fract_z
  _atom_site_thermal_displace_type
  _atom_site_B_iso_or_equiv
  _atom_site_type_symbol
  Zn1      1.0000 0.03971  0.68785  0.72095  Biso   1.000  Zn
  Zn2      1.0000 0.68785  0.03971  0.27905  Biso   1.000  Zn
  Zn3      1.0000 0.18785  0.53971  0.22095  Biso   1.000  Zn
  Zn4      1.0000 0.53971  0.18785  0.77905  Biso   1.000  Zn
  H1       1.0000 0.78360  0.78640  0.77520  Biso   1.000  H
  H2       1.0000 0.77850  0.59250  0.77430  Biso   1.000  H
  H3       1.0000 0.32260  0.68620  0.85950  Biso   1.000  H
  H4       1.0000 0.11570  0.68550  0.83920  Biso   1.000  H
  H5       1.0000 0.66530  0.68570  0.63720  Biso   1.000  H
  H6       1.0000 0.45420  0.66200  0.70020  Biso   1.000  H
  H7       1.0000 0.04490  0.73150  0.60770  Biso   1.000  H
  H8       1.0000 0.24390  0.75590  0.54150  Biso   1.000  H
  H9       1.0000 0.59620  0.86740  0.52320  Biso   1.000  H
  H10      1.0000 0.74070  0.74490  0.55290  Biso   1.000  H
  H11      1.0000 0.47440  0.60460  0.48390  Biso   1.000  H
  H12      1.0000 0.78640  0.78360  0.22480  Biso   1.000  H
  H13      1.0000 0.59250  0.77850  0.22570  Biso   1.000  H
  H14      1.0000 0.68620  0.32260  0.14050  Biso   1.000  H
  H15      1.0000 0.68550  0.11570  0.16080  Biso   1.000  H
  H16      1.0000 0.68570  0.66530  0.36280  Biso   1.000  H
  H17      1.0000 0.66200  0.45420  0.29980  Biso   1.000  H
  H18      1.0000 0.73150  0.04490  0.39230  Biso   1.000  H
  H19      1.0000 0.75590  0.24390  0.45850  Biso   1.000  H
  H20      1.0000 0.86740  0.59620  0.47680  Biso   1.000  H
  H21      1.0000 0.74490  0.74070  0.44710  Biso   1.000  H
  H22      1.0000 0.60460  0.47440  0.51610  Biso   1.000  H
  H23      1.0000 0.28640  0.28360  0.27520  Biso   1.000  H
  H24      1.0000 0.09250  0.27850  0.27430  Biso   1.000  H
  H25      1.0000 0.18620  0.82260  0.35950  Biso   1.000  H
  H26      1.0000 0.18550  0.61570  0.33920  Biso   1.000  H
  H27      1.0000 0.18570  0.16530  0.13720  Biso   1.000  H
  H28      1.0000 0.16200  0.95420  0.20020  Biso   1.000  H
  H29      1.0000 0.23150  0.54490  0.10770  Biso   1.000  H
  H30      1.0000 0.25590  0.74390  0.04150  Biso   1.000  H
  H31      1.0000 0.36740  0.09620  0.02320  Biso   1.000  H
  H32      1.0000 0.24490  0.24070  0.05290  Biso   1.000  H
  H33      1.0000 0.10460  0.97440  0.98390  Biso   1.000  H
  H34      1.0000 0.28360  0.28640  0.72480  Biso   1.000  H
  H35      1.0000 0.27850  0.09250  0.72570  Biso   1.000  H
  H36      1.0000 0.82260  0.18620  0.64050  Biso   1.000  H
  H37      1.0000 0.61570  0.18550  0.66080  Biso   1.000  H
  H38      1.0000 0.16530  0.18570  0.86280  Biso   1.000  H
  H39      1.0000 0.95420  0.16200  0.79980  Biso   1.000  H
  H40      1.0000 0.54490  0.23150  0.89230  Biso   1.000  H
  H41      1.0000 0.74390  0.25590  0.95850  Biso   1.000  H
  H42      1.0000 0.09620  0.36740  0.97680  Biso   1.000  H
  H43      1.0000 0.24070  0.24490  0.94710  Biso   1.000  H
  H44      1.0000 0.97440  0.10460  0.01610  Biso   1.000  H
  C1       1.0000 0.28640  0.86080  0.79987  Biso   1.000  C
  C2       1.0000 0.24650  0.68670  0.82901  Biso   1.000  C
  C3       1.0000 0.28610  0.51430  0.79880  Biso   1.000  C
  C4       1.0000 0.53800  0.69640  0.63007  Biso   1.000  C
  C5       1.0000 0.41060  0.68260  0.66748  Biso   1.000  C
  C6       1.0000 0.17310  0.72270  0.61376  Biso   1.000  C
  C7       1.0000 0.29110  0.73770  0.57406  Biso   1.000  C
  C8       1.0000 0.47880  0.72620  0.58165  Biso   1.000  C
  C9       1.0000 0.61450  0.74650  0.53925  Biso   1.000  C
  C10      1.0000 0.86080  0.28640  0.20013  Biso   1.000  C
  C11      1.0000 0.68670  0.24650  0.17099  Biso   1.000  C
  C12      1.0000 0.51430  0.28610  0.20120  Biso   1.000  C
  C13      1.0000 0.69640  0.53800  0.36993  Biso   1.000  C
  C14      1.0000 0.68260  0.41060  0.33252  Biso   1.000  C
  C15      1.0000 0.72270  0.17310  0.38624  Biso   1.000  C
  C16      1.0000 0.73770  0.29110  0.42594  Biso   1.000  C
  C17      1.0000 0.72620  0.47880  0.41835  Biso   1.000  C
  C18      1.0000 0.74650  0.61450  0.46075  Biso   1.000  C
  C19      1.0000 0.36080  0.78640  0.29987  Biso   1.000  C
  C20      1.0000 0.18670  0.74650  0.32901  Biso   1.000  C
  C21      1.0000 0.01430  0.78610  0.29880  Biso   1.000  C
  C22      1.0000 0.19640  0.03800  0.13007  Biso   1.000  C
  C23      1.0000 0.18260  0.91060  0.16748  Biso   1.000  C
  C24      1.0000 0.22270  0.67310  0.11376  Biso   1.000  C
  C25      1.0000 0.23770  0.79110  0.07406  Biso   1.000  C
  C26      1.0000 0.22620  0.97880  0.08165  Biso   1.000  C
  C27      1.0000 0.24650  0.11450  0.03925  Biso   1.000  C
  C28      1.0000 0.78640  0.36080  0.70013  Biso   1.000  C
  C29      1.0000 0.74650  0.18670  0.67099  Biso   1.000  C
  C30      1.0000 0.78610  0.01430  0.70120  Biso   1.000  C
  C31      1.0000 0.03800  0.19640  0.86993  Biso   1.000  C
  C32      1.0000 0.91060  0.18260  0.83252  Biso   1.000  C
  C33      1.0000 0.67310  0.22270  0.88624  Biso   1.000  C
  C34      1.0000 0.79110  0.23770  0.92594  Biso   1.000  C
  C35      1.0000 0.97880  0.22620  0.91835  Biso   1.000  C
  C36      1.0000 0.11450  0.24650  0.96075  Biso   1.000  C
  C37      1.0000 0.59620  0.59620  0.50000  Biso   1.000  C
  C38      1.0000 0.09620  0.09620  0.00000  Biso   1.000  C
  N1       1.0000 0.22970  0.69630  0.66089  Biso   1.000  N
  N2       1.0000 0.69630  0.22970  0.33911  Biso   1.000  N
  N3       1.0000 0.19630  0.72970  0.16089  Biso   1.000  N
  N4       1.0000 0.72970  0.19630  0.83911  Biso   1.000  N
  O1       1.0000 0.19870  0.88450  0.75907  Biso   1.000  O
  O2       1.0000 0.40300  0.97140  0.81665  Biso   1.000  O
  O3       1.0000 0.19897  0.49103  0.75833  Biso   1.000  O
  O4       1.0000 0.40335  0.40575  0.81531  Biso   1.000  O
  O5       1.0000 0.84597  0.68797  0.77990  Biso   1.000  O
  O6       1.0000 0.88450  0.19870  0.24093  Biso   1.000  O
  O7       1.0000 0.97140  0.40300  0.18335  Biso   1.000  O
  O8       1.0000 0.49103  0.19897  0.24167  Biso   1.000  O
  O9       1.0000 0.40575  0.40335  0.18469  Biso   1.000  O
  O10      1.0000 0.68797  0.84597  0.22010  Biso   1.000  O
  O11      1.0000 0.38450  0.69870  0.25907  Biso   1.000  O
  O12      1.0000 0.47140  0.90300  0.31665  Biso   1.000  O
  O13      1.0000 0.99103  0.69897  0.25833  Biso   1.000  O
  O14      1.0000 0.90575  0.90335  0.31531  Biso   1.000  O
  O15      1.0000 0.18797  0.34597  0.27990  Biso   1.000  O
  O16      1.0000 0.69870  0.38450  0.74093  Biso   1.000  O
  O17      1.0000 0.90300  0.47140  0.68335  Biso   1.000  O
  O18      1.0000 0.69897  0.99103  0.74167  Biso   1.000  O
  O19      1.0000 0.90335  0.90575  0.68469  Biso   1.000  O
  O20      1.0000 0.34597  0.18797  0.72010  Biso   1.000  O
