data_image0
_cell_length_a       7.249
_cell_length_b       7.419
_cell_length_c       23.93
_cell_angle_alpha    90
_cell_angle_beta     90
_cell_angle_gamma    90.37

_symmetry_space_group_name_H-M    P 1
_symmetry_int_tables_number       1

loop_
  _symmetry_equiv_pos_as_xyz
  'x, y, z'

loop_
  _atom_site_label
  _atom_site_occupancy
  _atom_site_fract_x
  _atom_site_fract_y
  _atom_site_fract_z
  _atom_site_thermal_displace_type
  _atom_site_B_iso_or_equiv
  _atom_site_type_symbol
  Zn1      1.0000 0.42856  0.42295  0.78196  Biso   1.000  Zn
  Zn2      1.0000 0.07144  0.07705  0.28196  Biso   1.000  Zn
  Zn3      1.0000 0.57144  0.57705  0.21804  Biso   1.000  Zn
  Zn4      1.0000 0.92856  0.92295  0.71804  Biso   1.000  Zn
  H1       1.0000 0.52200  0.17100  0.72400  Biso   1.000  H
  H2       1.0000 0.33600  0.17000  0.72580  Biso   1.000  H
  H3       1.0000 0.42710  0.50290  0.64900  Biso   1.000  H
  H4       1.0000 0.42980  0.70670  0.62680  Biso   1.000  H
  H5       1.0000 0.38010  0.60890  0.98490  Biso   1.000  H
  H6       1.0000 0.39230  0.41950  0.90860  Biso   1.000  H
  H7       1.0000 0.45170  0.83090  0.80650  Biso   1.000  H
  H8       1.0000 0.44160  0.03290  0.87990  Biso   1.000  H
  H9       1.0000 0.33530  0.08120  0.97970  Biso   1.000  H
  H10      1.0000 0.33900  0.91380  0.02180  Biso   1.000  H
  H11      1.0000 0.97800  0.32900  0.22400  Biso   1.000  H
  H12      1.0000 0.16400  0.33000  0.22580  Biso   1.000  H
  H13      1.0000 0.07290  0.99710  0.14900  Biso   1.000  H
  H14      1.0000 0.07020  0.79330  0.12680  Biso   1.000  H
  H15      1.0000 0.11990  0.89110  0.48490  Biso   1.000  H
  H16      1.0000 0.10770  0.08050  0.40860  Biso   1.000  H
  H17      1.0000 0.04830  0.66910  0.30650  Biso   1.000  H
  H18      1.0000 0.05840  0.46710  0.37990  Biso   1.000  H
  H19      1.0000 0.16470  0.41880  0.47970  Biso   1.000  H
  H20      1.0000 0.16100  0.58620  0.52180  Biso   1.000  H
  H21      1.0000 0.47800  0.82900  0.27600  Biso   1.000  H
  H22      1.0000 0.66400  0.83000  0.27420  Biso   1.000  H
  H23      1.0000 0.57290  0.49710  0.35100  Biso   1.000  H
  H24      1.0000 0.57020  0.29330  0.37320  Biso   1.000  H
  H25      1.0000 0.61990  0.39110  0.01510  Biso   1.000  H
  H26      1.0000 0.60770  0.58050  0.09140  Biso   1.000  H
  H27      1.0000 0.54830  0.16910  0.19350  Biso   1.000  H
  H28      1.0000 0.55840  0.96710  0.12010  Biso   1.000  H
  H29      1.0000 0.66470  0.91880  0.02030  Biso   1.000  H
  H30      1.0000 0.66100  0.08620  0.97820  Biso   1.000  H
  H31      1.0000 0.02200  0.67100  0.77600  Biso   1.000  H
  H32      1.0000 0.83600  0.67000  0.77420  Biso   1.000  H
  H33      1.0000 0.92710  0.00290  0.85100  Biso   1.000  H
  H34      1.0000 0.92980  0.20670  0.87320  Biso   1.000  H
  H35      1.0000 0.88010  0.10890  0.51510  Biso   1.000  H
  H36      1.0000 0.89230  0.91950  0.59140  Biso   1.000  H
  H37      1.0000 0.95170  0.33090  0.69350  Biso   1.000  H
  H38      1.0000 0.94160  0.53290  0.62010  Biso   1.000  H
  H39      1.0000 0.83530  0.58120  0.52030  Biso   1.000  H
  H40      1.0000 0.83900  0.41380  0.47820  Biso   1.000  H
  C1       1.0000 0.60150  0.66860  0.69511  Biso   1.000  C
  C2       1.0000 0.42840  0.63080  0.66081  Biso   1.000  C
  C3       1.0000 0.25480  0.67020  0.69464  Biso   1.000  C
  C4       1.0000 0.39540  0.65830  0.94850  Biso   1.000  C
  C5       1.0000 0.40280  0.54580  0.90271  Biso   1.000  C
  C6       1.0000 0.43740  0.78540  0.84333  Biso   1.000  C
  C7       1.0000 0.43140  0.90720  0.88700  Biso   1.000  C
  C8       1.0000 0.41020  0.84440  0.94153  Biso   1.000  C
  C9       1.0000 0.40510  0.97230  0.99042  Biso   1.000  C
  C10      1.0000 0.89850  0.83140  0.19511  Biso   1.000  C
  C11      1.0000 0.07160  0.86920  0.16081  Biso   1.000  C
  C12      1.0000 0.24520  0.82980  0.19464  Biso   1.000  C
  C13      1.0000 0.10460  0.84170  0.44850  Biso   1.000  C
  C14      1.0000 0.09720  0.95420  0.40271  Biso   1.000  C
  C15      1.0000 0.06260  0.71460  0.34333  Biso   1.000  C
  C16      1.0000 0.06860  0.59280  0.38700  Biso   1.000  C
  C17      1.0000 0.08980  0.65560  0.44153  Biso   1.000  C
  C18      1.0000 0.09490  0.52770  0.49042  Biso   1.000  C
  C19      1.0000 0.39850  0.33140  0.30489  Biso   1.000  C
  C20      1.0000 0.57160  0.36920  0.33919  Biso   1.000  C
  C21      1.0000 0.74520  0.32980  0.30536  Biso   1.000  C
  C22      1.0000 0.60460  0.34170  0.05150  Biso   1.000  C
  C23      1.0000 0.59720  0.45420  0.09729  Biso   1.000  C
  C24      1.0000 0.56260  0.21460  0.15667  Biso   1.000  C
  C25      1.0000 0.56860  0.09280  0.11300  Biso   1.000  C
  C26      1.0000 0.58980  0.15560  0.05847  Biso   1.000  C
  C27      1.0000 0.59490  0.02770  0.00958  Biso   1.000  C
  C28      1.0000 0.10150  0.16860  0.80489  Biso   1.000  C
  C29      1.0000 0.92840  0.13080  0.83919  Biso   1.000  C
  C30      1.0000 0.75480  0.17020  0.80536  Biso   1.000  C
  C31      1.0000 0.89540  0.15830  0.55150  Biso   1.000  C
  C32      1.0000 0.90280  0.04580  0.59729  Biso   1.000  C
  C33      1.0000 0.93740  0.28540  0.65667  Biso   1.000  C
  C34      1.0000 0.93140  0.40720  0.61300  Biso   1.000  C
  C35      1.0000 0.91020  0.34440  0.55847  Biso   1.000  C
  C36      1.0000 0.90510  0.47230  0.50958  Biso   1.000  C
  N1       1.0000 0.42400  0.60620  0.85030  Biso   1.000  N
  N2       1.0000 0.07600  0.89380  0.35030  Biso   1.000  N
  N3       1.0000 0.57600  0.39380  0.14970  Biso   1.000  N
  N4       1.0000 0.92400  0.10620  0.64970  Biso   1.000  N
  O1       1.0000 0.62550  0.58200  0.73980  Biso   1.000  O
  O2       1.0000 0.71230  0.78580  0.67674  Biso   1.000  O
  O3       1.0000 0.23040  0.58290  0.73975  Biso   1.000  O
  O4       1.0000 0.14590  0.78600  0.67593  Biso   1.000  O
  O5       1.0000 0.42940  0.23130  0.71673  Biso   1.000  O
  O6       1.0000 0.87450  0.91800  0.23980  Biso   1.000  O
  O7       1.0000 0.78770  0.71420  0.17674  Biso   1.000  O
  O8       1.0000 0.26960  0.91710  0.23975  Biso   1.000  O
  O9       1.0000 0.35410  0.71400  0.17593  Biso   1.000  O
  O10      1.0000 0.07060  0.26870  0.21673  Biso   1.000  O
  O11      1.0000 0.37450  0.41800  0.26020  Biso   1.000  O
  O12      1.0000 0.28770  0.21420  0.32326  Biso   1.000  O
  O13      1.0000 0.76960  0.41710  0.26025  Biso   1.000  O
  O14      1.0000 0.85410  0.21400  0.32407  Biso   1.000  O
  O15      1.0000 0.57060  0.76870  0.28327  Biso   1.000  O
  O16      1.0000 0.12550  0.08200  0.76020  Biso   1.000  O
  O17      1.0000 0.21230  0.28580  0.82326  Biso   1.000  O
  O18      1.0000 0.73040  0.08290  0.76025  Biso   1.000  O
  O19      1.0000 0.64590  0.28600  0.82407  Biso   1.000  O
  O20      1.0000 0.92940  0.73130  0.78327  Biso   1.000  O
