data_image0
_cell_length_a       16.9958
_cell_length_b       16.9958
_cell_length_c       16.9958
_cell_angle_alpha    90
_cell_angle_beta     90
_cell_angle_gamma    90

_symmetry_space_group_name_H-M    "P 1"
_symmetry_int_tables_number       1

loop_
  _symmetry_equiv_pos_as_xyz
  'x, y, z'

loop_
  _atom_site_label
  _atom_site_occupancy
  _atom_site_fract_x
  _atom_site_fract_y
  _atom_site_fract_z
  _atom_site_thermal_displace_type
  _atom_site_B_iso_or_equiv
  _atom_site_type_symbol
  N1       1.0000 0.90942  0.52734  0.18204  Biso   1.000  N
  H1       1.0000 0.95730  0.40100  0.10680  Biso   1.000  H
  C1       1.0000 0.87120  0.59730  0.18460  Biso   1.000  C
  H2       1.0000 0.88180  0.63830  0.21920  Biso   1.000  H
  N2       1.0000 0.81540  0.59730  0.12880  Biso   1.000  N
  N3       1.0000 0.40942  0.02734  0.68204  Biso   1.000  N
  H3       1.0000 0.45730  0.90100  0.60680  Biso   1.000  H
  C2       1.0000 0.37120  0.09730  0.68460  Biso   1.000  C
  H4       1.0000 0.38180  0.13830  0.71920  Biso   1.000  H
  N4       1.0000 0.31540  0.09730  0.62880  Biso   1.000  N
  N5       1.0000 0.09058  0.47266  0.18204  Biso   1.000  N
  H5       1.0000 0.04270  0.59900  0.10680  Biso   1.000  H
  C3       1.0000 0.12880  0.40270  0.18460  Biso   1.000  C
  H6       1.0000 0.11820  0.36170  0.21920  Biso   1.000  H
  N6       1.0000 0.18460  0.40270  0.12880  Biso   1.000  N
  N7       1.0000 0.59058  0.97266  0.68204  Biso   1.000  N
  H7       1.0000 0.54270  0.09900  0.60680  Biso   1.000  H
  C4       1.0000 0.62880  0.90270  0.68460  Biso   1.000  C
  H8       1.0000 0.61820  0.86170  0.71920  Biso   1.000  H
  N8       1.0000 0.68460  0.90270  0.62880  Biso   1.000  N
  N9       1.0000 0.09058  0.52734  0.81796  Biso   1.000  N
  H9       1.0000 0.04270  0.40100  0.89320  Biso   1.000  H
  C5       1.0000 0.12880  0.59730  0.81540  Biso   1.000  C
  H10      1.0000 0.11820  0.63830  0.78080  Biso   1.000  H
  N10      1.0000 0.18460  0.59730  0.87120  Biso   1.000  N
  N11      1.0000 0.59058  0.02734  0.31796  Biso   1.000  N
  H11      1.0000 0.54270  0.90100  0.39320  Biso   1.000  H
  C6       1.0000 0.62880  0.09730  0.31540  Biso   1.000  C
  H12      1.0000 0.61820  0.13830  0.28080  Biso   1.000  H
  N12      1.0000 0.68460  0.09730  0.37120  Biso   1.000  N
  N13      1.0000 0.90942  0.47266  0.81796  Biso   1.000  N
  H13      1.0000 0.95730  0.59900  0.89320  Biso   1.000  H
  C7       1.0000 0.87120  0.40270  0.81540  Biso   1.000  C
  H14      1.0000 0.88180  0.36170  0.78080  Biso   1.000  H
  N14      1.0000 0.81540  0.40270  0.87120  Biso   1.000  N
  N15      1.0000 0.40942  0.97266  0.31796  Biso   1.000  N
  H15      1.0000 0.45730  0.09900  0.39320  Biso   1.000  H
  C8       1.0000 0.37120  0.90270  0.31540  Biso   1.000  C
  H16      1.0000 0.38180  0.86170  0.28080  Biso   1.000  H
  N16      1.0000 0.31540  0.90270  0.37120  Biso   1.000  N
  N17      1.0000 0.18204  0.90942  0.52734  Biso   1.000  N
  H17      1.0000 0.10680  0.95730  0.40100  Biso   1.000  H
  C9       1.0000 0.18460  0.87120  0.59730  Biso   1.000  C
  H18      1.0000 0.21920  0.88180  0.63830  Biso   1.000  H
  N18      1.0000 0.12880  0.81540  0.59730  Biso   1.000  N
  N19      1.0000 0.68204  0.40942  0.02734  Biso   1.000  N
  H19      1.0000 0.60680  0.45730  0.90100  Biso   1.000  H
  C10      1.0000 0.68460  0.37120  0.09730  Biso   1.000  C
  H20      1.0000 0.71920  0.38180  0.13830  Biso   1.000  H
  N20      1.0000 0.62880  0.31540  0.09730  Biso   1.000  N
  N21      1.0000 0.18204  0.09058  0.47266  Biso   1.000  N
  H21      1.0000 0.10680  0.04270  0.59900  Biso   1.000  H
  C11      1.0000 0.18460  0.12880  0.40270  Biso   1.000  C
  H22      1.0000 0.21920  0.11820  0.36170  Biso   1.000  H
  N22      1.0000 0.12880  0.18460  0.40270  Biso   1.000  N
  N23      1.0000 0.68204  0.59058  0.97266  Biso   1.000  N
  H23      1.0000 0.60680  0.54270  0.09900  Biso   1.000  H
  C12      1.0000 0.68460  0.62880  0.90270  Biso   1.000  C
  H24      1.0000 0.71920  0.61820  0.86170  Biso   1.000  H
  N24      1.0000 0.62880  0.68460  0.90270  Biso   1.000  N
  N25      1.0000 0.81796  0.09058  0.52734  Biso   1.000  N
  H25      1.0000 0.89320  0.04270  0.40100  Biso   1.000  H
  C13      1.0000 0.81540  0.12880  0.59730  Biso   1.000  C
  H26      1.0000 0.78080  0.11820  0.63830  Biso   1.000  H
  N26      1.0000 0.87120  0.18460  0.59730  Biso   1.000  N
  N27      1.0000 0.31796  0.59058  0.02734  Biso   1.000  N
  H27      1.0000 0.39320  0.54270  0.90100  Biso   1.000  H
  C14      1.0000 0.31540  0.62880  0.09730  Biso   1.000  C
  H28      1.0000 0.28080  0.61820  0.13830  Biso   1.000  H
  N28      1.0000 0.37120  0.68460  0.09730  Biso   1.000  N
  N29      1.0000 0.81796  0.90942  0.47266  Biso   1.000  N
  H29      1.0000 0.89320  0.95730  0.59900  Biso   1.000  H
  C15      1.0000 0.81540  0.87120  0.40270  Biso   1.000  C
  H30      1.0000 0.78080  0.88180  0.36170  Biso   1.000  H
  N30      1.0000 0.87120  0.81540  0.40270  Biso   1.000  N
  N31      1.0000 0.31796  0.40942  0.97266  Biso   1.000  N
  H31      1.0000 0.39320  0.45730  0.09900  Biso   1.000  H
  C16      1.0000 0.31540  0.37120  0.90270  Biso   1.000  C
  H32      1.0000 0.28080  0.38180  0.86170  Biso   1.000  H
  N32      1.0000 0.37120  0.31540  0.90270  Biso   1.000  N
  N33      1.0000 0.52734  0.18204  0.90942  Biso   1.000  N
  H33      1.0000 0.40100  0.10680  0.95730  Biso   1.000  H
  C17      1.0000 0.59730  0.18460  0.87120  Biso   1.000  C
  H34      1.0000 0.63830  0.21920  0.88180  Biso   1.000  H
  N34      1.0000 0.59730  0.12880  0.81540  Biso   1.000  N
  N35      1.0000 0.02734  0.68204  0.40942  Biso   1.000  N
  H35      1.0000 0.90100  0.60680  0.45730  Biso   1.000  H
  C18      1.0000 0.09730  0.68460  0.37120  Biso   1.000  C
  H36      1.0000 0.13830  0.71920  0.38180  Biso   1.000  H
  N36      1.0000 0.09730  0.62880  0.31540  Biso   1.000  N
  N37      1.0000 0.47266  0.18204  0.09058  Biso   1.000  N
  H37      1.0000 0.59900  0.10680  0.04270  Biso   1.000  H
  C19      1.0000 0.40270  0.18460  0.12880  Biso   1.000  C
  H38      1.0000 0.36170  0.21920  0.11820  Biso   1.000  H
  N38      1.0000 0.40270  0.12880  0.18460  Biso   1.000  N
  N39      1.0000 0.97266  0.68204  0.59058  Biso   1.000  N
  H39      1.0000 0.09900  0.60680  0.54270  Biso   1.000  H
  C20      1.0000 0.90270  0.68460  0.62880  Biso   1.000  C
  H40      1.0000 0.86170  0.71920  0.61820  Biso   1.000  H
  N40      1.0000 0.90270  0.62880  0.68460  Biso   1.000  N
  N41      1.0000 0.52734  0.81796  0.09058  Biso   1.000  N
  H41      1.0000 0.40100  0.89320  0.04270  Biso   1.000  H
  C21      1.0000 0.59730  0.81540  0.12880  Biso   1.000  C
  H42      1.0000 0.63830  0.78080  0.11820  Biso   1.000  H
  N42      1.0000 0.59730  0.87120  0.18460  Biso   1.000  N
  N43      1.0000 0.02734  0.31796  0.59058  Biso   1.000  N
  H43      1.0000 0.90100  0.39320  0.54270  Biso   1.000  H
  C22      1.0000 0.09730  0.31540  0.62880  Biso   1.000  C
  H44      1.0000 0.13830  0.28080  0.61820  Biso   1.000  H
  N44      1.0000 0.09730  0.37120  0.68460  Biso   1.000  N
  N45      1.0000 0.47266  0.81796  0.90942  Biso   1.000  N
  H45      1.0000 0.59900  0.89320  0.95730  Biso   1.000  H
  C23      1.0000 0.40270  0.81540  0.87120  Biso   1.000  C
  H46      1.0000 0.36170  0.78080  0.88180  Biso   1.000  H
  N46      1.0000 0.40270  0.87120  0.81540  Biso   1.000  N
  N47      1.0000 0.97266  0.31796  0.40942  Biso   1.000  N
  H47      1.0000 0.09900  0.39320  0.45730  Biso   1.000  H
  C24      1.0000 0.90270  0.31540  0.37120  Biso   1.000  C
  H48      1.0000 0.86170  0.28080  0.38180  Biso   1.000  H
  N48      1.0000 0.90270  0.37120  0.31540  Biso   1.000  N
  N49      1.0000 0.52734  0.90942  0.18204  Biso   1.000  N
  H49      1.0000 0.40100  0.95730  0.10680  Biso   1.000  H
  H50      1.0000 0.63830  0.88180  0.21920  Biso   1.000  H
  N50      1.0000 0.02734  0.40942  0.68204  Biso   1.000  N
  H51      1.0000 0.90100  0.45730  0.60680  Biso   1.000  H
  H52      1.0000 0.13830  0.38180  0.71920  Biso   1.000  H
  N51      1.0000 0.47266  0.09058  0.18204  Biso   1.000  N
  H53      1.0000 0.59900  0.04270  0.10680  Biso   1.000  H
  H54      1.0000 0.36170  0.11820  0.21920  Biso   1.000  H
  N52      1.0000 0.97266  0.59058  0.68204  Biso   1.000  N
  H55      1.0000 0.09900  0.54270  0.60680  Biso   1.000  H
  H56      1.0000 0.86170  0.61820  0.71920  Biso   1.000  H
  N53      1.0000 0.52734  0.09058  0.81796  Biso   1.000  N
  H57      1.0000 0.40100  0.04270  0.89320  Biso   1.000  H
  H58      1.0000 0.63830  0.11820  0.78080  Biso   1.000  H
  N54      1.0000 0.02734  0.59058  0.31796  Biso   1.000  N
  H59      1.0000 0.90100  0.54270  0.39320  Biso   1.000  H
  H60      1.0000 0.13830  0.61820  0.28080  Biso   1.000  H
  N55      1.0000 0.47266  0.90942  0.81796  Biso   1.000  N
  H61      1.0000 0.59900  0.95730  0.89320  Biso   1.000  H
  H62      1.0000 0.36170  0.88180  0.78080  Biso   1.000  H
  N56      1.0000 0.97266  0.40942  0.31796  Biso   1.000  N
  H63      1.0000 0.09900  0.45730  0.39320  Biso   1.000  H
  H64      1.0000 0.86170  0.38180  0.28080  Biso   1.000  H
  N57      1.0000 0.90942  0.18204  0.52734  Biso   1.000  N
  H65      1.0000 0.95730  0.10680  0.40100  Biso   1.000  H
  H66      1.0000 0.88180  0.21920  0.63830  Biso   1.000  H
  N58      1.0000 0.40942  0.68204  0.02734  Biso   1.000  N
  H67      1.0000 0.45730  0.60680  0.90100  Biso   1.000  H
  H68      1.0000 0.38180  0.71920  0.13830  Biso   1.000  H
  N59      1.0000 0.09058  0.18204  0.47266  Biso   1.000  N
  H69      1.0000 0.04270  0.10680  0.59900  Biso   1.000  H
  H70      1.0000 0.11820  0.21920  0.36170  Biso   1.000  H
  N60      1.0000 0.59058  0.68204  0.97266  Biso   1.000  N
  H71      1.0000 0.54270  0.60680  0.09900  Biso   1.000  H
  H72      1.0000 0.61820  0.71920  0.86170  Biso   1.000  H
  N61      1.0000 0.09058  0.81796  0.52734  Biso   1.000  N
  H73      1.0000 0.04270  0.89320  0.40100  Biso   1.000  H
  H74      1.0000 0.11820  0.78080  0.63830  Biso   1.000  H
  N62      1.0000 0.59058  0.31796  0.02734  Biso   1.000  N
  H75      1.0000 0.54270  0.39320  0.90100  Biso   1.000  H
  H76      1.0000 0.61820  0.28080  0.13830  Biso   1.000  H
  N63      1.0000 0.90942  0.81796  0.47266  Biso   1.000  N
  H77      1.0000 0.95730  0.89320  0.59900  Biso   1.000  H
  H78      1.0000 0.88180  0.78080  0.36170  Biso   1.000  H
  N64      1.0000 0.40942  0.31796  0.97266  Biso   1.000  N
  H79      1.0000 0.45730  0.39320  0.09900  Biso   1.000  H
  H80      1.0000 0.38180  0.28080  0.86170  Biso   1.000  H
  N65      1.0000 0.18204  0.52734  0.90942  Biso   1.000  N
  H81      1.0000 0.10680  0.40100  0.95730  Biso   1.000  H
  H82      1.0000 0.21920  0.63830  0.88180  Biso   1.000  H
  N66      1.0000 0.68204  0.02734  0.40942  Biso   1.000  N
  H83      1.0000 0.60680  0.90100  0.45730  Biso   1.000  H
  H84      1.0000 0.71920  0.13830  0.38180  Biso   1.000  H
  N67      1.0000 0.18204  0.47266  0.09058  Biso   1.000  N
  H85      1.0000 0.10680  0.59900  0.04270  Biso   1.000  H
  H86      1.0000 0.21920  0.36170  0.11820  Biso   1.000  H
  N68      1.0000 0.68204  0.97266  0.59058  Biso   1.000  N
  H87      1.0000 0.60680  0.09900  0.54270  Biso   1.000  H
  H88      1.0000 0.71920  0.86170  0.61820  Biso   1.000  H
  N69      1.0000 0.81796  0.52734  0.09058  Biso   1.000  N
  H89      1.0000 0.89320  0.40100  0.04270  Biso   1.000  H
  H90      1.0000 0.78080  0.63830  0.11820  Biso   1.000  H
  N70      1.0000 0.31796  0.02734  0.59058  Biso   1.000  N
  H91      1.0000 0.39320  0.90100  0.54270  Biso   1.000  H
  H92      1.0000 0.28080  0.13830  0.61820  Biso   1.000  H
  N71      1.0000 0.81796  0.47266  0.90942  Biso   1.000  N
  H93      1.0000 0.89320  0.59900  0.95730  Biso   1.000  H
  H94      1.0000 0.78080  0.36170  0.88180  Biso   1.000  H
  N72      1.0000 0.31796  0.97266  0.40942  Biso   1.000  N
  H95      1.0000 0.39320  0.09900  0.45730  Biso   1.000  H
  H96      1.0000 0.28080  0.86170  0.38180  Biso   1.000  H
  Zn1      1.0000 0.00000  0.50000  0.25000  Biso   1.000  Zn
  Zn2      1.0000 0.00000  0.50000  0.75000  Biso   1.000  Zn
  Zn3      1.0000 0.25000  0.00000  0.50000  Biso   1.000  Zn
  Zn4      1.0000 0.75000  0.00000  0.50000  Biso   1.000  Zn
  Zn5      1.0000 0.50000  0.25000  0.00000  Biso   1.000  Zn
  Zn6      1.0000 0.50000  0.75000  0.00000  Biso   1.000  Zn
  Zn7      1.0000 0.50000  0.00000  0.25000  Biso   1.000  Zn
  Zn8      1.0000 0.50000  0.00000  0.75000  Biso   1.000  Zn
  Zn9      1.0000 0.00000  0.25000  0.50000  Biso   1.000  Zn
  Zn10     1.0000 0.00000  0.75000  0.50000  Biso   1.000  Zn
  Zn11     1.0000 0.25000  0.50000  0.00000  Biso   1.000  Zn
  Zn12     1.0000 0.75000  0.50000  0.00000  Biso   1.000  Zn
  C25      1.0000 0.87594  0.48840  0.12406  Biso   1.000  C
  C26      1.0000 0.90180  0.40690  0.09820  Biso   1.000  C
  H97      1.0000 0.87340  0.36740  0.12660  Biso   1.000  H
  C27      1.0000 0.37594  0.98840  0.62406  Biso   1.000  C
  C28      1.0000 0.40180  0.90690  0.59820  Biso   1.000  C
  H98      1.0000 0.37340  0.86740  0.62660  Biso   1.000  H
  C29      1.0000 0.12406  0.51160  0.12406  Biso   1.000  C
  C30      1.0000 0.09820  0.59310  0.09820  Biso   1.000  C
  H99      1.0000 0.12660  0.63260  0.12660  Biso   1.000  H
  C31      1.0000 0.62406  0.01160  0.62406  Biso   1.000  C
  C32      1.0000 0.59820  0.09310  0.59820  Biso   1.000  C
  H100     1.0000 0.62660  0.13260  0.62660  Biso   1.000  H
  C33      1.0000 0.12406  0.48840  0.87594  Biso   1.000  C
  C34      1.0000 0.09820  0.40690  0.90180  Biso   1.000  C
  H101     1.0000 0.12660  0.36740  0.87340  Biso   1.000  H
  C35      1.0000 0.62406  0.98840  0.37594  Biso   1.000  C
  C36      1.0000 0.59820  0.90690  0.40180  Biso   1.000  C
  H102     1.0000 0.62660  0.86740  0.37340  Biso   1.000  H
  C37      1.0000 0.87594  0.51160  0.87594  Biso   1.000  C
  C38      1.0000 0.90180  0.59310  0.90180  Biso   1.000  C
  H103     1.0000 0.87340  0.63260  0.87340  Biso   1.000  H
  C39      1.0000 0.37594  0.01160  0.37594  Biso   1.000  C
  C40      1.0000 0.40180  0.09310  0.40180  Biso   1.000  C
  H104     1.0000 0.37340  0.13260  0.37340  Biso   1.000  H
  C41      1.0000 0.12406  0.87594  0.48840  Biso   1.000  C
  C42      1.0000 0.09820  0.90180  0.40690  Biso   1.000  C
  H105     1.0000 0.12660  0.87340  0.36740  Biso   1.000  H
  C43      1.0000 0.62406  0.37594  0.98840  Biso   1.000  C
  C44      1.0000 0.59820  0.40180  0.90690  Biso   1.000  C
  H106     1.0000 0.62660  0.37340  0.86740  Biso   1.000  H
  C45      1.0000 0.12406  0.12406  0.51160  Biso   1.000  C
  C46      1.0000 0.09820  0.09820  0.59310  Biso   1.000  C
  H107     1.0000 0.12660  0.12660  0.63260  Biso   1.000  H
  C47      1.0000 0.62406  0.62406  0.01160  Biso   1.000  C
  C48      1.0000 0.59820  0.59820  0.09310  Biso   1.000  C
  H108     1.0000 0.62660  0.62660  0.13260  Biso   1.000  H
  C49      1.0000 0.87594  0.12406  0.48840  Biso   1.000  C
  C50      1.0000 0.90180  0.09820  0.40690  Biso   1.000  C
  H109     1.0000 0.87340  0.12660  0.36740  Biso   1.000  H
  C51      1.0000 0.37594  0.62406  0.98840  Biso   1.000  C
  C52      1.0000 0.40180  0.59820  0.90690  Biso   1.000  C
  H110     1.0000 0.37340  0.62660  0.86740  Biso   1.000  H
  C53      1.0000 0.87594  0.87594  0.51160  Biso   1.000  C
  C54      1.0000 0.90180  0.90180  0.59310  Biso   1.000  C
  H111     1.0000 0.87340  0.87340  0.63260  Biso   1.000  H
  C55      1.0000 0.37594  0.37594  0.01160  Biso   1.000  C
  C56      1.0000 0.40180  0.40180  0.09310  Biso   1.000  C
  H112     1.0000 0.37340  0.37340  0.13260  Biso   1.000  H
  C57      1.0000 0.48840  0.12406  0.87594  Biso   1.000  C
  C58      1.0000 0.40690  0.09820  0.90180  Biso   1.000  C
  H113     1.0000 0.36740  0.12660  0.87340  Biso   1.000  H
  C59      1.0000 0.98840  0.62406  0.37594  Biso   1.000  C
  C60      1.0000 0.90690  0.59820  0.40180  Biso   1.000  C
  H114     1.0000 0.86740  0.62660  0.37340  Biso   1.000  H
  C61      1.0000 0.51160  0.12406  0.12406  Biso   1.000  C
  C62      1.0000 0.59310  0.09820  0.09820  Biso   1.000  C
  H115     1.0000 0.63260  0.12660  0.12660  Biso   1.000  H
  C63      1.0000 0.01160  0.62406  0.62406  Biso   1.000  C
  C64      1.0000 0.09310  0.59820  0.59820  Biso   1.000  C
  H116     1.0000 0.13260  0.62660  0.62660  Biso   1.000  H
  C65      1.0000 0.48840  0.87594  0.12406  Biso   1.000  C
  C66      1.0000 0.40690  0.90180  0.09820  Biso   1.000  C
  H117     1.0000 0.36740  0.87340  0.12660  Biso   1.000  H
  C67      1.0000 0.98840  0.37594  0.62406  Biso   1.000  C
  C68      1.0000 0.90690  0.40180  0.59820  Biso   1.000  C
  H118     1.0000 0.86740  0.37340  0.62660  Biso   1.000  H
  C69      1.0000 0.51160  0.87594  0.87594  Biso   1.000  C
  C70      1.0000 0.59310  0.90180  0.90180  Biso   1.000  C
  H119     1.0000 0.63260  0.87340  0.87340  Biso   1.000  H
  C71      1.0000 0.01160  0.37594  0.37594  Biso   1.000  C
  C72      1.0000 0.09310  0.40180  0.40180  Biso   1.000  C
  H120     1.0000 0.13260  0.37340  0.37340  Biso   1.000  H
