data_KIFJIT_charged
_audit_creation_date              2014-07-02
_audit_creation_method            'Materials Studio'
_symmetry_space_group_name_H-M    'P1'
_symmetry_Int_Tables_number       1
_symmetry_cell_setting            triclinic
loop_
_symmetry_equiv_pos_as_xyz
  x,y,z
_cell_length_a                    7.6634
_cell_length_b                    9.6825
_cell_length_c                    27.1105
_cell_angle_alpha                 90.0000
_cell_angle_beta                  90.0000
_cell_angle_gamma                 90.0000
loop_
_atom_site_label
_atom_site_type_symbol
_atom_site_fract_x
_atom_site_fract_y
_atom_site_fract_z
_atom_site_U_iso_or_equiv
_atom_site_adp_type
_atom_site_occupancy
Fe1    Fe    0.50000   0.50000   0.94365   0.01267  Uiso   1.00
Fe2    Fe    0.50000   0.50000   0.55635   0.01267  Uiso   1.00
Fe3    Fe    0.50000   0.50000   0.05635   0.01267  Uiso   1.00
Fe4    Fe    0.50000   0.50000   0.44365   0.01267  Uiso   1.00
Ag1    Ag    0.00000   0.00000   0.75000   0.01267  Uiso   1.00
Ag2    Ag    0.00000   0.00000   0.25000   0.01267  Uiso   1.00
H1     H     0.03800   0.62980   0.87750   0.01267  Uiso   1.00
H2     H     0.00600   0.78710   0.89310   0.01267  Uiso   1.00
H3     H     0.03110   0.67130   0.93460   0.01267  Uiso   1.00
H4     H     0.69210   0.21620   0.02400   0.01267  Uiso   1.00
H5     H     0.46470   0.81460   0.79800   0.01267  Uiso   1.00
H6     H     0.29520   0.73210   0.81590   0.01267  Uiso   1.00
H7     H     0.34810   0.87410   0.84210   0.01267  Uiso   1.00
H8     H     0.96200   0.37020   0.87750   0.01267  Uiso   1.00
H9     H     0.99400   0.21290   0.89310   0.01267  Uiso   1.00
H10    H     0.96890   0.32870   0.93460   0.01267  Uiso   1.00
H11    H     0.30790   0.78380   0.02400   0.01267  Uiso   1.00
H12    H     0.53530   0.18540   0.79800   0.01267  Uiso   1.00
H13    H     0.70480   0.26790   0.81590   0.01267  Uiso   1.00
H14    H     0.65190   0.12590   0.84210   0.01267  Uiso   1.00
H15    H     0.96200   0.62980   0.62250   0.01267  Uiso   1.00
H16    H     0.99400   0.78710   0.60690   0.01267  Uiso   1.00
H17    H     0.96890   0.67130   0.56540   0.01267  Uiso   1.00
H18    H     0.30790   0.21620   0.47600   0.01267  Uiso   1.00
H19    H     0.53530   0.81460   0.70200   0.01267  Uiso   1.00
H20    H     0.70480   0.73210   0.68410   0.01267  Uiso   1.00
H21    H     0.65190   0.87410   0.65790   0.01267  Uiso   1.00
H22    H     0.03800   0.37020   0.62250   0.01267  Uiso   1.00
H23    H     0.00600   0.21290   0.60690   0.01267  Uiso   1.00
H24    H     0.03110   0.32870   0.56540   0.01267  Uiso   1.00
H25    H     0.69210   0.78380   0.47600   0.01267  Uiso   1.00
H26    H     0.46470   0.18540   0.70200   0.01267  Uiso   1.00
H27    H     0.29520   0.26790   0.68410   0.01267  Uiso   1.00
H28    H     0.34810   0.12590   0.65790   0.01267  Uiso   1.00
H29    H     0.96200   0.37020   0.12250   0.01267  Uiso   1.00
H30    H     0.99400   0.21290   0.10690   0.01267  Uiso   1.00
H31    H     0.96890   0.32870   0.06540   0.01267  Uiso   1.00
H32    H     0.30790   0.78380   0.97600   0.01267  Uiso   1.00
H33    H     0.53530   0.18540   0.20200   0.01267  Uiso   1.00
H34    H     0.70480   0.26790   0.18410   0.01267  Uiso   1.00
H35    H     0.65190   0.12590   0.15790   0.01267  Uiso   1.00
H36    H     0.03800   0.62980   0.12250   0.01267  Uiso   1.00
H37    H     0.00600   0.78710   0.10690   0.01267  Uiso   1.00
H38    H     0.03110   0.67130   0.06540   0.01267  Uiso   1.00
H39    H     0.69210   0.21620   0.97600   0.01267  Uiso   1.00
H40    H     0.46470   0.81460   0.20200   0.01267  Uiso   1.00
H41    H     0.29520   0.73210   0.18410   0.01267  Uiso   1.00
H42    H     0.34810   0.87410   0.15790   0.01267  Uiso   1.00
H43    H     0.03800   0.37020   0.37750   0.01267  Uiso   1.00
H44    H     0.00600   0.21290   0.39310   0.01267  Uiso   1.00
H45    H     0.03110   0.32870   0.43460   0.01267  Uiso   1.00
H46    H     0.69210   0.78380   0.52400   0.01267  Uiso   1.00
H47    H     0.46470   0.18540   0.29800   0.01267  Uiso   1.00
H48    H     0.29520   0.26790   0.31590   0.01267  Uiso   1.00
H49    H     0.34810   0.12590   0.34210   0.01267  Uiso   1.00
H50    H     0.96200   0.62980   0.37750   0.01267  Uiso   1.00
H51    H     0.99400   0.78710   0.39310   0.01267  Uiso   1.00
H52    H     0.96890   0.67130   0.43460   0.01267  Uiso   1.00
H53    H     0.30790   0.21620   0.52400   0.01267  Uiso   1.00
H54    H     0.53530   0.81460   0.29800   0.01267  Uiso   1.00
H55    H     0.70480   0.73210   0.31590   0.01267  Uiso   1.00
H56    H     0.65190   0.87410   0.34210   0.01267  Uiso   1.00
C1     C     0.98300   0.69060   0.90190   0.01267  Uiso   1.00
C2     C     0.79200   0.66590   0.90230   0.01267  Uiso   1.00
C3     C     0.68440   0.72460   0.86520   0.01267  Uiso   1.00
C4     C     0.50320   0.71070   0.86350   0.01267  Uiso   1.00
C5     C     0.39310   0.78990   0.82660   0.01267  Uiso   1.00
C6     C     0.76710   0.80760   0.82910   0.01267  Uiso   1.00
C7     C     0.01700   0.30940   0.90190   0.01267  Uiso   1.00
C8     C     0.20800   0.33410   0.90230   0.01267  Uiso   1.00
C9     C     0.31560   0.27540   0.86520   0.01267  Uiso   1.00
C10    C     0.49680   0.28930   0.86350   0.01267  Uiso   1.00
C11    C     0.60690   0.21010   0.82660   0.01267  Uiso   1.00
C12    C     0.23290   0.19240   0.82910   0.01267  Uiso   1.00
C13    C     0.01700   0.69060   0.59810   0.01267  Uiso   1.00
C14    C     0.20800   0.66590   0.59770   0.01267  Uiso   1.00
C15    C     0.31560   0.72460   0.63480   0.01267  Uiso   1.00
C16    C     0.49680   0.71070   0.63650   0.01267  Uiso   1.00
C17    C     0.60690   0.78990   0.67340   0.01267  Uiso   1.00
C18    C     0.23290   0.80760   0.67090   0.01267  Uiso   1.00
C19    C     0.98300   0.30940   0.59810   0.01267  Uiso   1.00
C20    C     0.79200   0.33410   0.59770   0.01267  Uiso   1.00
C21    C     0.68440   0.27540   0.63480   0.01267  Uiso   1.00
C22    C     0.50320   0.28930   0.63650   0.01267  Uiso   1.00
C23    C     0.39310   0.21010   0.67340   0.01267  Uiso   1.00
C24    C     0.76710   0.19240   0.67090   0.01267  Uiso   1.00
C25    C     0.01700   0.30940   0.09810   0.01267  Uiso   1.00
C26    C     0.20800   0.33410   0.09770   0.01267  Uiso   1.00
C27    C     0.31560   0.27540   0.13480   0.01267  Uiso   1.00
C28    C     0.49680   0.28930   0.13650   0.01267  Uiso   1.00
C29    C     0.60690   0.21010   0.17340   0.01267  Uiso   1.00
C30    C     0.23290   0.19240   0.17090   0.01267  Uiso   1.00
C31    C     0.98300   0.69060   0.09810   0.01267  Uiso   1.00
C32    C     0.79200   0.66590   0.09770   0.01267  Uiso   1.00
C33    C     0.68440   0.72460   0.13480   0.01267  Uiso   1.00
C34    C     0.50320   0.71070   0.13650   0.01267  Uiso   1.00
C35    C     0.39310   0.78990   0.17340   0.01267  Uiso   1.00
C36    C     0.76710   0.80760   0.17090   0.01267  Uiso   1.00
C37    C     0.98300   0.30940   0.40190   0.01267  Uiso   1.00
C38    C     0.79200   0.33410   0.40230   0.01267  Uiso   1.00
C39    C     0.68440   0.27540   0.36520   0.01267  Uiso   1.00
C40    C     0.50320   0.28930   0.36350   0.01267  Uiso   1.00
C41    C     0.39310   0.21010   0.32660   0.01267  Uiso   1.00
C42    C     0.76710   0.19240   0.32910   0.01267  Uiso   1.00
C43    C     0.01700   0.69060   0.40190   0.01267  Uiso   1.00
C44    C     0.20800   0.66590   0.40230   0.01267  Uiso   1.00
C45    C     0.31560   0.72460   0.36520   0.01267  Uiso   1.00
C46    C     0.49680   0.71070   0.36350   0.01267  Uiso   1.00
C47    C     0.60690   0.78990   0.32660   0.01267  Uiso   1.00
C48    C     0.23290   0.80760   0.32910   0.01267  Uiso   1.00
C49    C     0.60100   0.23990   0.00000   0.01267  Uiso   1.00
C50    C     0.39900   0.76010   0.00000   0.01267  Uiso   1.00
C51    C     0.39900   0.23990   0.50000   0.01267  Uiso   1.00
C52    C     0.60100   0.76010   0.50000   0.01267  Uiso   1.00
N1     N     0.83450   0.87130   0.79840   0.01267  Uiso   1.00
N2     N     0.16550   0.12870   0.79840   0.01267  Uiso   1.00
N3     N     0.16550   0.87130   0.70160   0.01267  Uiso   1.00
N4     N     0.83450   0.12870   0.70160   0.01267  Uiso   1.00
N5     N     0.16550   0.12870   0.20160   0.01267  Uiso   1.00
N6     N     0.83450   0.87130   0.20160   0.01267  Uiso   1.00
N7     N     0.83450   0.12870   0.29840   0.01267  Uiso   1.00
N8     N     0.16550   0.87130   0.29840   0.01267  Uiso   1.00
O1     O     0.73470   0.58860   0.93563   0.01267  Uiso   1.00
O2     O     0.41770   0.63720   0.89281   0.01267  Uiso   1.00
O3     O     0.26530   0.41140   0.93563   0.01267  Uiso   1.00
O4     O     0.58230   0.36280   0.89281   0.01267  Uiso   1.00
O5     O     0.26530   0.58860   0.56437   0.01267  Uiso   1.00
O6     O     0.58230   0.63720   0.60719   0.01267  Uiso   1.00
O7     O     0.73470   0.41140   0.56437   0.01267  Uiso   1.00
O8     O     0.41770   0.36280   0.60719   0.01267  Uiso   1.00
O9     O     0.26530   0.41140   0.06437   0.01267  Uiso   1.00
O10    O     0.58230   0.36280   0.10719   0.01267  Uiso   1.00
O11    O     0.73470   0.58860   0.06437   0.01267  Uiso   1.00
O12    O     0.41770   0.63720   0.10719   0.01267  Uiso   1.00
O13    O     0.73470   0.41140   0.43563   0.01267  Uiso   1.00
O14    O     0.41770   0.36280   0.39281   0.01267  Uiso   1.00
O15    O     0.26530   0.58860   0.43563   0.01267  Uiso   1.00
O16    O     0.58230   0.63720   0.39281   0.01267  Uiso   1.00
O17    O     0.57480   0.38650   0.00000   0.01267  Uiso   1.00
O18    O     0.42520   0.61350   0.00000   0.01267  Uiso   1.00
O19    O     0.42520   0.38650   0.50000   0.01267  Uiso   1.00
O20    O     0.57480   0.61350   0.50000   0.01267  Uiso   1.00
