data_image0
_cell_length_a       10.441
_cell_length_b       17.5711
_cell_length_c       17.5711
_cell_angle_alpha    115.282
_cell_angle_beta     96.3301
_cell_angle_gamma    83.6699

_symmetry_space_group_name_H-M    P 1
_symmetry_int_tables_number       1

loop_
  _symmetry_equiv_pos_as_xyz
  'x, y, z'

loop_
  _atom_site_label
  _atom_site_occupancy
  _atom_site_fract_x
  _atom_site_fract_y
  _atom_site_fract_z
  _atom_site_thermal_displace_type
  _atom_site_B_iso_or_equiv
  _atom_site_type_symbol
  Co1      1.0000 0.51133  0.21219  0.04465  Biso   1.000  Co
  Co2      1.0000 0.98867  0.04465  0.21219  Biso   1.000  Co
  Co3      1.0000 0.48867  0.78781  0.95535  Biso   1.000  Co
  Co4      1.0000 0.01133  0.95535  0.78781  Biso   1.000  Co
  Co5      1.0000 0.75000  0.23479  0.23479  Biso   1.000  Co
  Co6      1.0000 0.25000  0.76521  0.76521  Biso   1.000  Co
  H1       1.0000 0.29280  0.15180  0.02800  Biso   1.000  H
  H2       1.0000 0.38270  0.09510  0.03910  Biso   1.000  H
  H3       1.0000 0.49330  0.05370  0.92950  Biso   1.000  H
  H4       1.0000 0.59650  0.09630  0.91250  Biso   1.000  H
  H5       1.0000 0.85070  0.35290  0.48470  Biso   1.000  H
  H6       1.0000 0.89190  0.41060  0.62880  Biso   1.000  H
  H7       1.0000 0.16880  0.23260  0.60780  Biso   1.000  H
  H8       1.0000 0.12950  0.17450  0.46290  Biso   1.000  H
  H9       1.0000 0.99910  0.24020  0.72300  Biso   1.000  H
  H10      1.0000 0.07610  0.18330  0.81690  Biso   1.000  H
  H11      1.0000 0.33800  0.35650  0.91530  Biso   1.000  H
  H12      1.0000 0.25830  0.41310  0.82110  Biso   1.000  H
  H13      1.0000 0.51640  0.38070  0.03970  Biso   1.000  H
  H14      1.0000 0.63270  0.45820  0.99920  Biso   1.000  H
  H15      1.0000 0.91010  0.26950  0.93670  Biso   1.000  H
  H16      1.0000 0.78620  0.19690  0.97890  Biso   1.000  H
  H17      1.0000 0.94570  0.39840  0.91820  Biso   1.000  H
  H18      1.0000 0.78760  0.61540  0.91520  Biso   1.000  H
  H19      1.0000 0.84120  0.73680  0.88400  Biso   1.000  H
  H20      1.0000 0.09040  0.53570  0.82770  Biso   1.000  H
  H21      1.0000 0.22410  0.60190  0.78570  Biso   1.000  H
  H22      1.0000 0.98230  0.79690  0.83850  Biso   1.000  H
  H23      1.0000 0.20720  0.02800  0.15180  Biso   1.000  H
  H24      1.0000 0.11730  0.03910  0.09510  Biso   1.000  H
  H25      1.0000 0.00670  0.92950  0.05370  Biso   1.000  H
  H26      1.0000 0.90350  0.91250  0.09630  Biso   1.000  H
  H27      1.0000 0.64930  0.48470  0.35290  Biso   1.000  H
  H28      1.0000 0.60810  0.62880  0.41060  Biso   1.000  H
  H29      1.0000 0.33120  0.60780  0.23260  Biso   1.000  H
  H30      1.0000 0.37050  0.46290  0.17450  Biso   1.000  H
  H31      1.0000 0.50090  0.72300  0.24020  Biso   1.000  H
  H32      1.0000 0.42390  0.81690  0.18330  Biso   1.000  H
  H33      1.0000 0.16200  0.91530  0.35650  Biso   1.000  H
  H34      1.0000 0.24170  0.82110  0.41310  Biso   1.000  H
  H35      1.0000 0.98360  0.03970  0.38070  Biso   1.000  H
  H36      1.0000 0.86730  0.99920  0.45820  Biso   1.000  H
  H37      1.0000 0.58990  0.93670  0.26950  Biso   1.000  H
  H38      1.0000 0.71380  0.97890  0.19690  Biso   1.000  H
  H39      1.0000 0.55430  0.91820  0.39840  Biso   1.000  H
  H40      1.0000 0.71240  0.91520  0.61540  Biso   1.000  H
  H41      1.0000 0.65880  0.88400  0.73680  Biso   1.000  H
  H42      1.0000 0.40960  0.82770  0.53570  Biso   1.000  H
  H43      1.0000 0.27590  0.78570  0.60190  Biso   1.000  H
  H44      1.0000 0.51770  0.83850  0.79690  Biso   1.000  H
  H45      1.0000 0.70720  0.84820  0.97200  Biso   1.000  H
  H46      1.0000 0.61730  0.90490  0.96090  Biso   1.000  H
  H47      1.0000 0.50670  0.94630  0.07050  Biso   1.000  H
  H48      1.0000 0.40350  0.90370  0.08750  Biso   1.000  H
  H49      1.0000 0.14930  0.64710  0.51530  Biso   1.000  H
  H50      1.0000 0.10810  0.58940  0.37120  Biso   1.000  H
  H51      1.0000 0.83120  0.76740  0.39220  Biso   1.000  H
  H52      1.0000 0.87050  0.82550  0.53710  Biso   1.000  H
  H53      1.0000 0.00090  0.75980  0.27700  Biso   1.000  H
  H54      1.0000 0.92390  0.81670  0.18310  Biso   1.000  H
  H55      1.0000 0.66200  0.64350  0.08470  Biso   1.000  H
  H56      1.0000 0.74170  0.58690  0.17890  Biso   1.000  H
  H57      1.0000 0.48360  0.61930  0.96030  Biso   1.000  H
  H58      1.0000 0.36730  0.54180  0.00080  Biso   1.000  H
  H59      1.0000 0.08990  0.73050  0.06330  Biso   1.000  H
  H60      1.0000 0.21380  0.80310  0.02110  Biso   1.000  H
  H61      1.0000 0.05430  0.60160  0.08180  Biso   1.000  H
  H62      1.0000 0.21240  0.38460  0.08480  Biso   1.000  H
  H63      1.0000 0.15880  0.26320  0.11600  Biso   1.000  H
  H64      1.0000 0.90960  0.46430  0.17230  Biso   1.000  H
  H65      1.0000 0.77590  0.39810  0.21430  Biso   1.000  H
  H66      1.0000 0.01770  0.20310  0.16150  Biso   1.000  H
  H67      1.0000 0.79280  0.97200  0.84820  Biso   1.000  H
  H68      1.0000 0.88270  0.96090  0.90490  Biso   1.000  H
  H69      1.0000 0.99330  0.07050  0.94630  Biso   1.000  H
  H70      1.0000 0.09650  0.08750  0.90370  Biso   1.000  H
  H71      1.0000 0.35070  0.51530  0.64710  Biso   1.000  H
  H72      1.0000 0.39190  0.37120  0.58940  Biso   1.000  H
  H73      1.0000 0.66880  0.39220  0.76740  Biso   1.000  H
  H74      1.0000 0.62950  0.53710  0.82550  Biso   1.000  H
  H75      1.0000 0.49910  0.27700  0.75980  Biso   1.000  H
  H76      1.0000 0.57610  0.18310  0.81670  Biso   1.000  H
  H77      1.0000 0.83800  0.08470  0.64350  Biso   1.000  H
  H78      1.0000 0.75830  0.17890  0.58690  Biso   1.000  H
  H79      1.0000 0.01640  0.96030  0.61930  Biso   1.000  H
  H80      1.0000 0.13270  0.00080  0.54180  Biso   1.000  H
  H81      1.0000 0.41010  0.06330  0.73050  Biso   1.000  H
  H82      1.0000 0.28620  0.02110  0.80310  Biso   1.000  H
  H83      1.0000 0.44570  0.08180  0.60160  Biso   1.000  H
  H84      1.0000 0.28760  0.08480  0.38460  Biso   1.000  H
  H85      1.0000 0.34120  0.11600  0.26320  Biso   1.000  H
  H86      1.0000 0.59040  0.17230  0.46430  Biso   1.000  H
  H87      1.0000 0.72410  0.21430  0.39810  Biso   1.000  H
  H88      1.0000 0.48230  0.16150  0.20310  Biso   1.000  H
  C1       1.0000 0.96300  0.22172  0.36328  Biso   1.000  C
  C2       1.0000 0.99290  0.26010  0.45650  Biso   1.000  C
  C3       1.0000 0.91860  0.32946  0.50854  Biso   1.000  C
  C4       1.0000 0.94320  0.36440  0.59480  Biso   1.000  C
  C5       1.0000 0.10770  0.25900  0.58280  Biso   1.000  C
  C6       1.0000 0.08300  0.22406  0.49554  Biso   1.000  C
  C7       1.0000 0.04300  0.33069  0.62991  Biso   1.000  C
  C8       1.0000 0.11940  0.33197  0.76483  Biso   1.000  C
  C9       1.0000 0.06690  0.26380  0.76240  Biso   1.000  C
  C10      1.0000 0.11350  0.22932  0.81788  Biso   1.000  C
  C11      1.0000 0.21670  0.26378  0.87562  Biso   1.000  C
  C12      1.0000 0.26950  0.33282  0.87658  Biso   1.000  C
  C13      1.0000 0.22170  0.36704  0.82076  Biso   1.000  C
  C14      1.0000 0.26920  0.22922  0.93858  Biso   1.000  C
  C15      1.0000 0.59650  0.35800  0.01840  Biso   1.000  C
  C16      1.0000 0.66580  0.40505  0.99415  Biso   1.000  C
  C17      1.0000 0.78550  0.37282  0.96218  Biso   1.000  C
  C18      1.0000 0.83000  0.29326  0.95714  Biso   1.000  C
  C19      1.0000 0.75480  0.24992  0.98268  Biso   1.000  C
  C20      1.0000 0.86250  0.41974  0.93426  Biso   1.000  C
  C21      1.0000 0.86850  0.59013  0.89747  Biso   1.000  C
  C22      1.0000 0.95250  0.63006  0.86474  Biso   1.000  C
  C23      1.0000 0.92000  0.70826  0.86534  Biso   1.000  C
  C24      1.0000 0.06670  0.59003  0.83237  Biso   1.000  C
  C25      1.0000 0.14640  0.63033  0.80687  Biso   1.000  C
  C26      1.0000 0.00600  0.74405  0.83775  Biso   1.000  C
  C27      1.0000 0.53700  0.36328  0.22172  Biso   1.000  C
  C28      1.0000 0.50710  0.45650  0.26010  Biso   1.000  C
  C29      1.0000 0.58140  0.50854  0.32946  Biso   1.000  C
  C30      1.0000 0.55680  0.59480  0.36440  Biso   1.000  C
  C31      1.0000 0.39230  0.58280  0.25900  Biso   1.000  C
  C32      1.0000 0.41700  0.49554  0.22406  Biso   1.000  C
  C33      1.0000 0.45700  0.62991  0.33069  Biso   1.000  C
  C34      1.0000 0.38060  0.76483  0.33197  Biso   1.000  C
  C35      1.0000 0.43310  0.76240  0.26380  Biso   1.000  C
  C36      1.0000 0.38650  0.81788  0.22932  Biso   1.000  C
  C37      1.0000 0.28330  0.87562  0.26378  Biso   1.000  C
  C38      1.0000 0.23050  0.87658  0.33282  Biso   1.000  C
  C39      1.0000 0.27830  0.82076  0.36704  Biso   1.000  C
  C40      1.0000 0.23080  0.93858  0.22922  Biso   1.000  C
  C41      1.0000 0.90350  0.01840  0.35800  Biso   1.000  C
  C42      1.0000 0.83420  0.99415  0.40505  Biso   1.000  C
  C43      1.0000 0.71450  0.96218  0.37282  Biso   1.000  C
  C44      1.0000 0.67000  0.95714  0.29326  Biso   1.000  C
  C45      1.0000 0.74520  0.98268  0.24992  Biso   1.000  C
  C46      1.0000 0.63750  0.93426  0.41974  Biso   1.000  C
  C47      1.0000 0.63150  0.89747  0.59013  Biso   1.000  C
  C48      1.0000 0.54750  0.86474  0.63006  Biso   1.000  C
  C49      1.0000 0.58000  0.86534  0.70826  Biso   1.000  C
  C50      1.0000 0.43330  0.83237  0.59003  Biso   1.000  C
  C51      1.0000 0.35360  0.80687  0.63033  Biso   1.000  C
  C52      1.0000 0.49400  0.83775  0.74405  Biso   1.000  C
  C53      1.0000 0.03700  0.77828  0.63672  Biso   1.000  C
  C54      1.0000 0.00710  0.73990  0.54350  Biso   1.000  C
  C55      1.0000 0.08140  0.67054  0.49146  Biso   1.000  C
  C56      1.0000 0.05680  0.63560  0.40520  Biso   1.000  C
  C57      1.0000 0.89230  0.74100  0.41720  Biso   1.000  C
  C58      1.0000 0.91700  0.77594  0.50446  Biso   1.000  C
  C59      1.0000 0.95700  0.66931  0.37009  Biso   1.000  C
  C60      1.0000 0.88060  0.66803  0.23517  Biso   1.000  C
  C61      1.0000 0.93310  0.73620  0.23760  Biso   1.000  C
  C62      1.0000 0.88650  0.77068  0.18212  Biso   1.000  C
  C63      1.0000 0.78330  0.73622  0.12438  Biso   1.000  C
  C64      1.0000 0.73050  0.66718  0.12342  Biso   1.000  C
  C65      1.0000 0.77830  0.63296  0.17924  Biso   1.000  C
  C66      1.0000 0.73080  0.77078  0.06142  Biso   1.000  C
  C67      1.0000 0.40350  0.64200  0.98160  Biso   1.000  C
  C68      1.0000 0.33420  0.59495  0.00585  Biso   1.000  C
  C69      1.0000 0.21450  0.62718  0.03782  Biso   1.000  C
  C70      1.0000 0.17000  0.70674  0.04286  Biso   1.000  C
  C71      1.0000 0.24520  0.75008  0.01732  Biso   1.000  C
  C72      1.0000 0.13750  0.58026  0.06574  Biso   1.000  C
  C73      1.0000 0.13150  0.40987  0.10253  Biso   1.000  C
  C74      1.0000 0.04750  0.36994  0.13526  Biso   1.000  C
  C75      1.0000 0.08000  0.29174  0.13466  Biso   1.000  C
  C76      1.0000 0.93330  0.40997  0.16763  Biso   1.000  C
  C77      1.0000 0.85360  0.36967  0.19313  Biso   1.000  C
  C78      1.0000 0.99400  0.25595  0.16225  Biso   1.000  C
  C79      1.0000 0.46300  0.63672  0.77828  Biso   1.000  C
  C80      1.0000 0.49290  0.54350  0.73990  Biso   1.000  C
  C81      1.0000 0.41860  0.49146  0.67054  Biso   1.000  C
  C82      1.0000 0.44320  0.40520  0.63560  Biso   1.000  C
  C83      1.0000 0.60770  0.41720  0.74100  Biso   1.000  C
  C84      1.0000 0.58300  0.50446  0.77594  Biso   1.000  C
  C85      1.0000 0.54300  0.37009  0.66931  Biso   1.000  C
  C86      1.0000 0.61940  0.23517  0.66803  Biso   1.000  C
  C87      1.0000 0.56690  0.23760  0.73620  Biso   1.000  C
  C88      1.0000 0.61350  0.18212  0.77068  Biso   1.000  C
  C89      1.0000 0.71670  0.12438  0.73622  Biso   1.000  C
  C90      1.0000 0.76950  0.12342  0.66718  Biso   1.000  C
  C91      1.0000 0.72170  0.17924  0.63296  Biso   1.000  C
  C92      1.0000 0.76920  0.06142  0.77078  Biso   1.000  C
  C93      1.0000 0.09650  0.98160  0.64200  Biso   1.000  C
  C94      1.0000 0.16580  0.00585  0.59495  Biso   1.000  C
  C95      1.0000 0.28550  0.03782  0.62718  Biso   1.000  C
  C96      1.0000 0.33000  0.04286  0.70674  Biso   1.000  C
  C97      1.0000 0.25480  0.01732  0.75008  Biso   1.000  C
  C98      1.0000 0.36250  0.06574  0.58026  Biso   1.000  C
  C99      1.0000 0.36850  0.10253  0.40987  Biso   1.000  C
  C100     1.0000 0.45250  0.13526  0.36994  Biso   1.000  C
  C101     1.0000 0.42000  0.13466  0.29174  Biso   1.000  C
  C102     1.0000 0.56670  0.16763  0.40997  Biso   1.000  C
  C103     1.0000 0.64640  0.19313  0.36967  Biso   1.000  C
  C104     1.0000 0.50600  0.16225  0.25595  Biso   1.000  C
  S1       1.0000 0.75000  0.08429  0.08429  Biso   1.000  S
  S2       1.0000 0.25000  0.91571  0.91571  Biso   1.000  S
  N1       1.0000 0.63910  0.28054  0.01272  Biso   1.000  N
  N2       1.0000 0.81830  0.48872  0.93128  Biso   1.000  N
  N3       1.0000 0.90860  0.52102  0.90078  Biso   1.000  N
  N4       1.0000 0.11950  0.70758  0.81044  Biso   1.000  N
  N5       1.0000 0.86090  0.01272  0.28054  Biso   1.000  N
  N6       1.0000 0.68170  0.93128  0.48872  Biso   1.000  N
  N7       1.0000 0.59140  0.90078  0.52102  Biso   1.000  N
  N8       1.0000 0.38050  0.81044  0.70758  Biso   1.000  N
  N9       1.0000 0.36090  0.71946  0.98728  Biso   1.000  N
  N10      1.0000 0.18170  0.51128  0.06872  Biso   1.000  N
  N11      1.0000 0.09140  0.47898  0.09922  Biso   1.000  N
  N12      1.0000 0.88050  0.29242  0.18956  Biso   1.000  N
  N13      1.0000 0.13910  0.98728  0.71946  Biso   1.000  N
  N14      1.0000 0.31830  0.06872  0.51128  Biso   1.000  N
  N15      1.0000 0.40860  0.09922  0.47898  Biso   1.000  N
  N16      1.0000 0.61950  0.18956  0.29242  Biso   1.000  N
  O1       1.0000 0.36810  0.26008  0.98296  Biso   1.000  O
  O2       1.0000 0.21260  0.17314  0.94516  Biso   1.000  O
  O3       1.0000 0.06720  0.37497  0.71647  Biso   1.000  O
  O4       1.0000 0.37000  0.14595  0.06755  Biso   1.000  O
  O5       1.0000 0.52620  0.10061  0.93127  Biso   1.000  O
  O6       1.0000 0.67140  0.16692  0.10376  Biso   1.000  O
  O7       1.0000 0.83390  0.06633  0.01765  Biso   1.000  O
  O8       1.0000 0.87430  0.26034  0.33612  Biso   1.000  O
  O9       1.0000 0.02340  0.15354  0.31940  Biso   1.000  O
  O10      1.0000 0.13190  0.98296  0.26008  Biso   1.000  O
  O11      1.0000 0.28740  0.94516  0.17314  Biso   1.000  O
  O12      1.0000 0.43280  0.71647  0.37497  Biso   1.000  O
  O13      1.0000 0.13000  0.06755  0.14595  Biso   1.000  O
  O14      1.0000 0.97380  0.93127  0.10061  Biso   1.000  O
  O15      1.0000 0.82860  0.10376  0.16692  Biso   1.000  O
  O16      1.0000 0.66610  0.01765  0.06633  Biso   1.000  O
  O17      1.0000 0.62570  0.33612  0.26034  Biso   1.000  O
  O18      1.0000 0.47660  0.31940  0.15354  Biso   1.000  O
  O19      1.0000 0.63190  0.73992  0.01704  Biso   1.000  O
  O20      1.0000 0.78740  0.82686  0.05484  Biso   1.000  O
  O21      1.0000 0.93280  0.62503  0.28353  Biso   1.000  O
  O22      1.0000 0.63000  0.85405  0.93245  Biso   1.000  O
  O23      1.0000 0.47380  0.89939  0.06873  Biso   1.000  O
  O24      1.0000 0.32860  0.83308  0.89624  Biso   1.000  O
  O25      1.0000 0.16610  0.93367  0.98235  Biso   1.000  O
  O26      1.0000 0.12570  0.73966  0.66388  Biso   1.000  O
  O27      1.0000 0.97660  0.84646  0.68060  Biso   1.000  O
  O28      1.0000 0.86810  0.01704  0.73992  Biso   1.000  O
  O29      1.0000 0.71260  0.05484  0.82686  Biso   1.000  O
  O30      1.0000 0.56720  0.28353  0.62503  Biso   1.000  O
  O31      1.0000 0.87000  0.93245  0.85405  Biso   1.000  O
  O32      1.0000 0.02620  0.06873  0.89939  Biso   1.000  O
  O33      1.0000 0.17140  0.89624  0.83308  Biso   1.000  O
  O34      1.0000 0.33390  0.98235  0.93367  Biso   1.000  O
  O35      1.0000 0.37430  0.66388  0.73966  Biso   1.000  O
  O36      1.0000 0.52340  0.68060  0.84646  Biso   1.000  O
