data_image0
_cell_length_a       10.435
_cell_length_b       17.4807
_cell_length_c       17.4807
_cell_angle_alpha    120
_cell_angle_beta     90
_cell_angle_gamma    90

_symmetry_space_group_name_H-M    P 1
_symmetry_int_tables_number       1

loop_
  _symmetry_equiv_pos_as_xyz
  'x, y, z'

loop_
  _atom_site_label
  _atom_site_occupancy
  _atom_site_fract_x
  _atom_site_fract_y
  _atom_site_fract_z
  _atom_site_thermal_displace_type
  _atom_site_B_iso_or_equiv
  _atom_site_type_symbol
  Zn1      1.0000 0.91201  0.53519  0.07126  Biso   1.000  Zn
  Zn2      1.0000 0.57868  0.53607  0.46481  Biso   1.000  Zn
  Zn3      1.0000 0.24534  0.92874  0.46393  Biso   1.000  Zn
  Zn4      1.0000 0.41201  0.46481  0.92874  Biso   1.000  Zn
  Zn5      1.0000 0.07868  0.46393  0.53519  Biso   1.000  Zn
  Zn6      1.0000 0.74534  0.07126  0.53607  Biso   1.000  Zn
  H1       1.0000 0.92580  0.34750  0.92640  Biso   1.000  H
  H2       1.0000 0.00900  0.47000  0.91930  Biso   1.000  H
  H3       1.0000 0.20370  0.46950  0.69240  Biso   1.000  H
  H4       1.0000 0.16640  0.51680  0.83860  Biso   1.000  H
  H5       1.0000 0.82460  0.60750  0.81630  Biso   1.000  H
  H6       1.0000 0.87300  0.56100  0.67100  Biso   1.000  H
  H7       1.0000 0.02870  0.62070  0.97580  Biso   1.000  H
  H8       1.0000 0.88210  0.62370  0.95720  Biso   1.000  H
  H9       1.0000 0.80890  0.47360  0.84530  Biso   1.000  H
  H10      1.0000 0.78190  0.31750  0.82100  Biso   1.000  H
  H11      1.0000 0.90100  0.36920  0.72660  Biso   1.000  H
  H12      1.0000 0.89380  0.26930  0.70000  Biso   1.000  H
  H13      1.0000 0.01440  0.32570  0.75000  Biso   1.000  H
  H14      1.0000 0.98640  0.35260  0.17690  Biso   1.000  H
  H15      1.0000 0.89670  0.27800  0.10800  Biso   1.000  H
  H16      1.0000 0.83740  0.36110  0.18970  Biso   1.000  H
  H17      1.0000 0.59247  0.57890  0.65250  Biso   1.000  H
  H18      1.0000 0.67567  0.44930  0.53000  Biso   1.000  H
  H19      1.0000 0.87037  0.22290  0.53050  Biso   1.000  H
  H20      1.0000 0.83307  0.32180  0.48320  Biso   1.000  H
  H21      1.0000 0.49127  0.20880  0.39250  Biso   1.000  H
  H22      1.0000 0.53967  0.11000  0.43900  Biso   1.000  H
  H23      1.0000 0.69537  0.35510  0.37930  Biso   1.000  H
  H24      1.0000 0.54877  0.33350  0.37630  Biso   1.000  H
  H25      1.0000 0.47557  0.37170  0.52640  Biso   1.000  H
  H26      1.0000 0.44857  0.50350  0.68250  Biso   1.000  H
  H27      1.0000 0.56767  0.35740  0.63080  Biso   1.000  H
  H28      1.0000 0.56047  0.43070  0.73070  Biso   1.000  H
  H29      1.0000 0.68107  0.42430  0.67430  Biso   1.000  H
  H30      1.0000 0.65307  0.82430  0.64740  Biso   1.000  H
  H31      1.0000 0.56337  0.83000  0.72200  Biso   1.000  H
  H32      1.0000 0.50407  0.82860  0.63890  Biso   1.000  H
  H33      1.0000 0.25913  0.07360  0.42110  Biso   1.000  H
  H34      1.0000 0.34233  0.08070  0.55070  Biso   1.000  H
  H35      1.0000 0.53703  0.30760  0.77710  Biso   1.000  H
  H36      1.0000 0.49973  0.16140  0.67820  Biso   1.000  H
  H37      1.0000 0.15793  0.18370  0.79120  Biso   1.000  H
  H38      1.0000 0.20633  0.32900  0.89000  Biso   1.000  H
  H39      1.0000 0.36203  0.02420  0.64490  Biso   1.000  H
  H40      1.0000 0.21543  0.04280  0.66650  Biso   1.000  H
  H41      1.0000 0.14223  0.15470  0.62830  Biso   1.000  H
  H42      1.0000 0.11523  0.17900  0.49650  Biso   1.000  H
  H43      1.0000 0.23433  0.27340  0.64260  Biso   1.000  H
  H44      1.0000 0.22713  0.30000  0.56930  Biso   1.000  H
  H45      1.0000 0.34773  0.25000  0.57570  Biso   1.000  H
  H46      1.0000 0.31973  0.82310  0.17570  Biso   1.000  H
  H47      1.0000 0.23003  0.89200  0.17000  Biso   1.000  H
  H48      1.0000 0.17073  0.81030  0.17140  Biso   1.000  H
  H49      1.0000 0.42580  0.65250  0.07360  Biso   1.000  H
  H50      1.0000 0.50900  0.53000  0.08070  Biso   1.000  H
  H51      1.0000 0.70370  0.53050  0.30760  Biso   1.000  H
  H52      1.0000 0.66640  0.48320  0.16140  Biso   1.000  H
  H53      1.0000 0.32460  0.39250  0.18370  Biso   1.000  H
  H54      1.0000 0.37300  0.43900  0.32900  Biso   1.000  H
  H55      1.0000 0.52870  0.37930  0.02420  Biso   1.000  H
  H56      1.0000 0.38210  0.37630  0.04280  Biso   1.000  H
  H57      1.0000 0.30890  0.52640  0.15470  Biso   1.000  H
  H58      1.0000 0.28190  0.68250  0.17900  Biso   1.000  H
  H59      1.0000 0.40100  0.63080  0.27340  Biso   1.000  H
  H60      1.0000 0.39380  0.73070  0.30000  Biso   1.000  H
  H61      1.0000 0.51440  0.67430  0.25000  Biso   1.000  H
  H62      1.0000 0.48640  0.64740  0.82310  Biso   1.000  H
  H63      1.0000 0.39670  0.72200  0.89200  Biso   1.000  H
  H64      1.0000 0.33740  0.63890  0.81030  Biso   1.000  H
  H65      1.0000 0.09247  0.42110  0.34750  Biso   1.000  H
  H66      1.0000 0.17567  0.55070  0.47000  Biso   1.000  H
  H67      1.0000 0.37037  0.77710  0.46950  Biso   1.000  H
  H68      1.0000 0.33307  0.67820  0.51680  Biso   1.000  H
  H69      1.0000 0.99127  0.79120  0.60750  Biso   1.000  H
  H70      1.0000 0.03967  0.89000  0.56100  Biso   1.000  H
  H71      1.0000 0.19537  0.64490  0.62070  Biso   1.000  H
  H72      1.0000 0.04877  0.66650  0.62370  Biso   1.000  H
  H73      1.0000 0.97557  0.62830  0.47360  Biso   1.000  H
  H74      1.0000 0.94857  0.49650  0.31750  Biso   1.000  H
  H75      1.0000 0.06767  0.64260  0.36920  Biso   1.000  H
  H76      1.0000 0.06047  0.56930  0.26930  Biso   1.000  H
  H77      1.0000 0.18107  0.57570  0.32570  Biso   1.000  H
  H78      1.0000 0.15307  0.17570  0.35260  Biso   1.000  H
  H79      1.0000 0.06337  0.17000  0.27800  Biso   1.000  H
  H80      1.0000 0.00407  0.17140  0.36110  Biso   1.000  H
  H81      1.0000 0.75913  0.92640  0.57890  Biso   1.000  H
  H82      1.0000 0.84233  0.91930  0.44930  Biso   1.000  H
  H83      1.0000 0.03703  0.69240  0.22290  Biso   1.000  H
  H84      1.0000 0.99973  0.83860  0.32180  Biso   1.000  H
  H85      1.0000 0.65793  0.81630  0.20880  Biso   1.000  H
  H86      1.0000 0.70633  0.67100  0.11000  Biso   1.000  H
  H87      1.0000 0.86203  0.97580  0.35510  Biso   1.000  H
  H88      1.0000 0.71543  0.95720  0.33350  Biso   1.000  H
  H89      1.0000 0.64223  0.84530  0.37170  Biso   1.000  H
  H90      1.0000 0.61523  0.82100  0.50350  Biso   1.000  H
  H91      1.0000 0.73433  0.72660  0.35740  Biso   1.000  H
  H92      1.0000 0.72713  0.70000  0.43070  Biso   1.000  H
  H93      1.0000 0.84773  0.75000  0.42430  Biso   1.000  H
  H94      1.0000 0.81973  0.17690  0.82430  Biso   1.000  H
  H95      1.0000 0.73003  0.10800  0.83000  Biso   1.000  H
  H96      1.0000 0.67073  0.18970  0.82860  Biso   1.000  H
  C1       1.0000 0.12640  0.49740  0.71750  Biso   1.000  C
  C2       1.0000 0.10430  0.52520  0.80530  Biso   1.000  C
  C3       1.0000 0.98920  0.56570  0.84400  Biso   1.000  C
  C4       1.0000 0.90220  0.57940  0.79260  Biso   1.000  C
  C5       1.0000 0.93180  0.55070  0.70480  Biso   1.000  C
  C6       1.0000 0.95860  0.58740  0.93700  Biso   1.000  C
  C7       1.0000 0.82810  0.45290  0.88690  Biso   1.000  C
  C8       1.0000 0.70890  0.46890  0.94390  Biso   1.000  C
  C9       1.0000 0.86030  0.35220  0.83120  Biso   1.000  C
  C10      1.0000 0.92310  0.32680  0.74410  Biso   1.000  C
  C11      1.0000 0.89900  0.38610  0.09580  Biso   1.000  C
  C12      1.0000 0.90540  0.34050  0.14700  Biso   1.000  C
  C13      1.0000 0.79307  0.22010  0.50260  Biso   1.000  C
  C14      1.0000 0.77097  0.28010  0.47480  Biso   1.000  C
  C15      1.0000 0.65587  0.27830  0.43430  Biso   1.000  C
  C16      1.0000 0.56887  0.21320  0.42060  Biso   1.000  C
  C17      1.0000 0.59847  0.15410  0.44930  Biso   1.000  C
  C18      1.0000 0.62527  0.34960  0.41260  Biso   1.000  C
  C19      1.0000 0.49477  0.43400  0.54710  Biso   1.000  C
  C20      1.0000 0.37557  0.47500  0.53110  Biso   1.000  C
  C21      1.0000 0.52697  0.47900  0.64780  Biso   1.000  C
  C22      1.0000 0.58977  0.41730  0.67320  Biso   1.000  C
  C23      1.0000 0.56567  0.70970  0.61390  Biso   1.000  C
  C24      1.0000 0.57207  0.80650  0.65950  Biso   1.000  C
  C25      1.0000 0.45973  0.28250  0.77990  Biso   1.000  C
  C26      1.0000 0.43763  0.19470  0.71990  Biso   1.000  C
  C27      1.0000 0.32253  0.15600  0.72170  Biso   1.000  C
  C28      1.0000 0.23553  0.20740  0.78680  Biso   1.000  C
  C29      1.0000 0.26513  0.29520  0.84590  Biso   1.000  C
  C30      1.0000 0.29193  0.06300  0.65040  Biso   1.000  C
  C31      1.0000 0.16143  0.11310  0.56600  Biso   1.000  C
  C32      1.0000 0.04223  0.05610  0.52500  Biso   1.000  C
  C33      1.0000 0.19363  0.16880  0.52100  Biso   1.000  C
  C34      1.0000 0.25643  0.25590  0.58270  Biso   1.000  C
  C35      1.0000 0.23233  0.90420  0.29030  Biso   1.000  C
  C36      1.0000 0.23873  0.85300  0.19350  Biso   1.000  C
  C37      1.0000 0.62640  0.50260  0.28250  Biso   1.000  C
  C38      1.0000 0.60430  0.47480  0.19470  Biso   1.000  C
  C39      1.0000 0.48920  0.43430  0.15600  Biso   1.000  C
  C40      1.0000 0.40220  0.42060  0.20740  Biso   1.000  C
  C41      1.0000 0.43180  0.44930  0.29520  Biso   1.000  C
  C42      1.0000 0.45860  0.41260  0.06300  Biso   1.000  C
  C43      1.0000 0.32810  0.54710  0.11310  Biso   1.000  C
  C44      1.0000 0.20890  0.53110  0.05610  Biso   1.000  C
  C45      1.0000 0.36030  0.64780  0.16880  Biso   1.000  C
  C46      1.0000 0.42310  0.67320  0.25590  Biso   1.000  C
  C47      1.0000 0.39900  0.61390  0.90420  Biso   1.000  C
  C48      1.0000 0.40540  0.65950  0.85300  Biso   1.000  C
  C49      1.0000 0.29307  0.77990  0.49740  Biso   1.000  C
  C50      1.0000 0.27097  0.71990  0.52520  Biso   1.000  C
  C51      1.0000 0.15587  0.72170  0.56570  Biso   1.000  C
  C52      1.0000 0.06887  0.78680  0.57940  Biso   1.000  C
  C53      1.0000 0.09847  0.84590  0.55070  Biso   1.000  C
  C54      1.0000 0.12527  0.65040  0.58740  Biso   1.000  C
  C55      1.0000 0.99477  0.56600  0.45290  Biso   1.000  C
  C56      1.0000 0.87557  0.52500  0.46890  Biso   1.000  C
  C57      1.0000 0.02697  0.52100  0.35220  Biso   1.000  C
  C58      1.0000 0.08977  0.58270  0.32680  Biso   1.000  C
  C59      1.0000 0.06567  0.29030  0.38610  Biso   1.000  C
  C60      1.0000 0.07207  0.19350  0.34050  Biso   1.000  C
  C61      1.0000 0.95973  0.71750  0.22010  Biso   1.000  C
  C62      1.0000 0.93763  0.80530  0.28010  Biso   1.000  C
  C63      1.0000 0.82253  0.84400  0.27830  Biso   1.000  C
  C64      1.0000 0.73553  0.79260  0.21320  Biso   1.000  C
  C65      1.0000 0.76513  0.70480  0.15410  Biso   1.000  C
  C66      1.0000 0.79193  0.93700  0.34960  Biso   1.000  C
  C67      1.0000 0.66143  0.88690  0.43400  Biso   1.000  C
  C68      1.0000 0.54223  0.94390  0.47500  Biso   1.000  C
  C69      1.0000 0.69363  0.83120  0.47900  Biso   1.000  C
  C70      1.0000 0.75643  0.74410  0.41730  Biso   1.000  C
  C71      1.0000 0.73233  0.09580  0.70970  Biso   1.000  C
  C72      1.0000 0.73873  0.14700  0.80650  Biso   1.000  C
  N1       1.0000 0.04100  0.50880  0.66650  Biso   1.000  N
  N2       1.0000 0.93750  0.50400  0.94060  Biso   1.000  N
  N3       1.0000 0.70767  0.15770  0.49120  Biso   1.000  N
  N4       1.0000 0.60417  0.43660  0.49600  Biso   1.000  N
  N5       1.0000 0.37433  0.33350  0.84230  Biso   1.000  N
  N6       1.0000 0.27083  0.05940  0.56340  Biso   1.000  N
  N7       1.0000 0.54100  0.49120  0.33350  Biso   1.000  N
  N8       1.0000 0.43750  0.49600  0.05940  Biso   1.000  N
  N9       1.0000 0.20767  0.84230  0.50880  Biso   1.000  N
  N10      1.0000 0.10417  0.56340  0.50400  Biso   1.000  N
  N11      1.0000 0.87433  0.66650  0.15770  Biso   1.000  N
  N12      1.0000 0.77083  0.94060  0.43660  Biso   1.000  N
  O1       1.0000 0.71910  0.50950  0.02590  Biso   1.000  O
  O2       1.0000 0.60690  0.43950  0.90100  Biso   1.000  O
  O3       1.0000 0.94980  0.32930  0.87540  Biso   1.000  O
  O4       1.0000 0.90570  0.46400  0.12910  Biso   1.000  O
  O5       1.0000 0.82040  0.33730  0.02240  Biso   1.000  O
  O6       1.0000 0.38577  0.51640  0.49050  Biso   1.000  O
  O7       1.0000 0.27357  0.46150  0.56050  Biso   1.000  O
  O8       1.0000 0.61647  0.54610  0.67070  Biso   1.000  O
  O9       1.0000 0.57237  0.66510  0.53600  Biso   1.000  O
  O10      1.0000 0.48707  0.68510  0.66270  Biso   1.000  O
  O11      1.0000 0.05243  0.97410  0.48360  Biso   1.000  O
  O12      1.0000 0.94023  0.09900  0.53850  Biso   1.000  O
  O13      1.0000 0.28313  0.12460  0.45390  Biso   1.000  O
  O14      1.0000 0.23903  0.87090  0.33490  Biso   1.000  O
  O15      1.0000 0.15373  0.97760  0.31490  Biso   1.000  O
  O16      1.0000 0.21910  0.49050  0.97410  Biso   1.000  O
  O17      1.0000 0.10690  0.56050  0.09900  Biso   1.000  O
  O18      1.0000 0.44980  0.67070  0.12460  Biso   1.000  O
  O19      1.0000 0.40570  0.53600  0.87090  Biso   1.000  O
  O20      1.0000 0.32040  0.66270  0.97760  Biso   1.000  O
  O21      1.0000 0.88577  0.48360  0.50950  Biso   1.000  O
  O22      1.0000 0.77357  0.53850  0.43950  Biso   1.000  O
  O23      1.0000 0.11647  0.45390  0.32930  Biso   1.000  O
  O24      1.0000 0.07237  0.33490  0.46400  Biso   1.000  O
  O25      1.0000 0.98707  0.31490  0.33730  Biso   1.000  O
  O26      1.0000 0.55243  0.02590  0.51640  Biso   1.000  O
  O27      1.0000 0.44023  0.90100  0.46150  Biso   1.000  O
  O28      1.0000 0.78313  0.87540  0.54610  Biso   1.000  O
  O29      1.0000 0.73903  0.12910  0.66510  Biso   1.000  O
  O30      1.0000 0.65373  0.02240  0.68510  Biso   1.000  O
