data_image0
_cell_length_a       15.893
_cell_length_b       11.8892
_cell_length_c       16.7929
_cell_angle_alpha    90
_cell_angle_beta     91.161
_cell_angle_gamma    90

_symmetry_space_group_name_H-M    "P 1"
_symmetry_int_tables_number       1

loop_
  _symmetry_equiv_pos_as_xyz
  'x, y, z'

loop_
  _atom_site_label
  _atom_site_occupancy
  _atom_site_fract_x
  _atom_site_fract_y
  _atom_site_fract_z
  _atom_site_thermal_displace_type
  _atom_site_B_iso_or_equiv
  _atom_site_type_symbol
  F1       1.0000 0.14371  0.47043  0.01190  Biso   1.000  F
  F2       1.0000 0.26478  0.46877  0.09908  Biso   1.000  F
  N1       1.0000 0.98479  0.65520  0.08224  Biso   1.000  N
  N2       1.0000 0.91213  0.71482  0.08434  Biso   1.000  N
  H1       1.0000 0.87130  0.70810  0.04940  Biso   1.000  H
  N3       1.0000 0.02493  0.89776  0.38532  Biso   1.000  N
  N4       1.0000 0.09027  0.93608  0.34230  Biso   1.000  N
  H2       1.0000 0.12980  0.97950  0.36150  Biso   1.000  H
  C1       1.0000 0.11420  0.64020  0.16522  Biso   1.000  C
  H3       1.0000 0.11010  0.55880  0.16340  Biso   1.000  H
  H4       1.0000 0.13200  0.66360  0.21830  Biso   1.000  H
  H5       1.0000 0.15500  0.66550  0.12690  Biso   1.000  H
  C2       1.0000 0.03043  0.69039  0.14533  Biso   1.000  C
  C3       1.0000 0.98666  0.77327  0.18736  Biso   1.000  C
  C4       1.0000 0.91054  0.78550  0.14667  Biso   1.000  C
  C5       1.0000 0.83607  0.85860  0.16181  Biso   1.000  C
  H6       1.0000 0.81260  0.88520  0.11150  Biso   1.000  H
  H7       1.0000 0.85340  0.92240  0.19420  Biso   1.000  H
  H8       1.0000 0.79390  0.81570  0.18960  Biso   1.000  H
  C6       1.0000 0.90188  0.77380  0.36034  Biso   1.000  C
  H9       1.0000 0.91270  0.73840  0.41160  Biso   1.000  H
  H10      1.0000 0.88690  0.71680  0.32130  Biso   1.000  H
  H11      1.0000 0.85590  0.82690  0.36490  Biso   1.000  H
  C7       1.0000 0.97923  0.83456  0.33457  Biso   1.000  C
  C8       1.0000 0.01577  0.83344  0.25904  Biso   1.000  C
  C9       1.0000 0.08719  0.89950  0.26693  Biso   1.000  C
  C10      1.0000 0.15297  0.93220  0.20908  Biso   1.000  C
  H12      1.0000 0.17920  0.00210  0.22610  Biso   1.000  H
  H13      1.0000 0.12720  0.94220  0.15670  Biso   1.000  H
  H14      1.0000 0.19530  0.87360  0.20680  Biso   1.000  H
  F3       1.0000 0.64371  0.97043  0.51190  Biso   1.000  F
  F4       1.0000 0.76478  0.96877  0.59908  Biso   1.000  F
  N5       1.0000 0.48479  0.15520  0.58224  Biso   1.000  N
  N6       1.0000 0.41213  0.21482  0.58434  Biso   1.000  N
  H15      1.0000 0.37130  0.20810  0.54940  Biso   1.000  H
  N7       1.0000 0.52493  0.39776  0.88532  Biso   1.000  N
  N8       1.0000 0.59027  0.43608  0.84230  Biso   1.000  N
  H16      1.0000 0.62980  0.47950  0.86150  Biso   1.000  H
  C11      1.0000 0.61420  0.14020  0.66522  Biso   1.000  C
  H17      1.0000 0.61010  0.05880  0.66340  Biso   1.000  H
  H18      1.0000 0.63200  0.16360  0.71830  Biso   1.000  H
  H19      1.0000 0.65500  0.16550  0.62690  Biso   1.000  H
  C12      1.0000 0.53043  0.19039  0.64533  Biso   1.000  C
  C13      1.0000 0.48666  0.27327  0.68736  Biso   1.000  C
  C14      1.0000 0.41054  0.28550  0.64667  Biso   1.000  C
  C15      1.0000 0.33607  0.35860  0.66181  Biso   1.000  C
  H20      1.0000 0.31260  0.38520  0.61150  Biso   1.000  H
  H21      1.0000 0.35340  0.42240  0.69420  Biso   1.000  H
  H22      1.0000 0.29390  0.31570  0.68960  Biso   1.000  H
  C16      1.0000 0.40188  0.27380  0.86034  Biso   1.000  C
  H23      1.0000 0.41270  0.23840  0.91160  Biso   1.000  H
  H24      1.0000 0.38690  0.21680  0.82130  Biso   1.000  H
  H25      1.0000 0.35590  0.32690  0.86490  Biso   1.000  H
  C17      1.0000 0.47923  0.33456  0.83457  Biso   1.000  C
  C18      1.0000 0.51577  0.33344  0.75904  Biso   1.000  C
  C19      1.0000 0.58719  0.39950  0.76693  Biso   1.000  C
  C20      1.0000 0.65297  0.43220  0.70908  Biso   1.000  C
  H26      1.0000 0.67920  0.50210  0.72610  Biso   1.000  H
  H27      1.0000 0.62720  0.44220  0.65670  Biso   1.000  H
  H28      1.0000 0.69530  0.37360  0.70680  Biso   1.000  H
  F5       1.0000 0.35629  0.47043  0.98810  Biso   1.000  F
  F6       1.0000 0.23522  0.46877  0.90092  Biso   1.000  F
  N9       1.0000 0.51521  0.65520  0.91776  Biso   1.000  N
  N10      1.0000 0.58787  0.71482  0.91566  Biso   1.000  N
  H29      1.0000 0.62870  0.70810  0.95060  Biso   1.000  H
  N11      1.0000 0.47507  0.89776  0.61468  Biso   1.000  N
  N12      1.0000 0.40973  0.93608  0.65770  Biso   1.000  N
  H30      1.0000 0.37020  0.97950  0.63850  Biso   1.000  H
  C21      1.0000 0.38580  0.64020  0.83478  Biso   1.000  C
  H31      1.0000 0.38990  0.55880  0.83660  Biso   1.000  H
  H32      1.0000 0.36800  0.66360  0.78170  Biso   1.000  H
  H33      1.0000 0.34500  0.66550  0.87310  Biso   1.000  H
  C22      1.0000 0.46957  0.69039  0.85467  Biso   1.000  C
  C23      1.0000 0.51334  0.77327  0.81264  Biso   1.000  C
  C24      1.0000 0.58946  0.78550  0.85333  Biso   1.000  C
  C25      1.0000 0.66393  0.85860  0.83819  Biso   1.000  C
  H34      1.0000 0.68740  0.88520  0.88850  Biso   1.000  H
  H35      1.0000 0.64660  0.92240  0.80580  Biso   1.000  H
  H36      1.0000 0.70610  0.81570  0.81040  Biso   1.000  H
  C26      1.0000 0.59812  0.77380  0.63966  Biso   1.000  C
  H37      1.0000 0.58730  0.73840  0.58840  Biso   1.000  H
  H38      1.0000 0.61310  0.71680  0.67870  Biso   1.000  H
  H39      1.0000 0.64410  0.82690  0.63510  Biso   1.000  H
  C27      1.0000 0.52077  0.83456  0.66543  Biso   1.000  C
  C28      1.0000 0.48423  0.83344  0.74096  Biso   1.000  C
  C29      1.0000 0.41281  0.89950  0.73307  Biso   1.000  C
  C30      1.0000 0.34703  0.93220  0.79092  Biso   1.000  C
  H40      1.0000 0.32080  0.00210  0.77390  Biso   1.000  H
  H41      1.0000 0.37280  0.94220  0.84330  Biso   1.000  H
  H42      1.0000 0.30470  0.87360  0.79320  Biso   1.000  H
  F7       1.0000 0.85629  0.97043  0.48810  Biso   1.000  F
  F8       1.0000 0.73522  0.96877  0.40092  Biso   1.000  F
  N13      1.0000 0.01521  0.15520  0.41776  Biso   1.000  N
  N14      1.0000 0.08787  0.21482  0.41566  Biso   1.000  N
  H43      1.0000 0.12870  0.20810  0.45060  Biso   1.000  H
  N15      1.0000 0.97507  0.39776  0.11468  Biso   1.000  N
  N16      1.0000 0.90973  0.43608  0.15770  Biso   1.000  N
  H44      1.0000 0.87020  0.47950  0.13850  Biso   1.000  H
  C31      1.0000 0.88580  0.14020  0.33478  Biso   1.000  C
  H45      1.0000 0.88990  0.05880  0.33660  Biso   1.000  H
  H46      1.0000 0.86800  0.16360  0.28170  Biso   1.000  H
  H47      1.0000 0.84500  0.16550  0.37310  Biso   1.000  H
  C32      1.0000 0.96957  0.19039  0.35467  Biso   1.000  C
  C33      1.0000 0.01334  0.27327  0.31264  Biso   1.000  C
  C34      1.0000 0.08946  0.28550  0.35333  Biso   1.000  C
  C35      1.0000 0.16393  0.35860  0.33819  Biso   1.000  C
  H48      1.0000 0.18740  0.38520  0.38850  Biso   1.000  H
  H49      1.0000 0.14660  0.42240  0.30580  Biso   1.000  H
  H50      1.0000 0.20610  0.31570  0.31040  Biso   1.000  H
  C36      1.0000 0.09812  0.27380  0.13966  Biso   1.000  C
  H51      1.0000 0.08730  0.23840  0.08840  Biso   1.000  H
  H52      1.0000 0.11310  0.21680  0.17870  Biso   1.000  H
  H53      1.0000 0.14410  0.32690  0.13510  Biso   1.000  H
  C37      1.0000 0.02077  0.33456  0.16543  Biso   1.000  C
  C38      1.0000 0.98423  0.33344  0.24096  Biso   1.000  C
  C39      1.0000 0.91281  0.39950  0.23307  Biso   1.000  C
  C40      1.0000 0.84703  0.43220  0.29092  Biso   1.000  C
  H54      1.0000 0.82080  0.50210  0.27390  Biso   1.000  H
  H55      1.0000 0.87280  0.44220  0.34330  Biso   1.000  H
  H56      1.0000 0.80470  0.37360  0.29320  Biso   1.000  H
  F9       1.0000 0.85629  0.52957  0.98810  Biso   1.000  F
  F10      1.0000 0.73522  0.53123  0.90092  Biso   1.000  F
  N17      1.0000 0.01521  0.34480  0.91776  Biso   1.000  N
  N18      1.0000 0.08787  0.28518  0.91566  Biso   1.000  N
  H57      1.0000 0.12870  0.29190  0.95060  Biso   1.000  H
  N19      1.0000 0.97507  0.10224  0.61468  Biso   1.000  N
  N20      1.0000 0.90973  0.06392  0.65770  Biso   1.000  N
  H58      1.0000 0.87020  0.02050  0.63850  Biso   1.000  H
  C41      1.0000 0.88580  0.35980  0.83478  Biso   1.000  C
  H59      1.0000 0.88990  0.44120  0.83660  Biso   1.000  H
  H60      1.0000 0.86800  0.33640  0.78170  Biso   1.000  H
  H61      1.0000 0.84500  0.33450  0.87310  Biso   1.000  H
  C42      1.0000 0.96957  0.30961  0.85467  Biso   1.000  C
  C43      1.0000 0.01334  0.22673  0.81264  Biso   1.000  C
  C44      1.0000 0.08946  0.21450  0.85333  Biso   1.000  C
  C45      1.0000 0.16393  0.14140  0.83819  Biso   1.000  C
  H62      1.0000 0.18740  0.11480  0.88850  Biso   1.000  H
  H63      1.0000 0.14660  0.07760  0.80580  Biso   1.000  H
  H64      1.0000 0.20610  0.18430  0.81040  Biso   1.000  H
  C46      1.0000 0.09812  0.22620  0.63966  Biso   1.000  C
  H65      1.0000 0.08730  0.26160  0.58840  Biso   1.000  H
  H66      1.0000 0.11310  0.28320  0.67870  Biso   1.000  H
  H67      1.0000 0.14410  0.17310  0.63510  Biso   1.000  H
  C47      1.0000 0.02077  0.16544  0.66543  Biso   1.000  C
  C48      1.0000 0.98423  0.16656  0.74096  Biso   1.000  C
  C49      1.0000 0.91281  0.10050  0.73307  Biso   1.000  C
  C50      1.0000 0.84703  0.06780  0.79092  Biso   1.000  C
  H68      1.0000 0.82080  0.99790  0.77390  Biso   1.000  H
  H69      1.0000 0.87280  0.05780  0.84330  Biso   1.000  H
  H70      1.0000 0.80470  0.12640  0.79320  Biso   1.000  H
  F11      1.0000 0.35629  0.02957  0.48810  Biso   1.000  F
  F12      1.0000 0.23522  0.03123  0.40092  Biso   1.000  F
  N21      1.0000 0.51521  0.84480  0.41776  Biso   1.000  N
  N22      1.0000 0.58787  0.78518  0.41566  Biso   1.000  N
  H71      1.0000 0.62870  0.79190  0.45060  Biso   1.000  H
  N23      1.0000 0.47507  0.60224  0.11468  Biso   1.000  N
  N24      1.0000 0.40973  0.56392  0.15770  Biso   1.000  N
  H72      1.0000 0.37020  0.52050  0.13850  Biso   1.000  H
  C51      1.0000 0.38580  0.85980  0.33478  Biso   1.000  C
  H73      1.0000 0.38990  0.94120  0.33660  Biso   1.000  H
  H74      1.0000 0.36800  0.83640  0.28170  Biso   1.000  H
  H75      1.0000 0.34500  0.83450  0.37310  Biso   1.000  H
  C52      1.0000 0.46957  0.80961  0.35467  Biso   1.000  C
  C53      1.0000 0.51334  0.72673  0.31264  Biso   1.000  C
  C54      1.0000 0.58946  0.71450  0.35333  Biso   1.000  C
  C55      1.0000 0.66393  0.64140  0.33819  Biso   1.000  C
  H76      1.0000 0.68740  0.61480  0.38850  Biso   1.000  H
  H77      1.0000 0.64660  0.57760  0.30580  Biso   1.000  H
  H78      1.0000 0.70610  0.68430  0.31040  Biso   1.000  H
  C56      1.0000 0.59812  0.72620  0.13966  Biso   1.000  C
  H79      1.0000 0.58730  0.76160  0.08840  Biso   1.000  H
  H80      1.0000 0.61310  0.78320  0.17870  Biso   1.000  H
  H81      1.0000 0.64410  0.67310  0.13510  Biso   1.000  H
  C57      1.0000 0.52077  0.66544  0.16543  Biso   1.000  C
  C58      1.0000 0.48423  0.66656  0.24096  Biso   1.000  C
  C59      1.0000 0.41281  0.60050  0.23307  Biso   1.000  C
  C60      1.0000 0.34703  0.56780  0.29092  Biso   1.000  C
  H82      1.0000 0.32080  0.49790  0.27390  Biso   1.000  H
  H83      1.0000 0.37280  0.55780  0.34330  Biso   1.000  H
  H84      1.0000 0.30470  0.62640  0.29320  Biso   1.000  H
  F13      1.0000 0.64371  0.52957  0.01190  Biso   1.000  F
  F14      1.0000 0.76478  0.53123  0.09908  Biso   1.000  F
  N25      1.0000 0.48479  0.34480  0.08224  Biso   1.000  N
  N26      1.0000 0.41213  0.28518  0.08434  Biso   1.000  N
  H85      1.0000 0.37130  0.29190  0.04940  Biso   1.000  H
  N27      1.0000 0.52493  0.10224  0.38532  Biso   1.000  N
  N28      1.0000 0.59027  0.06392  0.34230  Biso   1.000  N
  H86      1.0000 0.62980  0.02050  0.36150  Biso   1.000  H
  C61      1.0000 0.61420  0.35980  0.16522  Biso   1.000  C
  H87      1.0000 0.61010  0.44120  0.16340  Biso   1.000  H
  H88      1.0000 0.63200  0.33640  0.21830  Biso   1.000  H
  H89      1.0000 0.65500  0.33450  0.12690  Biso   1.000  H
  C62      1.0000 0.53043  0.30961  0.14533  Biso   1.000  C
  C63      1.0000 0.48666  0.22673  0.18736  Biso   1.000  C
  C64      1.0000 0.41054  0.21450  0.14667  Biso   1.000  C
  C65      1.0000 0.33607  0.14140  0.16181  Biso   1.000  C
  H90      1.0000 0.31260  0.11480  0.11150  Biso   1.000  H
  H91      1.0000 0.35340  0.07760  0.19420  Biso   1.000  H
  H92      1.0000 0.29390  0.18430  0.18960  Biso   1.000  H
  C66      1.0000 0.40188  0.22620  0.36034  Biso   1.000  C
  H93      1.0000 0.41270  0.26160  0.41160  Biso   1.000  H
  H94      1.0000 0.38690  0.28320  0.32130  Biso   1.000  H
  H95      1.0000 0.35590  0.17310  0.36490  Biso   1.000  H
  C67      1.0000 0.47923  0.16544  0.33457  Biso   1.000  C
  C68      1.0000 0.51577  0.16656  0.25904  Biso   1.000  C
  C69      1.0000 0.58719  0.10050  0.26693  Biso   1.000  C
  C70      1.0000 0.65297  0.06780  0.20908  Biso   1.000  C
  H96      1.0000 0.67920  0.99790  0.22610  Biso   1.000  H
  H97      1.0000 0.62720  0.05780  0.15670  Biso   1.000  H
  H98      1.0000 0.69530  0.12640  0.20680  Biso   1.000  H
  F15      1.0000 0.14371  0.02957  0.51190  Biso   1.000  F
  F16      1.0000 0.26478  0.03123  0.59908  Biso   1.000  F
  N29      1.0000 0.98479  0.84480  0.58224  Biso   1.000  N
  N30      1.0000 0.91213  0.78518  0.58434  Biso   1.000  N
  H99      1.0000 0.87130  0.79190  0.54940  Biso   1.000  H
  N31      1.0000 0.02493  0.60224  0.88532  Biso   1.000  N
  N32      1.0000 0.09027  0.56392  0.84230  Biso   1.000  N
  H100     1.0000 0.12980  0.52050  0.86150  Biso   1.000  H
  C71      1.0000 0.11420  0.85980  0.66522  Biso   1.000  C
  H101     1.0000 0.11010  0.94120  0.66340  Biso   1.000  H
  H102     1.0000 0.13200  0.83640  0.71830  Biso   1.000  H
  H103     1.0000 0.15500  0.83450  0.62690  Biso   1.000  H
  C72      1.0000 0.03043  0.80961  0.64533  Biso   1.000  C
  C73      1.0000 0.98666  0.72673  0.68736  Biso   1.000  C
  C74      1.0000 0.91054  0.71450  0.64667  Biso   1.000  C
  C75      1.0000 0.83607  0.64140  0.66181  Biso   1.000  C
  H104     1.0000 0.81260  0.61480  0.61150  Biso   1.000  H
  H105     1.0000 0.85340  0.57760  0.69420  Biso   1.000  H
  H106     1.0000 0.79390  0.68430  0.68960  Biso   1.000  H
  C76      1.0000 0.90188  0.72620  0.86034  Biso   1.000  C
  H107     1.0000 0.91270  0.76160  0.91160  Biso   1.000  H
  H108     1.0000 0.88690  0.78320  0.82130  Biso   1.000  H
  H109     1.0000 0.85590  0.67310  0.86490  Biso   1.000  H
  C77      1.0000 0.97923  0.66544  0.83457  Biso   1.000  C
  C78      1.0000 0.01577  0.66656  0.75904  Biso   1.000  C
  C79      1.0000 0.08719  0.60050  0.76693  Biso   1.000  C
  C80      1.0000 0.15297  0.56780  0.70908  Biso   1.000  C
  H110     1.0000 0.17920  0.49790  0.72610  Biso   1.000  H
  H111     1.0000 0.12720  0.55780  0.65670  Biso   1.000  H
  H112     1.0000 0.19530  0.62640  0.70680  Biso   1.000  H
  Cd1      1.0000 0.00000  0.50000  0.00000  Biso   1.000  Cd
  Cd2      1.0000 0.50000  0.00000  0.50000  Biso   1.000  Cd
  Cd3      1.0000 0.50000  0.50000  0.00000  Biso   1.000  Cd
  Cd4      1.0000 0.00000  0.00000  0.50000  Biso   1.000  Cd
  Si1      1.0000 0.25000  0.47239  0.00000  Biso   1.000  Si
  F17      1.0000 0.25000  0.32995  0.00000  Biso   1.000  F
  F18      1.0000 0.25000  0.61094  0.00000  Biso   1.000  F
  Si2      1.0000 0.75000  0.97239  0.50000  Biso   1.000  Si
  F19      1.0000 0.75000  0.82995  0.50000  Biso   1.000  F
  F20      1.0000 0.75000  0.11094  0.50000  Biso   1.000  F
  Si3      1.0000 0.75000  0.52761  0.00000  Biso   1.000  Si
  F21      1.0000 0.75000  0.67005  0.00000  Biso   1.000  F
  F22      1.0000 0.75000  0.38906  0.00000  Biso   1.000  F
  Si4      1.0000 0.25000  0.02761  0.50000  Biso   1.000  Si
  F23      1.0000 0.25000  0.17005  0.50000  Biso   1.000  F
  F24      1.0000 0.25000  0.88906  0.50000  Biso   1.000  F
