data_image0
_cell_length_a       14.4685
_cell_length_b       22.858
_cell_length_c       23.048
_cell_angle_alpha    90
_cell_angle_beta     90
_cell_angle_gamma    90

_symmetry_space_group_name_H-M    "P 1"
_symmetry_int_tables_number       1

loop_
  _symmetry_equiv_pos_as_xyz
  'x, y, z'

loop_
  _atom_site_label
  _atom_site_occupancy
  _atom_site_fract_x
  _atom_site_fract_y
  _atom_site_fract_z
  _atom_site_thermal_displace_type
  _atom_site_B_iso_or_equiv
  _atom_site_type_symbol
  Cd1      1.0000 0.01431  0.13516  0.38458  Biso   1.000  Cd
  S1       1.0000 0.10786  0.27429  0.23414  Biso   1.000  S
  F1       1.0000 0.00246  0.05729  0.45371  Biso   1.000  F
  F2       1.0000 0.89335  0.01990  0.52171  Biso   1.000  F
  F3       1.0000 0.04700  0.04189  0.55206  Biso   1.000  F
  N1       1.0000 0.89380  0.08456  0.33979  Biso   1.000  N
  N2       1.0000 0.89690  0.02496  0.33723  Biso   1.000  N
  H1       1.0000 0.92980  0.00350  0.36060  Biso   1.000  H
  N3       1.0000 0.61670  0.06741  0.15992  Biso   1.000  N
  N4       1.0000 0.68370  0.04185  0.12891  Biso   1.000  N
  H2       1.0000 0.67900  0.03400  0.09210  Biso   1.000  H
  N5       1.0000 0.90750  0.17629  0.44904  Biso   1.000  N
  N6       1.0000 0.85280  0.14093  0.48177  Biso   1.000  N
  H3       1.0000 0.86260  0.10370  0.48660  Biso   1.000  H
  N7       1.0000 0.63590  0.33768  0.55332  Biso   1.000  N
  N8       1.0000 0.62840  0.34877  0.49558  Biso   1.000  N
  H4       1.0000 0.59260  0.37560  0.48090  Biso   1.000  H
  N9       1.0000 0.02690  0.20782  0.32099  Biso   1.000  N
  C1       1.0000 0.81530  0.16270  0.28510  Biso   1.000  C
  H5       1.0000 0.84500  0.18690  0.31420  Biso   1.000  H
  H6       1.0000 0.74900  0.16870  0.28660  Biso   1.000  H
  H7       1.0000 0.83810  0.17330  0.24690  Biso   1.000  H
  C2       1.0000 0.83660  0.09987  0.29664  Biso   1.000  C
  C3       1.0000 0.80370  0.05015  0.26692  Biso   1.000  C
  C4       1.0000 0.84400  0.00310  0.29490  Biso   1.000  C
  C5       1.0000 0.83430  0.93900  0.28520  Biso   1.000  C
  H8       1.0000 0.85070  0.92980  0.24550  Biso   1.000  H
  H9       1.0000 0.77090  0.92740  0.29240  Biso   1.000  H
  H10      1.0000 0.87510  0.91820  0.31150  Biso   1.000  H
  C6       1.0000 0.59210  0.09360  0.26270  Biso   1.000  C
  H11      1.0000 0.60790  0.13400  0.27100  Biso   1.000  H
  H12      1.0000 0.60290  0.06990  0.29690  Biso   1.000  H
  H13      1.0000 0.52740  0.09120  0.25190  Biso   1.000  H
  C7       1.0000 0.65030  0.07185  0.21404  Biso   1.000  C
  C8       1.0000 0.74090  0.04989  0.21646  Biso   1.000  C
  C9       1.0000 0.75940  0.02950  0.16100  Biso   1.000  C
  C10      1.0000 0.84090  0.99800  0.13710  Biso   1.000  C
  H14      1.0000 0.83610  0.95670  0.14620  Biso   1.000  H
  H15      1.0000 0.89700  0.01370  0.15410  Biso   1.000  H
  H16      1.0000 0.84290  0.00300  0.09530  Biso   1.000  H
  C11      1.0000 0.91320  0.28090  0.42350  Biso   1.000  C
  H17      1.0000 0.98000  0.27780  0.42610  Biso   1.000  H
  H18      1.0000 0.89310  0.31660  0.44250  Biso   1.000  H
  H19      1.0000 0.89490  0.28180  0.38310  Biso   1.000  H
  C12      1.0000 0.86960  0.22930  0.45270  Biso   1.000  C
  C13      1.0000 0.79020  0.22807  0.48773  Biso   1.000  C
  C14      1.0000 0.78200  0.17030  0.50570  Biso   1.000  C
  C15      1.0000 0.71380  0.14000  0.54340  Biso   1.000  C
  H20      1.0000 0.70780  0.09960  0.53110  Biso   1.000  H
  H21      1.0000 0.65440  0.15940  0.54030  Biso   1.000  H
  H22      1.0000 0.73480  0.14130  0.58330  Biso   1.000  H
  C16      1.0000 0.72600  0.27090  0.61570  Biso   1.000  C
  H23      1.0000 0.73130  0.30310  0.64290  Biso   1.000  H
  H24      1.0000 0.78530  0.25150  0.61190  Biso   1.000  H
  H25      1.0000 0.68050  0.24320  0.62990  Biso   1.000  H
  C17      1.0000 0.69630  0.29380  0.55771  Biso   1.000  C
  C18      1.0000 0.72750  0.27660  0.50214  Biso   1.000  C
  C19      1.0000 0.68260  0.31340  0.46404  Biso   1.000  C
  C20      1.0000 0.68700  0.31810  0.39970  Biso   1.000  C
  H26      1.0000 0.62710  0.32980  0.38490  Biso   1.000  H
  H27      1.0000 0.70390  0.28040  0.38340  Biso   1.000  H
  H28      1.0000 0.73300  0.34700  0.38900  Biso   1.000  H
  C21      1.0000 0.05960  0.23600  0.28560  Biso   1.000  C
  Cd2      1.0000 0.48569  0.86484  0.88458  Biso   1.000  Cd
  S2       1.0000 0.39214  0.72571  0.73414  Biso   1.000  S
  F4       1.0000 0.49754  0.94271  0.95371  Biso   1.000  F
  F5       1.0000 0.60665  0.98010  0.02171  Biso   1.000  F
  F6       1.0000 0.45300  0.95811  0.05206  Biso   1.000  F
  N10      1.0000 0.60620  0.91544  0.83979  Biso   1.000  N
  N11      1.0000 0.60310  0.97504  0.83723  Biso   1.000  N
  H29      1.0000 0.57020  0.99650  0.86060  Biso   1.000  H
  N12      1.0000 0.88330  0.93259  0.65992  Biso   1.000  N
  N13      1.0000 0.81630  0.95815  0.62891  Biso   1.000  N
  H30      1.0000 0.82100  0.96600  0.59210  Biso   1.000  H
  N14      1.0000 0.59250  0.82371  0.94904  Biso   1.000  N
  N15      1.0000 0.64720  0.85907  0.98177  Biso   1.000  N
  H31      1.0000 0.63740  0.89630  0.98660  Biso   1.000  H
  N16      1.0000 0.86410  0.66232  0.05332  Biso   1.000  N
  N17      1.0000 0.87160  0.65123  0.99558  Biso   1.000  N
  H32      1.0000 0.90740  0.62440  0.98090  Biso   1.000  H
  N18      1.0000 0.47310  0.79218  0.82099  Biso   1.000  N
  C22      1.0000 0.68470  0.83730  0.78510  Biso   1.000  C
  H33      1.0000 0.65500  0.81310  0.81420  Biso   1.000  H
  H34      1.0000 0.75100  0.83130  0.78660  Biso   1.000  H
  H35      1.0000 0.66190  0.82670  0.74690  Biso   1.000  H
  C23      1.0000 0.66340  0.90013  0.79664  Biso   1.000  C
  C24      1.0000 0.69630  0.94985  0.76692  Biso   1.000  C
  C25      1.0000 0.65600  0.99690  0.79490  Biso   1.000  C
  C26      1.0000 0.66570  0.06100  0.78520  Biso   1.000  C
  H36      1.0000 0.64930  0.07020  0.74550  Biso   1.000  H
  H37      1.0000 0.72910  0.07260  0.79240  Biso   1.000  H
  H38      1.0000 0.62490  0.08180  0.81150  Biso   1.000  H
  C27      1.0000 0.90790  0.90640  0.76270  Biso   1.000  C
  H39      1.0000 0.89210  0.86600  0.77100  Biso   1.000  H
  H40      1.0000 0.89710  0.93010  0.79690  Biso   1.000  H
  H41      1.0000 0.97260  0.90880  0.75190  Biso   1.000  H
  C28      1.0000 0.84970  0.92815  0.71404  Biso   1.000  C
  C29      1.0000 0.75910  0.95011  0.71646  Biso   1.000  C
  C30      1.0000 0.74060  0.97050  0.66100  Biso   1.000  C
  C31      1.0000 0.65910  0.00200  0.63710  Biso   1.000  C
  H42      1.0000 0.66390  0.04330  0.64620  Biso   1.000  H
  H43      1.0000 0.60300  0.98630  0.65410  Biso   1.000  H
  H44      1.0000 0.65710  0.99700  0.59530  Biso   1.000  H
  C32      1.0000 0.58680  0.71910  0.92350  Biso   1.000  C
  H45      1.0000 0.52000  0.72220  0.92610  Biso   1.000  H
  H46      1.0000 0.60690  0.68340  0.94250  Biso   1.000  H
  H47      1.0000 0.60510  0.71820  0.88310  Biso   1.000  H
  C33      1.0000 0.63040  0.77070  0.95270  Biso   1.000  C
  C34      1.0000 0.70980  0.77193  0.98773  Biso   1.000  C
  C35      1.0000 0.71800  0.82970  0.00570  Biso   1.000  C
  C36      1.0000 0.78620  0.86000  0.04340  Biso   1.000  C
  H48      1.0000 0.79220  0.90040  0.03110  Biso   1.000  H
  H49      1.0000 0.84560  0.84060  0.04030  Biso   1.000  H
  H50      1.0000 0.76520  0.85870  0.08330  Biso   1.000  H
  C37      1.0000 0.77400  0.72910  0.11570  Biso   1.000  C
  H51      1.0000 0.76870  0.69690  0.14290  Biso   1.000  H
  H52      1.0000 0.71470  0.74850  0.11190  Biso   1.000  H
  H53      1.0000 0.81950  0.75680  0.12990  Biso   1.000  H
  C38      1.0000 0.80370  0.70620  0.05771  Biso   1.000  C
  C39      1.0000 0.77250  0.72340  0.00214  Biso   1.000  C
  C40      1.0000 0.81740  0.68660  0.96404  Biso   1.000  C
  C41      1.0000 0.81300  0.68190  0.89970  Biso   1.000  C
  H54      1.0000 0.87290  0.67020  0.88490  Biso   1.000  H
  H55      1.0000 0.79610  0.71960  0.88340  Biso   1.000  H
  H56      1.0000 0.76700  0.65300  0.88900  Biso   1.000  H
  C42      1.0000 0.44040  0.76400  0.78560  Biso   1.000  C
  Cd3      1.0000 0.98569  0.63516  0.11542  Biso   1.000  Cd
  S3       1.0000 0.89214  0.77429  0.26586  Biso   1.000  S
  F7       1.0000 0.99754  0.55729  0.04629  Biso   1.000  F
  F8       1.0000 0.10665  0.51990  0.97829  Biso   1.000  F
  F9       1.0000 0.95300  0.54189  0.94794  Biso   1.000  F
  N19      1.0000 0.10620  0.58456  0.16021  Biso   1.000  N
  N20      1.0000 0.10310  0.52496  0.16277  Biso   1.000  N
  H57      1.0000 0.07020  0.50350  0.13940  Biso   1.000  H
  N21      1.0000 0.38330  0.56741  0.34008  Biso   1.000  N
  N22      1.0000 0.31630  0.54185  0.37109  Biso   1.000  N
  H58      1.0000 0.32100  0.53400  0.40790  Biso   1.000  H
  N23      1.0000 0.09250  0.67629  0.05096  Biso   1.000  N
  N24      1.0000 0.14720  0.64093  0.01823  Biso   1.000  N
  H59      1.0000 0.13740  0.60370  0.01340  Biso   1.000  H
  N25      1.0000 0.36410  0.83768  0.94668  Biso   1.000  N
  N26      1.0000 0.37160  0.84877  0.00442  Biso   1.000  N
  H60      1.0000 0.40740  0.87560  0.01910  Biso   1.000  H
  N27      1.0000 0.97310  0.70782  0.17901  Biso   1.000  N
  C43      1.0000 0.18470  0.66270  0.21490  Biso   1.000  C
  H61      1.0000 0.15500  0.68690  0.18580  Biso   1.000  H
  H62      1.0000 0.25100  0.66870  0.21340  Biso   1.000  H
  H63      1.0000 0.16190  0.67330  0.25310  Biso   1.000  H
  C44      1.0000 0.16340  0.59987  0.20336  Biso   1.000  C
  C45      1.0000 0.19630  0.55015  0.23308  Biso   1.000  C
  C46      1.0000 0.15600  0.50310  0.20510  Biso   1.000  C
  C47      1.0000 0.16570  0.43900  0.21480  Biso   1.000  C
  H64      1.0000 0.14930  0.42980  0.25450  Biso   1.000  H
  H65      1.0000 0.22910  0.42740  0.20760  Biso   1.000  H
  H66      1.0000 0.12490  0.41820  0.18850  Biso   1.000  H
  C48      1.0000 0.40790  0.59360  0.23730  Biso   1.000  C
  H67      1.0000 0.39210  0.63400  0.22900  Biso   1.000  H
  H68      1.0000 0.39710  0.56990  0.20310  Biso   1.000  H
  H69      1.0000 0.47260  0.59120  0.24810  Biso   1.000  H
  C49      1.0000 0.34970  0.57185  0.28596  Biso   1.000  C
  C50      1.0000 0.25910  0.54989  0.28354  Biso   1.000  C
  C51      1.0000 0.24060  0.52950  0.33900  Biso   1.000  C
  C52      1.0000 0.15910  0.49800  0.36290  Biso   1.000  C
  H70      1.0000 0.16390  0.45670  0.35380  Biso   1.000  H
  H71      1.0000 0.10300  0.51370  0.34590  Biso   1.000  H
  H72      1.0000 0.15710  0.50300  0.40470  Biso   1.000  H
  C53      1.0000 0.08680  0.78090  0.07650  Biso   1.000  C
  H73      1.0000 0.02000  0.77780  0.07390  Biso   1.000  H
  H74      1.0000 0.10690  0.81660  0.05750  Biso   1.000  H
  H75      1.0000 0.10510  0.78180  0.11690  Biso   1.000  H
  C54      1.0000 0.13040  0.72930  0.04730  Biso   1.000  C
  C55      1.0000 0.20980  0.72807  0.01227  Biso   1.000  C
  C56      1.0000 0.21800  0.67030  0.99430  Biso   1.000  C
  C57      1.0000 0.28620  0.64000  0.95660  Biso   1.000  C
  H76      1.0000 0.29220  0.59960  0.96890  Biso   1.000  H
  H77      1.0000 0.34560  0.65940  0.95970  Biso   1.000  H
  H78      1.0000 0.26520  0.64130  0.91670  Biso   1.000  H
  C58      1.0000 0.27400  0.77090  0.88430  Biso   1.000  C
  H79      1.0000 0.26870  0.80310  0.85710  Biso   1.000  H
  H80      1.0000 0.21470  0.75150  0.88810  Biso   1.000  H
  H81      1.0000 0.31950  0.74320  0.87010  Biso   1.000  H
  C59      1.0000 0.30370  0.79380  0.94229  Biso   1.000  C
  C60      1.0000 0.27250  0.77660  0.99786  Biso   1.000  C
  C61      1.0000 0.31740  0.81340  0.03596  Biso   1.000  C
  C62      1.0000 0.31300  0.81810  0.10030  Biso   1.000  C
  H82      1.0000 0.37290  0.82980  0.11510  Biso   1.000  H
  H83      1.0000 0.29610  0.78040  0.11660  Biso   1.000  H
  H84      1.0000 0.26700  0.84700  0.11100  Biso   1.000  H
  C63      1.0000 0.94040  0.73600  0.21440  Biso   1.000  C
  Cd4      1.0000 0.51431  0.36484  0.61542  Biso   1.000  Cd
  S4       1.0000 0.60786  0.22571  0.76586  Biso   1.000  S
  F10      1.0000 0.50246  0.44271  0.54629  Biso   1.000  F
  F11      1.0000 0.39335  0.48010  0.47829  Biso   1.000  F
  F12      1.0000 0.54700  0.45811  0.44794  Biso   1.000  F
  N28      1.0000 0.39380  0.41544  0.66021  Biso   1.000  N
  N29      1.0000 0.39690  0.47504  0.66277  Biso   1.000  N
  H85      1.0000 0.42980  0.49650  0.63940  Biso   1.000  H
  N30      1.0000 0.11670  0.43259  0.84008  Biso   1.000  N
  N31      1.0000 0.18370  0.45815  0.87109  Biso   1.000  N
  H86      1.0000 0.17900  0.46600  0.90790  Biso   1.000  H
  N32      1.0000 0.40750  0.32371  0.55096  Biso   1.000  N
  N33      1.0000 0.35280  0.35907  0.51823  Biso   1.000  N
  H87      1.0000 0.36260  0.39630  0.51340  Biso   1.000  H
  N34      1.0000 0.13590  0.16232  0.44668  Biso   1.000  N
  N35      1.0000 0.12840  0.15123  0.50442  Biso   1.000  N
  H88      1.0000 0.09260  0.12440  0.51910  Biso   1.000  H
  N36      1.0000 0.52690  0.29218  0.67901  Biso   1.000  N
  C64      1.0000 0.31530  0.33730  0.71490  Biso   1.000  C
  H89      1.0000 0.34500  0.31310  0.68580  Biso   1.000  H
  H90      1.0000 0.24900  0.33130  0.71340  Biso   1.000  H
  H91      1.0000 0.33810  0.32670  0.75310  Biso   1.000  H
  C65      1.0000 0.33660  0.40013  0.70336  Biso   1.000  C
  C66      1.0000 0.30370  0.44985  0.73308  Biso   1.000  C
  C67      1.0000 0.34400  0.49690  0.70510  Biso   1.000  C
  C68      1.0000 0.33430  0.56100  0.71480  Biso   1.000  C
  H92      1.0000 0.35070  0.57020  0.75450  Biso   1.000  H
  H93      1.0000 0.27090  0.57260  0.70760  Biso   1.000  H
  H94      1.0000 0.37510  0.58180  0.68850  Biso   1.000  H
  C69      1.0000 0.09210  0.40640  0.73730  Biso   1.000  C
  H95      1.0000 0.10790  0.36600  0.72900  Biso   1.000  H
  H96      1.0000 0.10290  0.43010  0.70310  Biso   1.000  H
  H97      1.0000 0.02740  0.40880  0.74810  Biso   1.000  H
  C70      1.0000 0.15030  0.42815  0.78596  Biso   1.000  C
  C71      1.0000 0.24090  0.45011  0.78354  Biso   1.000  C
  C72      1.0000 0.25940  0.47050  0.83900  Biso   1.000  C
  C73      1.0000 0.34090  0.50200  0.86290  Biso   1.000  C
  H98      1.0000 0.33610  0.54330  0.85380  Biso   1.000  H
  H99      1.0000 0.39700  0.48630  0.84590  Biso   1.000  H
  H100     1.0000 0.34290  0.49700  0.90470  Biso   1.000  H
  C74      1.0000 0.41320  0.21910  0.57650  Biso   1.000  C
  H101     1.0000 0.48000  0.22220  0.57390  Biso   1.000  H
  H102     1.0000 0.39310  0.18340  0.55750  Biso   1.000  H
  H103     1.0000 0.39490  0.21820  0.61690  Biso   1.000  H
  C75      1.0000 0.36960  0.27070  0.54730  Biso   1.000  C
  C76      1.0000 0.29020  0.27193  0.51227  Biso   1.000  C
  C77      1.0000 0.28200  0.32970  0.49430  Biso   1.000  C
  C78      1.0000 0.21380  0.36000  0.45660  Biso   1.000  C
  H104     1.0000 0.20780  0.40040  0.46890  Biso   1.000  H
  H105     1.0000 0.15440  0.34060  0.45970  Biso   1.000  H
  H106     1.0000 0.23480  0.35870  0.41670  Biso   1.000  H
  C79      1.0000 0.22600  0.22910  0.38430  Biso   1.000  C
  H107     1.0000 0.23130  0.19690  0.35710  Biso   1.000  H
  H108     1.0000 0.28530  0.24850  0.38810  Biso   1.000  H
  H109     1.0000 0.18050  0.25680  0.37010  Biso   1.000  H
  C80      1.0000 0.19630  0.20620  0.44229  Biso   1.000  C
  C81      1.0000 0.22750  0.22340  0.49786  Biso   1.000  C
  C82      1.0000 0.18260  0.18660  0.53596  Biso   1.000  C
  C83      1.0000 0.18700  0.18190  0.60030  Biso   1.000  C
  H110     1.0000 0.12710  0.17020  0.61510  Biso   1.000  H
  H111     1.0000 0.20390  0.21960  0.61660  Biso   1.000  H
  H112     1.0000 0.23300  0.15300  0.61100  Biso   1.000  H
  C84      1.0000 0.55960  0.26400  0.71440  Biso   1.000  C
  Cd5      1.0000 0.98569  0.86484  0.61542  Biso   1.000  Cd
  S5       1.0000 0.89214  0.72571  0.76586  Biso   1.000  S
  F13      1.0000 0.99754  0.94271  0.54629  Biso   1.000  F
  F14      1.0000 0.10665  0.98010  0.47829  Biso   1.000  F
  F15      1.0000 0.95300  0.95811  0.44794  Biso   1.000  F
  N37      1.0000 0.10620  0.91544  0.66021  Biso   1.000  N
  N38      1.0000 0.10310  0.97504  0.66277  Biso   1.000  N
  H113     1.0000 0.07020  0.99650  0.63940  Biso   1.000  H
  N39      1.0000 0.38330  0.93259  0.84008  Biso   1.000  N
  N40      1.0000 0.31630  0.95815  0.87109  Biso   1.000  N
  H114     1.0000 0.32100  0.96600  0.90790  Biso   1.000  H
  N41      1.0000 0.09250  0.82371  0.55096  Biso   1.000  N
  N42      1.0000 0.14720  0.85907  0.51823  Biso   1.000  N
  H115     1.0000 0.13740  0.89630  0.51340  Biso   1.000  H
  N43      1.0000 0.36410  0.66232  0.44668  Biso   1.000  N
  N44      1.0000 0.37160  0.65123  0.50442  Biso   1.000  N
  H116     1.0000 0.40740  0.62440  0.51910  Biso   1.000  H
  N45      1.0000 0.97310  0.79218  0.67901  Biso   1.000  N
  C85      1.0000 0.18470  0.83730  0.71490  Biso   1.000  C
  H117     1.0000 0.15500  0.81310  0.68580  Biso   1.000  H
  H118     1.0000 0.25100  0.83130  0.71340  Biso   1.000  H
  H119     1.0000 0.16190  0.82670  0.75310  Biso   1.000  H
  C86      1.0000 0.16340  0.90013  0.70336  Biso   1.000  C
  C87      1.0000 0.19630  0.94985  0.73308  Biso   1.000  C
  C88      1.0000 0.15600  0.99690  0.70510  Biso   1.000  C
  C89      1.0000 0.16570  0.06100  0.71480  Biso   1.000  C
  H120     1.0000 0.14930  0.07020  0.75450  Biso   1.000  H
  H121     1.0000 0.22910  0.07260  0.70760  Biso   1.000  H
  H122     1.0000 0.12490  0.08180  0.68850  Biso   1.000  H
  C90      1.0000 0.40790  0.90640  0.73730  Biso   1.000  C
  H123     1.0000 0.39210  0.86600  0.72900  Biso   1.000  H
  H124     1.0000 0.39710  0.93010  0.70310  Biso   1.000  H
  H125     1.0000 0.47260  0.90880  0.74810  Biso   1.000  H
  C91      1.0000 0.34970  0.92815  0.78596  Biso   1.000  C
  C92      1.0000 0.25910  0.95011  0.78354  Biso   1.000  C
  C93      1.0000 0.24060  0.97050  0.83900  Biso   1.000  C
  C94      1.0000 0.15910  0.00200  0.86290  Biso   1.000  C
  H126     1.0000 0.16390  0.04330  0.85380  Biso   1.000  H
  H127     1.0000 0.10300  0.98630  0.84590  Biso   1.000  H
  H128     1.0000 0.15710  0.99700  0.90470  Biso   1.000  H
  C95      1.0000 0.08680  0.71910  0.57650  Biso   1.000  C
  H129     1.0000 0.02000  0.72220  0.57390  Biso   1.000  H
  H130     1.0000 0.10690  0.68340  0.55750  Biso   1.000  H
  H131     1.0000 0.10510  0.71820  0.61690  Biso   1.000  H
  C96      1.0000 0.13040  0.77070  0.54730  Biso   1.000  C
  C97      1.0000 0.20980  0.77193  0.51227  Biso   1.000  C
  C98      1.0000 0.21800  0.82970  0.49430  Biso   1.000  C
  C99      1.0000 0.28620  0.86000  0.45660  Biso   1.000  C
  H132     1.0000 0.29220  0.90040  0.46890  Biso   1.000  H
  H133     1.0000 0.34560  0.84060  0.45970  Biso   1.000  H
  H134     1.0000 0.26520  0.85870  0.41670  Biso   1.000  H
  C100     1.0000 0.27400  0.72910  0.38430  Biso   1.000  C
  H135     1.0000 0.26870  0.69690  0.35710  Biso   1.000  H
  H136     1.0000 0.21470  0.74850  0.38810  Biso   1.000  H
  H137     1.0000 0.31950  0.75680  0.37010  Biso   1.000  H
  C101     1.0000 0.30370  0.70620  0.44229  Biso   1.000  C
  C102     1.0000 0.27250  0.72340  0.49786  Biso   1.000  C
  C103     1.0000 0.31740  0.68660  0.53596  Biso   1.000  C
  C104     1.0000 0.31300  0.68190  0.60030  Biso   1.000  C
  H138     1.0000 0.37290  0.67020  0.61510  Biso   1.000  H
  H139     1.0000 0.29610  0.71960  0.61660  Biso   1.000  H
  H140     1.0000 0.26700  0.65300  0.61100  Biso   1.000  H
  C105     1.0000 0.94040  0.76400  0.71440  Biso   1.000  C
  Cd6      1.0000 0.51431  0.13516  0.11542  Biso   1.000  Cd
  S6       1.0000 0.60786  0.27429  0.26586  Biso   1.000  S
  F16      1.0000 0.50246  0.05729  0.04629  Biso   1.000  F
  F17      1.0000 0.39335  0.01990  0.97829  Biso   1.000  F
  F18      1.0000 0.54700  0.04189  0.94794  Biso   1.000  F
  N46      1.0000 0.39380  0.08456  0.16021  Biso   1.000  N
  N47      1.0000 0.39690  0.02496  0.16277  Biso   1.000  N
  H141     1.0000 0.42980  0.00350  0.13940  Biso   1.000  H
  N48      1.0000 0.11670  0.06741  0.34008  Biso   1.000  N
  N49      1.0000 0.18370  0.04185  0.37109  Biso   1.000  N
  H142     1.0000 0.17900  0.03400  0.40790  Biso   1.000  H
  N50      1.0000 0.40750  0.17629  0.05096  Biso   1.000  N
  N51      1.0000 0.35280  0.14093  0.01823  Biso   1.000  N
  H143     1.0000 0.36260  0.10370  0.01340  Biso   1.000  H
  N52      1.0000 0.13590  0.33768  0.94668  Biso   1.000  N
  N53      1.0000 0.12840  0.34877  0.00442  Biso   1.000  N
  H144     1.0000 0.09260  0.37560  0.01910  Biso   1.000  H
  N54      1.0000 0.52690  0.20782  0.17901  Biso   1.000  N
  C106     1.0000 0.31530  0.16270  0.21490  Biso   1.000  C
  H145     1.0000 0.34500  0.18690  0.18580  Biso   1.000  H
  H146     1.0000 0.24900  0.16870  0.21340  Biso   1.000  H
  H147     1.0000 0.33810  0.17330  0.25310  Biso   1.000  H
  C107     1.0000 0.33660  0.09987  0.20336  Biso   1.000  C
  C108     1.0000 0.30370  0.05015  0.23308  Biso   1.000  C
  C109     1.0000 0.34400  0.00310  0.20510  Biso   1.000  C
  C110     1.0000 0.33430  0.93900  0.21480  Biso   1.000  C
  H148     1.0000 0.35070  0.92980  0.25450  Biso   1.000  H
  H149     1.0000 0.27090  0.92740  0.20760  Biso   1.000  H
  H150     1.0000 0.37510  0.91820  0.18850  Biso   1.000  H
  C111     1.0000 0.09210  0.09360  0.23730  Biso   1.000  C
  H151     1.0000 0.10790  0.13400  0.22900  Biso   1.000  H
  H152     1.0000 0.10290  0.06990  0.20310  Biso   1.000  H
  H153     1.0000 0.02740  0.09120  0.24810  Biso   1.000  H
  C112     1.0000 0.15030  0.07185  0.28596  Biso   1.000  C
  C113     1.0000 0.24090  0.04989  0.28354  Biso   1.000  C
  C114     1.0000 0.25940  0.02950  0.33900  Biso   1.000  C
  C115     1.0000 0.34090  0.99800  0.36290  Biso   1.000  C
  H154     1.0000 0.33610  0.95670  0.35380  Biso   1.000  H
  H155     1.0000 0.39700  0.01370  0.34590  Biso   1.000  H
  H156     1.0000 0.34290  0.00300  0.40470  Biso   1.000  H
  C116     1.0000 0.41320  0.28090  0.07650  Biso   1.000  C
  H157     1.0000 0.48000  0.27780  0.07390  Biso   1.000  H
  H158     1.0000 0.39310  0.31660  0.05750  Biso   1.000  H
  H159     1.0000 0.39490  0.28180  0.11690  Biso   1.000  H
  C117     1.0000 0.36960  0.22930  0.04730  Biso   1.000  C
  C118     1.0000 0.29020  0.22807  0.01227  Biso   1.000  C
  C119     1.0000 0.28200  0.17030  0.99430  Biso   1.000  C
  C120     1.0000 0.21380  0.14000  0.95660  Biso   1.000  C
  H160     1.0000 0.20780  0.09960  0.96890  Biso   1.000  H
  H161     1.0000 0.15440  0.15940  0.95970  Biso   1.000  H
  H162     1.0000 0.23480  0.14130  0.91670  Biso   1.000  H
  C121     1.0000 0.22600  0.27090  0.88430  Biso   1.000  C
  H163     1.0000 0.23130  0.30310  0.85710  Biso   1.000  H
  H164     1.0000 0.28530  0.25150  0.88810  Biso   1.000  H
  H165     1.0000 0.18050  0.24320  0.87010  Biso   1.000  H
  C122     1.0000 0.19630  0.29380  0.94229  Biso   1.000  C
  C123     1.0000 0.22750  0.27660  0.99786  Biso   1.000  C
  C124     1.0000 0.18260  0.31340  0.03596  Biso   1.000  C
  C125     1.0000 0.18700  0.31810  0.10030  Biso   1.000  C
  H166     1.0000 0.12710  0.32980  0.11510  Biso   1.000  H
  H167     1.0000 0.20390  0.28040  0.11660  Biso   1.000  H
  H168     1.0000 0.23300  0.34700  0.11100  Biso   1.000  H
  C126     1.0000 0.55960  0.23600  0.21440  Biso   1.000  C
  Cd7      1.0000 0.01431  0.36484  0.88458  Biso   1.000  Cd
  S7       1.0000 0.10786  0.22571  0.73414  Biso   1.000  S
  F19      1.0000 0.00246  0.44271  0.95371  Biso   1.000  F
  F20      1.0000 0.89335  0.48010  0.02171  Biso   1.000  F
  F21      1.0000 0.04700  0.45811  0.05206  Biso   1.000  F
  N55      1.0000 0.89380  0.41544  0.83979  Biso   1.000  N
  N56      1.0000 0.89690  0.47504  0.83723  Biso   1.000  N
  H169     1.0000 0.92980  0.49650  0.86060  Biso   1.000  H
  N57      1.0000 0.61670  0.43259  0.65992  Biso   1.000  N
  N58      1.0000 0.68370  0.45815  0.62891  Biso   1.000  N
  H170     1.0000 0.67900  0.46600  0.59210  Biso   1.000  H
  N59      1.0000 0.90750  0.32371  0.94904  Biso   1.000  N
  N60      1.0000 0.85280  0.35907  0.98177  Biso   1.000  N
  H171     1.0000 0.86260  0.39630  0.98660  Biso   1.000  H
  N61      1.0000 0.63590  0.16232  0.05332  Biso   1.000  N
  N62      1.0000 0.62840  0.15123  0.99558  Biso   1.000  N
  H172     1.0000 0.59260  0.12440  0.98090  Biso   1.000  H
  N63      1.0000 0.02690  0.29218  0.82099  Biso   1.000  N
  C127     1.0000 0.81530  0.33730  0.78510  Biso   1.000  C
  H173     1.0000 0.84500  0.31310  0.81420  Biso   1.000  H
  H174     1.0000 0.74900  0.33130  0.78660  Biso   1.000  H
  H175     1.0000 0.83810  0.32670  0.74690  Biso   1.000  H
  C128     1.0000 0.83660  0.40013  0.79664  Biso   1.000  C
  C129     1.0000 0.80370  0.44985  0.76692  Biso   1.000  C
  C130     1.0000 0.84400  0.49690  0.79490  Biso   1.000  C
  C131     1.0000 0.83430  0.56100  0.78520  Biso   1.000  C
  H176     1.0000 0.85070  0.57020  0.74550  Biso   1.000  H
  H177     1.0000 0.77090  0.57260  0.79240  Biso   1.000  H
  H178     1.0000 0.87510  0.58180  0.81150  Biso   1.000  H
  C132     1.0000 0.59210  0.40640  0.76270  Biso   1.000  C
  H179     1.0000 0.60790  0.36600  0.77100  Biso   1.000  H
  H180     1.0000 0.60290  0.43010  0.79690  Biso   1.000  H
  H181     1.0000 0.52740  0.40880  0.75190  Biso   1.000  H
  C133     1.0000 0.65030  0.42815  0.71404  Biso   1.000  C
  C134     1.0000 0.74090  0.45011  0.71646  Biso   1.000  C
  C135     1.0000 0.75940  0.47050  0.66100  Biso   1.000  C
  C136     1.0000 0.84090  0.50200  0.63710  Biso   1.000  C
  H182     1.0000 0.83610  0.54330  0.64620  Biso   1.000  H
  H183     1.0000 0.89700  0.48630  0.65410  Biso   1.000  H
  H184     1.0000 0.84290  0.49700  0.59530  Biso   1.000  H
  C137     1.0000 0.91320  0.21910  0.92350  Biso   1.000  C
  H185     1.0000 0.98000  0.22220  0.92610  Biso   1.000  H
  H186     1.0000 0.89310  0.18340  0.94250  Biso   1.000  H
  H187     1.0000 0.89490  0.21820  0.88310  Biso   1.000  H
  C138     1.0000 0.86960  0.27070  0.95270  Biso   1.000  C
  C139     1.0000 0.79020  0.27193  0.98773  Biso   1.000  C
  C140     1.0000 0.78200  0.32970  0.00570  Biso   1.000  C
  C141     1.0000 0.71380  0.36000  0.04340  Biso   1.000  C
  H188     1.0000 0.70780  0.40040  0.03110  Biso   1.000  H
  H189     1.0000 0.65440  0.34060  0.04030  Biso   1.000  H
  H190     1.0000 0.73480  0.35870  0.08330  Biso   1.000  H
  C142     1.0000 0.72600  0.22910  0.11570  Biso   1.000  C
  H191     1.0000 0.73130  0.19690  0.14290  Biso   1.000  H
  H192     1.0000 0.78530  0.24850  0.11190  Biso   1.000  H
  H193     1.0000 0.68050  0.25680  0.12990  Biso   1.000  H
  C143     1.0000 0.69630  0.20620  0.05771  Biso   1.000  C
  C144     1.0000 0.72750  0.22340  0.00214  Biso   1.000  C
  C145     1.0000 0.68260  0.18660  0.96404  Biso   1.000  C
  C146     1.0000 0.68700  0.18190  0.89970  Biso   1.000  C
  H194     1.0000 0.62710  0.17020  0.88490  Biso   1.000  H
  H195     1.0000 0.70390  0.21960  0.88340  Biso   1.000  H
  H196     1.0000 0.73300  0.15300  0.88900  Biso   1.000  H
  C147     1.0000 0.05960  0.26400  0.78560  Biso   1.000  C
  Cd8      1.0000 0.48569  0.63516  0.38458  Biso   1.000  Cd
  S8       1.0000 0.39214  0.77429  0.23414  Biso   1.000  S
  F22      1.0000 0.49754  0.55729  0.45371  Biso   1.000  F
  F23      1.0000 0.60665  0.51990  0.52171  Biso   1.000  F
  F24      1.0000 0.45300  0.54189  0.55206  Biso   1.000  F
  N64      1.0000 0.60620  0.58456  0.33979  Biso   1.000  N
  N65      1.0000 0.60310  0.52496  0.33723  Biso   1.000  N
  H197     1.0000 0.57020  0.50350  0.36060  Biso   1.000  H
  N66      1.0000 0.88330  0.56741  0.15992  Biso   1.000  N
  N67      1.0000 0.81630  0.54185  0.12891  Biso   1.000  N
  H198     1.0000 0.82100  0.53400  0.09210  Biso   1.000  H
  N68      1.0000 0.59250  0.67629  0.44904  Biso   1.000  N
  N69      1.0000 0.64720  0.64093  0.48177  Biso   1.000  N
  H199     1.0000 0.63740  0.60370  0.48660  Biso   1.000  H
  N70      1.0000 0.86410  0.83768  0.55332  Biso   1.000  N
  N71      1.0000 0.87160  0.84877  0.49558  Biso   1.000  N
  H200     1.0000 0.90740  0.87560  0.48090  Biso   1.000  H
  N72      1.0000 0.47310  0.70782  0.32099  Biso   1.000  N
  C148     1.0000 0.68470  0.66270  0.28510  Biso   1.000  C
  H201     1.0000 0.65500  0.68690  0.31420  Biso   1.000  H
  H202     1.0000 0.75100  0.66870  0.28660  Biso   1.000  H
  H203     1.0000 0.66190  0.67330  0.24690  Biso   1.000  H
  C149     1.0000 0.66340  0.59987  0.29664  Biso   1.000  C
  C150     1.0000 0.69630  0.55015  0.26692  Biso   1.000  C
  C151     1.0000 0.65600  0.50310  0.29490  Biso   1.000  C
  C152     1.0000 0.66570  0.43900  0.28520  Biso   1.000  C
  H204     1.0000 0.64930  0.42980  0.24550  Biso   1.000  H
  H205     1.0000 0.72910  0.42740  0.29240  Biso   1.000  H
  H206     1.0000 0.62490  0.41820  0.31150  Biso   1.000  H
  C153     1.0000 0.90790  0.59360  0.26270  Biso   1.000  C
  H207     1.0000 0.89210  0.63400  0.27100  Biso   1.000  H
  H208     1.0000 0.89710  0.56990  0.29690  Biso   1.000  H
  H209     1.0000 0.97260  0.59120  0.25190  Biso   1.000  H
  C154     1.0000 0.84970  0.57185  0.21404  Biso   1.000  C
  C155     1.0000 0.75910  0.54989  0.21646  Biso   1.000  C
  C156     1.0000 0.74060  0.52950  0.16100  Biso   1.000  C
  C157     1.0000 0.65910  0.49800  0.13710  Biso   1.000  C
  H210     1.0000 0.66390  0.45670  0.14620  Biso   1.000  H
  H211     1.0000 0.60300  0.51370  0.15410  Biso   1.000  H
  H212     1.0000 0.65710  0.50300  0.09530  Biso   1.000  H
  C158     1.0000 0.58680  0.78090  0.42350  Biso   1.000  C
  H213     1.0000 0.52000  0.77780  0.42610  Biso   1.000  H
  H214     1.0000 0.60690  0.81660  0.44250  Biso   1.000  H
  H215     1.0000 0.60510  0.78180  0.38310  Biso   1.000  H
  C159     1.0000 0.63040  0.72930  0.45270  Biso   1.000  C
  C160     1.0000 0.70980  0.72807  0.48773  Biso   1.000  C
  C161     1.0000 0.71800  0.67030  0.50570  Biso   1.000  C
  C162     1.0000 0.78620  0.64000  0.54340  Biso   1.000  C
  H216     1.0000 0.79220  0.59960  0.53110  Biso   1.000  H
  H217     1.0000 0.84560  0.65940  0.54030  Biso   1.000  H
  H218     1.0000 0.76520  0.64130  0.58330  Biso   1.000  H
  C163     1.0000 0.77400  0.77090  0.61570  Biso   1.000  C
  H219     1.0000 0.76870  0.80310  0.64290  Biso   1.000  H
  H220     1.0000 0.71470  0.75150  0.61190  Biso   1.000  H
  H221     1.0000 0.81950  0.74320  0.62990  Biso   1.000  H
  C164     1.0000 0.80370  0.79380  0.55771  Biso   1.000  C
  C165     1.0000 0.77250  0.77660  0.50214  Biso   1.000  C
  C166     1.0000 0.81740  0.81340  0.46404  Biso   1.000  C
  C167     1.0000 0.81300  0.81810  0.39970  Biso   1.000  C
  H222     1.0000 0.87290  0.82980  0.38490  Biso   1.000  H
  H223     1.0000 0.79610  0.78040  0.38340  Biso   1.000  H
  H224     1.0000 0.76700  0.84700  0.38900  Biso   1.000  H
  C168     1.0000 0.44040  0.73600  0.28560  Biso   1.000  C
  Si1      1.0000 0.00000  0.00000  0.50000  Biso   1.000  Si
  Si2      1.0000 0.50000  0.00000  0.00000  Biso   1.000  Si
  Si3      1.0000 0.00000  0.50000  0.00000  Biso   1.000  Si
  Si4      1.0000 0.50000  0.50000  0.50000  Biso   1.000  Si
