data_image0
_cell_length_a       13.6869
_cell_length_b       15.5383
_cell_length_c       15.877
_cell_angle_alpha    90
_cell_angle_beta     90.047
_cell_angle_gamma    90

_symmetry_space_group_name_H-M    "P 1"
_symmetry_int_tables_number       1

loop_
  _symmetry_equiv_pos_as_xyz
  'x, y, z'

loop_
  _atom_site_label
  _atom_site_occupancy
  _atom_site_fract_x
  _atom_site_fract_y
  _atom_site_fract_z
  _atom_site_thermal_displace_type
  _atom_site_B_iso_or_equiv
  _atom_site_type_symbol
  F1       1.0000 0.97449  0.98678  0.89567  Biso   1.000  F
  F2       1.0000 0.98870  0.10664  0.98842  Biso   1.000  F
  F3       1.0000 0.11920  0.00636  0.97583  Biso   1.000  F
  N1       1.0000 0.10870  0.09683  0.77600  Biso   1.000  N
  N2       1.0000 0.08520  0.15123  0.83930  Biso   1.000  N
  H1       1.0000 0.04370  0.13910  0.87900  Biso   1.000  H
  N3       1.0000 0.38050  0.38430  0.72454  Biso   1.000  N
  N4       1.0000 0.32650  0.38750  0.65320  Biso   1.000  N
  H2       1.0000 0.33770  0.42260  0.61160  Biso   1.000  H
  C1       1.0000 0.21670  0.09870  0.65170  Biso   1.000  C
  H3       1.0000 0.22180  0.03700  0.65960  Biso   1.000  H
  H4       1.0000 0.28130  0.12270  0.64250  Biso   1.000  H
  H5       1.0000 0.17570  0.11070  0.60330  Biso   1.000  H
  C2       1.0000 0.17260  0.13850  0.72860  Biso   1.000  C
  C3       1.0000 0.19040  0.22170  0.76210  Biso   1.000  C
  C4       1.0000 0.13360  0.22650  0.83350  Biso   1.000  C
  C5       1.0000 0.12270  0.29450  0.89910  Biso   1.000  C
  H6       1.0000 0.05400  0.30320  0.91110  Biso   1.000  H
  H7       1.0000 0.15110  0.34780  0.87890  Biso   1.000  H
  H8       1.0000 0.15610  0.27660  0.95010  Biso   1.000  H
  C6       1.0000 0.38030  0.30030  0.85610  Biso   1.000  C
  H9       1.0000 0.45110  0.30290  0.85390  Biso   1.000  H
  H10      1.0000 0.36010  0.24240  0.87090  Biso   1.000  H
  H11      1.0000 0.35660  0.34040  0.89820  Biso   1.000  H
  C7       1.0000 0.33950  0.32350  0.77250  Biso   1.000  C
  C8       1.0000 0.25750  0.28880  0.73020  Biso   1.000  C
  C9       1.0000 0.25330  0.33000  0.65440  Biso   1.000  C
  C10      1.0000 0.18080  0.32450  0.58390  Biso   1.000  C
  H12      1.0000 0.20720  0.28900  0.53910  Biso   1.000  H
  H13      1.0000 0.16760  0.38170  0.56240  Biso   1.000  H
  H14      1.0000 0.12060  0.29910  0.60450  Biso   1.000  H
  F4       1.0000 0.47449  0.48678  0.89567  Biso   1.000  F
  F5       1.0000 0.48870  0.60664  0.98842  Biso   1.000  F
  F6       1.0000 0.61920  0.50636  0.97583  Biso   1.000  F
  N5       1.0000 0.60870  0.59683  0.77600  Biso   1.000  N
  N6       1.0000 0.58520  0.65123  0.83930  Biso   1.000  N
  H15      1.0000 0.54370  0.63910  0.87900  Biso   1.000  H
  N7       1.0000 0.88050  0.88430  0.72454  Biso   1.000  N
  N8       1.0000 0.82650  0.88750  0.65320  Biso   1.000  N
  H16      1.0000 0.83770  0.92260  0.61160  Biso   1.000  H
  C11      1.0000 0.71670  0.59870  0.65170  Biso   1.000  C
  H17      1.0000 0.72180  0.53700  0.65960  Biso   1.000  H
  H18      1.0000 0.78130  0.62270  0.64250  Biso   1.000  H
  H19      1.0000 0.67570  0.61070  0.60330  Biso   1.000  H
  C12      1.0000 0.67260  0.63850  0.72860  Biso   1.000  C
  C13      1.0000 0.69040  0.72170  0.76210  Biso   1.000  C
  C14      1.0000 0.63360  0.72650  0.83350  Biso   1.000  C
  C15      1.0000 0.62270  0.79450  0.89910  Biso   1.000  C
  H20      1.0000 0.55400  0.80320  0.91110  Biso   1.000  H
  H21      1.0000 0.65110  0.84780  0.87890  Biso   1.000  H
  H22      1.0000 0.65610  0.77660  0.95010  Biso   1.000  H
  C16      1.0000 0.88030  0.80030  0.85610  Biso   1.000  C
  H23      1.0000 0.95110  0.80290  0.85390  Biso   1.000  H
  H24      1.0000 0.86010  0.74240  0.87090  Biso   1.000  H
  H25      1.0000 0.85660  0.84040  0.89820  Biso   1.000  H
  C17      1.0000 0.83950  0.82350  0.77250  Biso   1.000  C
  C18      1.0000 0.75750  0.78880  0.73020  Biso   1.000  C
  C19      1.0000 0.75330  0.83000  0.65440  Biso   1.000  C
  C20      1.0000 0.68080  0.82450  0.58390  Biso   1.000  C
  H26      1.0000 0.70720  0.78900  0.53910  Biso   1.000  H
  H27      1.0000 0.66760  0.88170  0.56240  Biso   1.000  H
  H28      1.0000 0.62060  0.79910  0.60450  Biso   1.000  H
  F7       1.0000 0.02551  0.98678  0.60433  Biso   1.000  F
  F8       1.0000 0.01130  0.10664  0.51158  Biso   1.000  F
  F9       1.0000 0.88080  0.00636  0.52417  Biso   1.000  F
  N9       1.0000 0.89130  0.09683  0.72400  Biso   1.000  N
  N10      1.0000 0.91480  0.15123  0.66070  Biso   1.000  N
  H29      1.0000 0.95630  0.13910  0.62100  Biso   1.000  H
  N11      1.0000 0.61950  0.38430  0.77546  Biso   1.000  N
  N12      1.0000 0.67350  0.38750  0.84680  Biso   1.000  N
  H30      1.0000 0.66230  0.42260  0.88840  Biso   1.000  H
  C21      1.0000 0.78330  0.09870  0.84830  Biso   1.000  C
  H31      1.0000 0.77820  0.03700  0.84040  Biso   1.000  H
  H32      1.0000 0.71870  0.12270  0.85750  Biso   1.000  H
  H33      1.0000 0.82430  0.11070  0.89670  Biso   1.000  H
  C22      1.0000 0.82740  0.13850  0.77140  Biso   1.000  C
  C23      1.0000 0.80960  0.22170  0.73790  Biso   1.000  C
  C24      1.0000 0.86640  0.22650  0.66650  Biso   1.000  C
  C25      1.0000 0.87730  0.29450  0.60090  Biso   1.000  C
  H34      1.0000 0.94600  0.30320  0.58890  Biso   1.000  H
  H35      1.0000 0.84890  0.34780  0.62110  Biso   1.000  H
  H36      1.0000 0.84390  0.27660  0.54990  Biso   1.000  H
  C26      1.0000 0.61970  0.30030  0.64390  Biso   1.000  C
  H37      1.0000 0.54890  0.30290  0.64610  Biso   1.000  H
  H38      1.0000 0.63990  0.24240  0.62910  Biso   1.000  H
  H39      1.0000 0.64340  0.34040  0.60180  Biso   1.000  H
  C27      1.0000 0.66050  0.32350  0.72750  Biso   1.000  C
  C28      1.0000 0.74250  0.28880  0.76980  Biso   1.000  C
  C29      1.0000 0.74670  0.33000  0.84560  Biso   1.000  C
  C30      1.0000 0.81920  0.32450  0.91610  Biso   1.000  C
  H40      1.0000 0.79280  0.28900  0.96090  Biso   1.000  H
  H41      1.0000 0.83240  0.38170  0.93760  Biso   1.000  H
  H42      1.0000 0.87940  0.29910  0.89550  Biso   1.000  H
  F10      1.0000 0.52551  0.48678  0.60433  Biso   1.000  F
  F11      1.0000 0.51130  0.60664  0.51158  Biso   1.000  F
  F12      1.0000 0.38080  0.50636  0.52417  Biso   1.000  F
  N13      1.0000 0.39130  0.59683  0.72400  Biso   1.000  N
  N14      1.0000 0.41480  0.65123  0.66070  Biso   1.000  N
  H43      1.0000 0.45630  0.63910  0.62100  Biso   1.000  H
  N15      1.0000 0.11950  0.88430  0.77546  Biso   1.000  N
  N16      1.0000 0.17350  0.88750  0.84680  Biso   1.000  N
  H44      1.0000 0.16230  0.92260  0.88840  Biso   1.000  H
  C31      1.0000 0.28330  0.59870  0.84830  Biso   1.000  C
  H45      1.0000 0.27820  0.53700  0.84040  Biso   1.000  H
  H46      1.0000 0.21870  0.62270  0.85750  Biso   1.000  H
  H47      1.0000 0.32430  0.61070  0.89670  Biso   1.000  H
  C32      1.0000 0.32740  0.63850  0.77140  Biso   1.000  C
  C33      1.0000 0.30960  0.72170  0.73790  Biso   1.000  C
  C34      1.0000 0.36640  0.72650  0.66650  Biso   1.000  C
  C35      1.0000 0.37730  0.79450  0.60090  Biso   1.000  C
  H48      1.0000 0.44600  0.80320  0.58890  Biso   1.000  H
  H49      1.0000 0.34890  0.84780  0.62110  Biso   1.000  H
  H50      1.0000 0.34390  0.77660  0.54990  Biso   1.000  H
  C36      1.0000 0.11970  0.80030  0.64390  Biso   1.000  C
  H51      1.0000 0.04890  0.80290  0.64610  Biso   1.000  H
  H52      1.0000 0.13990  0.74240  0.62910  Biso   1.000  H
  H53      1.0000 0.14340  0.84040  0.60180  Biso   1.000  H
  C37      1.0000 0.16050  0.82350  0.72750  Biso   1.000  C
  C38      1.0000 0.24250  0.78880  0.76980  Biso   1.000  C
  C39      1.0000 0.24670  0.83000  0.84560  Biso   1.000  C
  C40      1.0000 0.31920  0.82450  0.91610  Biso   1.000  C
  H54      1.0000 0.29280  0.78900  0.96090  Biso   1.000  H
  H55      1.0000 0.33240  0.88170  0.93760  Biso   1.000  H
  H56      1.0000 0.37940  0.79910  0.89550  Biso   1.000  H
  F13      1.0000 0.02551  0.01322  0.10433  Biso   1.000  F
  F14      1.0000 0.01130  0.89336  0.01158  Biso   1.000  F
  F15      1.0000 0.88080  0.99364  0.02417  Biso   1.000  F
  N17      1.0000 0.89130  0.90317  0.22400  Biso   1.000  N
  N18      1.0000 0.91480  0.84877  0.16070  Biso   1.000  N
  H57      1.0000 0.95630  0.86090  0.12100  Biso   1.000  H
  N19      1.0000 0.61950  0.61570  0.27546  Biso   1.000  N
  N20      1.0000 0.67350  0.61250  0.34680  Biso   1.000  N
  H58      1.0000 0.66230  0.57740  0.38840  Biso   1.000  H
  C41      1.0000 0.78330  0.90130  0.34830  Biso   1.000  C
  H59      1.0000 0.77820  0.96300  0.34040  Biso   1.000  H
  H60      1.0000 0.71870  0.87730  0.35750  Biso   1.000  H
  H61      1.0000 0.82430  0.88930  0.39670  Biso   1.000  H
  C42      1.0000 0.82740  0.86150  0.27140  Biso   1.000  C
  C43      1.0000 0.80960  0.77830  0.23790  Biso   1.000  C
  C44      1.0000 0.86640  0.77350  0.16650  Biso   1.000  C
  C45      1.0000 0.87730  0.70550  0.10090  Biso   1.000  C
  H62      1.0000 0.94600  0.69680  0.08890  Biso   1.000  H
  H63      1.0000 0.84890  0.65220  0.12110  Biso   1.000  H
  H64      1.0000 0.84390  0.72340  0.04990  Biso   1.000  H
  C46      1.0000 0.61970  0.69970  0.14390  Biso   1.000  C
  H65      1.0000 0.54890  0.69710  0.14610  Biso   1.000  H
  H66      1.0000 0.63990  0.75760  0.12910  Biso   1.000  H
  H67      1.0000 0.64340  0.65960  0.10180  Biso   1.000  H
  C47      1.0000 0.66050  0.67650  0.22750  Biso   1.000  C
  C48      1.0000 0.74250  0.71120  0.26980  Biso   1.000  C
  C49      1.0000 0.74670  0.67000  0.34560  Biso   1.000  C
  C50      1.0000 0.81920  0.67550  0.41610  Biso   1.000  C
  H68      1.0000 0.79280  0.71100  0.46090  Biso   1.000  H
  H69      1.0000 0.83240  0.61830  0.43760  Biso   1.000  H
  H70      1.0000 0.87940  0.70090  0.39550  Biso   1.000  H
  F16      1.0000 0.52551  0.51322  0.10433  Biso   1.000  F
  F17      1.0000 0.51130  0.39336  0.01158  Biso   1.000  F
  F18      1.0000 0.38080  0.49364  0.02417  Biso   1.000  F
  N21      1.0000 0.39130  0.40317  0.22400  Biso   1.000  N
  N22      1.0000 0.41480  0.34877  0.16070  Biso   1.000  N
  H71      1.0000 0.45630  0.36090  0.12100  Biso   1.000  H
  N23      1.0000 0.11950  0.11570  0.27546  Biso   1.000  N
  N24      1.0000 0.17350  0.11250  0.34680  Biso   1.000  N
  H72      1.0000 0.16230  0.07740  0.38840  Biso   1.000  H
  C51      1.0000 0.28330  0.40130  0.34830  Biso   1.000  C
  H73      1.0000 0.27820  0.46300  0.34040  Biso   1.000  H
  H74      1.0000 0.21870  0.37730  0.35750  Biso   1.000  H
  H75      1.0000 0.32430  0.38930  0.39670  Biso   1.000  H
  C52      1.0000 0.32740  0.36150  0.27140  Biso   1.000  C
  C53      1.0000 0.30960  0.27830  0.23790  Biso   1.000  C
  C54      1.0000 0.36640  0.27350  0.16650  Biso   1.000  C
  C55      1.0000 0.37730  0.20550  0.10090  Biso   1.000  C
  H76      1.0000 0.44600  0.19680  0.08890  Biso   1.000  H
  H77      1.0000 0.34890  0.15220  0.12110  Biso   1.000  H
  H78      1.0000 0.34390  0.22340  0.04990  Biso   1.000  H
  C56      1.0000 0.11970  0.19970  0.14390  Biso   1.000  C
  H79      1.0000 0.04890  0.19710  0.14610  Biso   1.000  H
  H80      1.0000 0.13990  0.25760  0.12910  Biso   1.000  H
  H81      1.0000 0.14340  0.15960  0.10180  Biso   1.000  H
  C57      1.0000 0.16050  0.17650  0.22750  Biso   1.000  C
  C58      1.0000 0.24250  0.21120  0.26980  Biso   1.000  C
  C59      1.0000 0.24670  0.17000  0.34560  Biso   1.000  C
  C60      1.0000 0.31920  0.17550  0.41610  Biso   1.000  C
  H82      1.0000 0.29280  0.21100  0.46090  Biso   1.000  H
  H83      1.0000 0.33240  0.11830  0.43760  Biso   1.000  H
  H84      1.0000 0.37940  0.20090  0.39550  Biso   1.000  H
  F19      1.0000 0.97449  0.01322  0.39567  Biso   1.000  F
  F20      1.0000 0.98870  0.89336  0.48842  Biso   1.000  F
  F21      1.0000 0.11920  0.99364  0.47583  Biso   1.000  F
  N25      1.0000 0.10870  0.90317  0.27600  Biso   1.000  N
  N26      1.0000 0.08520  0.84877  0.33930  Biso   1.000  N
  H85      1.0000 0.04370  0.86090  0.37900  Biso   1.000  H
  N27      1.0000 0.38050  0.61570  0.22454  Biso   1.000  N
  N28      1.0000 0.32650  0.61250  0.15320  Biso   1.000  N
  H86      1.0000 0.33770  0.57740  0.11160  Biso   1.000  H
  C61      1.0000 0.21670  0.90130  0.15170  Biso   1.000  C
  H87      1.0000 0.22180  0.96300  0.15960  Biso   1.000  H
  H88      1.0000 0.28130  0.87730  0.14250  Biso   1.000  H
  H89      1.0000 0.17570  0.88930  0.10330  Biso   1.000  H
  C62      1.0000 0.17260  0.86150  0.22860  Biso   1.000  C
  C63      1.0000 0.19040  0.77830  0.26210  Biso   1.000  C
  C64      1.0000 0.13360  0.77350  0.33350  Biso   1.000  C
  C65      1.0000 0.12270  0.70550  0.39910  Biso   1.000  C
  H90      1.0000 0.05400  0.69680  0.41110  Biso   1.000  H
  H91      1.0000 0.15110  0.65220  0.37890  Biso   1.000  H
  H92      1.0000 0.15610  0.72340  0.45010  Biso   1.000  H
  C66      1.0000 0.38030  0.69970  0.35610  Biso   1.000  C
  H93      1.0000 0.45110  0.69710  0.35390  Biso   1.000  H
  H94      1.0000 0.36010  0.75760  0.37090  Biso   1.000  H
  H95      1.0000 0.35660  0.65960  0.39820  Biso   1.000  H
  C67      1.0000 0.33950  0.67650  0.27250  Biso   1.000  C
  C68      1.0000 0.25750  0.71120  0.23020  Biso   1.000  C
  C69      1.0000 0.25330  0.67000  0.15440  Biso   1.000  C
  C70      1.0000 0.18080  0.67550  0.08390  Biso   1.000  C
  H96      1.0000 0.20720  0.71100  0.03910  Biso   1.000  H
  H97      1.0000 0.16760  0.61830  0.06240  Biso   1.000  H
  H98      1.0000 0.12060  0.70090  0.10450  Biso   1.000  H
  F22      1.0000 0.47449  0.51322  0.39567  Biso   1.000  F
  F23      1.0000 0.48870  0.39336  0.48842  Biso   1.000  F
  F24      1.0000 0.61920  0.49364  0.47583  Biso   1.000  F
  N29      1.0000 0.60870  0.40317  0.27600  Biso   1.000  N
  N30      1.0000 0.58520  0.34877  0.33930  Biso   1.000  N
  H99      1.0000 0.54370  0.36090  0.37900  Biso   1.000  H
  N31      1.0000 0.88050  0.11570  0.22454  Biso   1.000  N
  N32      1.0000 0.82650  0.11250  0.15320  Biso   1.000  N
  H100     1.0000 0.83770  0.07740  0.11160  Biso   1.000  H
  C71      1.0000 0.71670  0.40130  0.15170  Biso   1.000  C
  H101     1.0000 0.72180  0.46300  0.15960  Biso   1.000  H
  H102     1.0000 0.78130  0.37730  0.14250  Biso   1.000  H
  H103     1.0000 0.67570  0.38930  0.10330  Biso   1.000  H
  C72      1.0000 0.67260  0.36150  0.22860  Biso   1.000  C
  C73      1.0000 0.69040  0.27830  0.26210  Biso   1.000  C
  C74      1.0000 0.63360  0.27350  0.33350  Biso   1.000  C
  C75      1.0000 0.62270  0.20550  0.39910  Biso   1.000  C
  H104     1.0000 0.55400  0.19680  0.41110  Biso   1.000  H
  H105     1.0000 0.65110  0.15220  0.37890  Biso   1.000  H
  H106     1.0000 0.65610  0.22340  0.45010  Biso   1.000  H
  C76      1.0000 0.88030  0.19970  0.35610  Biso   1.000  C
  H107     1.0000 0.95110  0.19710  0.35390  Biso   1.000  H
  H108     1.0000 0.86010  0.25760  0.37090  Biso   1.000  H
  H109     1.0000 0.85660  0.15960  0.39820  Biso   1.000  H
  C77      1.0000 0.83950  0.17650  0.27250  Biso   1.000  C
  C78      1.0000 0.75750  0.21120  0.23020  Biso   1.000  C
  C79      1.0000 0.75330  0.17000  0.15440  Biso   1.000  C
  C80      1.0000 0.68080  0.17550  0.08390  Biso   1.000  C
  H110     1.0000 0.70720  0.21100  0.03910  Biso   1.000  H
  H111     1.0000 0.66760  0.11830  0.06240  Biso   1.000  H
  H112     1.0000 0.62060  0.20090  0.10450  Biso   1.000  H
  Cd1      1.0000 0.00000  0.98395  0.75000  Biso   1.000  Cd
  Cd2      1.0000 0.50000  0.48395  0.75000  Biso   1.000  Cd
  Cd3      1.0000 0.00000  0.01605  0.25000  Biso   1.000  Cd
  Cd4      1.0000 0.50000  0.51605  0.25000  Biso   1.000  Cd
  Si1      1.0000 0.00000  0.00000  0.00000  Biso   1.000  Si
  Si2      1.0000 0.50000  0.50000  0.00000  Biso   1.000  Si
  Si3      1.0000 0.00000  0.00000  0.50000  Biso   1.000  Si
  Si4      1.0000 0.50000  0.50000  0.50000  Biso   1.000  Si
