data_image0
_cell_length_a       9.955
_cell_length_b       12.795
_cell_length_c       13.801
_cell_angle_alpha    69.415
_cell_angle_beta     82.562
_cell_angle_gamma    83.117

_symmetry_space_group_name_H-M    P 1
_symmetry_int_tables_number       1

loop_
  _symmetry_equiv_pos_as_xyz
  'x, y, z'

loop_
  _atom_site_label
  _atom_site_occupancy
  _atom_site_fract_x
  _atom_site_fract_y
  _atom_site_fract_z
  _atom_site_thermal_displace_type
  _atom_site_B_iso_or_equiv
  _atom_site_type_symbol
  Tm1      1.0000 0.53019  0.64035  0.37481  Biso   1.000  Tm
  Tm2      1.0000 0.46981  0.35965  0.62519  Biso   1.000  Tm
  H1       1.0000 0.18970  0.93800  0.48650  Biso   1.000  H
  H2       1.0000 0.26140  0.95450  0.37460  Biso   1.000  H
  H3       1.0000 0.28550  0.84050  0.46500  Biso   1.000  H
  H4       1.0000 0.68930  0.76690  0.61760  Biso   1.000  H
  H5       1.0000 0.79490  0.85780  0.57470  Biso   1.000  H
  H6       1.0000 0.70520  0.84580  0.67960  Biso   1.000  H
  H7       1.0000 0.26830  0.43590  0.35340  Biso   1.000  H
  H8       1.0000 0.14590  0.40600  0.30980  Biso   1.000  H
  H9       1.0000 0.18370  0.53040  0.27300  Biso   1.000  H
  H10      1.0000 0.17930  0.64720  0.58720  Biso   1.000  H
  H11      1.0000 0.02980  0.67180  0.63030  Biso   1.000  H
  H12      1.0000 0.11460  0.56130  0.68940  Biso   1.000  H
  H13      1.0000 0.27510  0.89610  0.20200  Biso   1.000  H
  H14      1.0000 0.25420  0.02530  0.18130  Biso   1.000  H
  H15      1.0000 0.18610  0.97350  0.11420  Biso   1.000  H
  H16      1.0000 0.71520  0.77530  0.09410  Biso   1.000  H
  H17      1.0000 0.78050  0.83420  0.98090  Biso   1.000  H
  H18      1.0000 0.80360  0.87640  0.07080  Biso   1.000  H
  H19      1.0000 0.76900  0.75920  0.40940  Biso   1.000  H
  H20      1.0000 0.99240  0.80370  0.16650  Biso   1.000  H
  H21      1.0000 0.09680  0.72660  0.24230  Biso   1.000  H
  H22      1.0000 0.96590  0.67820  0.22860  Biso   1.000  H
  H23      1.0000 0.93340  0.86070  0.40720  Biso   1.000  H
  H24      1.0000 0.07770  0.80880  0.37960  Biso   1.000  H
  H25      1.0000 0.01150  0.91500  0.29770  Biso   1.000  H
  H26      1.0000 0.61690  0.44940  0.33610  Biso   1.000  H
  H27      1.0000 0.58950  0.53020  0.23780  Biso   1.000  H
  H28      1.0000 0.81030  0.06200  0.51350  Biso   1.000  H
  H29      1.0000 0.73860  0.04550  0.62540  Biso   1.000  H
  H30      1.0000 0.71450  0.15950  0.53500  Biso   1.000  H
  H31      1.0000 0.31070  0.23310  0.38240  Biso   1.000  H
  H32      1.0000 0.20510  0.14220  0.42530  Biso   1.000  H
  H33      1.0000 0.29480  0.15420  0.32040  Biso   1.000  H
  H34      1.0000 0.73170  0.56410  0.64660  Biso   1.000  H
  H35      1.0000 0.85410  0.59400  0.69020  Biso   1.000  H
  H36      1.0000 0.81630  0.46960  0.72700  Biso   1.000  H
  H37      1.0000 0.82070  0.35280  0.41280  Biso   1.000  H
  H38      1.0000 0.97020  0.32820  0.36970  Biso   1.000  H
  H39      1.0000 0.88540  0.43870  0.31060  Biso   1.000  H
  H40      1.0000 0.72490  0.10390  0.79800  Biso   1.000  H
  H41      1.0000 0.74580  0.97470  0.81870  Biso   1.000  H
  H42      1.0000 0.81390  0.02650  0.88580  Biso   1.000  H
  H43      1.0000 0.28480  0.22470  0.90590  Biso   1.000  H
  H44      1.0000 0.21950  0.16580  0.01910  Biso   1.000  H
  H45      1.0000 0.19640  0.12360  0.92920  Biso   1.000  H
  H46      1.0000 0.23100  0.24080  0.59060  Biso   1.000  H
  H47      1.0000 0.00760  0.19630  0.83350  Biso   1.000  H
  H48      1.0000 0.90320  0.27340  0.75770  Biso   1.000  H
  H49      1.0000 0.03410  0.32180  0.77140  Biso   1.000  H
  H50      1.0000 0.06660  0.13930  0.59280  Biso   1.000  H
  H51      1.0000 0.92230  0.19120  0.62040  Biso   1.000  H
  H52      1.0000 0.98850  0.08500  0.70230  Biso   1.000  H
  H53      1.0000 0.38310  0.55060  0.66390  Biso   1.000  H
  H54      1.0000 0.41050  0.46980  0.76220  Biso   1.000  H
  C1       1.0000 0.47440  0.76420  0.55630  Biso   1.000  C
  C2       1.0000 0.48860  0.88810  0.52650  Biso   1.000  C
  C3       1.0000 0.38750  0.96250  0.47360  Biso   1.000  C
  C4       1.0000 0.27090  0.92020  0.44770  Biso   1.000  C
  C5       1.0000 0.60080  0.92360  0.55320  Biso   1.000  C
  C6       1.0000 0.70710  0.84110  0.61150  Biso   1.000  C
  C7       1.0000 0.26830  0.57300  0.45150  Biso   1.000  C
  C8       1.0000 0.12840  0.53430  0.47810  Biso   1.000  C
  C9       1.0000 0.08510  0.48010  0.41830  Biso   1.000  C
  C10      1.0000 0.17930  0.46140  0.33070  Biso   1.000  C
  C11      1.0000 0.04560  0.55560  0.55960  Biso   1.000  C
  C12      1.0000 0.09690  0.61420  0.62220  Biso   1.000  C
  C13      1.0000 0.50520  0.81750  0.19370  Biso   1.000  C
  C14      1.0000 0.50180  0.91310  0.09200  Biso   1.000  C
  C15      1.0000 0.38700  0.98610  0.07360  Biso   1.000  C
  C16      1.0000 0.26490  0.96870  0.14950  Biso   1.000  C
  C17      1.0000 0.61390  0.92600  0.02080  Biso   1.000  C
  C18      1.0000 0.73990  0.84560  0.04370  Biso   1.000  C
  C19      1.0000 0.81020  0.73730  0.35430  Biso   1.000  C
  C20      1.0000 0.00230  0.74330  0.23110  Biso   1.000  C
  C21      1.0000 0.99380  0.84580  0.35260  Biso   1.000  C
  C22      1.0000 0.52560  0.23580  0.44370  Biso   1.000  C
  C23      1.0000 0.51140  0.11190  0.47350  Biso   1.000  C
  C24      1.0000 0.61250  0.03750  0.52640  Biso   1.000  C
  C25      1.0000 0.72910  0.07980  0.55230  Biso   1.000  C
  C26      1.0000 0.39920  0.07640  0.44680  Biso   1.000  C
  C27      1.0000 0.29290  0.15890  0.38850  Biso   1.000  C
  C28      1.0000 0.73170  0.42700  0.54850  Biso   1.000  C
  C29      1.0000 0.87160  0.46570  0.52190  Biso   1.000  C
  C30      1.0000 0.91490  0.51990  0.58170  Biso   1.000  C
  C31      1.0000 0.82070  0.53860  0.66930  Biso   1.000  C
  C32      1.0000 0.95440  0.44440  0.44040  Biso   1.000  C
  C33      1.0000 0.90310  0.38580  0.37780  Biso   1.000  C
  C34      1.0000 0.49480  0.18250  0.80630  Biso   1.000  C
  C35      1.0000 0.49820  0.08690  0.90800  Biso   1.000  C
  C36      1.0000 0.61300  0.01390  0.92640  Biso   1.000  C
  C37      1.0000 0.73510  0.03130  0.85050  Biso   1.000  C
  C38      1.0000 0.38610  0.07400  0.97920  Biso   1.000  C
  C39      1.0000 0.26010  0.15440  0.95630  Biso   1.000  C
  C40      1.0000 0.18980  0.26270  0.64570  Biso   1.000  C
  C41      1.0000 0.99770  0.25670  0.76890  Biso   1.000  C
  C42      1.0000 0.00620  0.15420  0.64740  Biso   1.000  C
  N1       1.0000 0.93180  0.77450  0.31260  Biso   1.000  N
  N2       1.0000 0.06820  0.22550  0.68740  Biso   1.000  N
  O1       1.0000 0.52850  0.71510  0.49440  Biso   1.000  O
  O2       1.0000 0.55830  0.50390  0.30380  Biso   1.000  O
  O3       1.0000 0.41070  0.71560  0.63870  Biso   1.000  O
  O4       1.0000 0.28970  0.66410  0.38250  Biso   1.000  O
  O5       1.0000 0.36680  0.51310  0.49670  Biso   1.000  O
  O6       1.0000 0.50790  0.83640  0.27650  Biso   1.000  O
  O7       1.0000 0.50570  0.71940  0.19640  Biso   1.000  O
  O8       1.0000 0.75000  0.67900  0.32780  Biso   1.000  O
  O9       1.0000 0.47150  0.28490  0.50560  Biso   1.000  O
  O10      1.0000 0.44170  0.49610  0.69620  Biso   1.000  O
  O11      1.0000 0.58930  0.28440  0.36130  Biso   1.000  O
  O12      1.0000 0.71030  0.33590  0.61750  Biso   1.000  O
  O13      1.0000 0.63320  0.48690  0.50330  Biso   1.000  O
  O14      1.0000 0.49210  0.16360  0.72350  Biso   1.000  O
  O15      1.0000 0.49430  0.28060  0.80360  Biso   1.000  O
  O16      1.0000 0.25000  0.32100  0.67220  Biso   1.000  O
