data_image0
_cell_length_a       10.0691
_cell_length_b       10.9491
_cell_length_c       13.2211
_cell_angle_alpha    99.755
_cell_angle_beta     110.245
_cell_angle_gamma    107.793

_symmetry_space_group_name_H-M    P 1
_symmetry_int_tables_number       1

loop_
  _symmetry_equiv_pos_as_xyz
  'x, y, z'

loop_
  _atom_site_label
  _atom_site_occupancy
  _atom_site_fract_x
  _atom_site_fract_y
  _atom_site_fract_z
  _atom_site_thermal_displace_type
  _atom_site_B_iso_or_equiv
  _atom_site_type_symbol
  Er1      1.0000 0.84506  0.29349  0.80419  Biso   1.000  Er
  Er2      1.0000 0.15494  0.70651  0.19581  Biso   1.000  Er
  H1       1.0000 0.27570  0.38100  0.83700  Biso   1.000  H
  H2       1.0000 0.49610  0.63220  0.15450  Biso   1.000  H
  H3       1.0000 0.16290  0.08460  0.68940  Biso   1.000  H
  H4       1.0000 0.77490  0.03230  0.43600  Biso   1.000  H
  H5       1.0000 0.76640  0.59020  0.57410  Biso   1.000  H
  H6       1.0000 0.37340  0.33020  0.55770  Biso   1.000  H
  H7       1.0000 0.03650  0.35850  0.08680  Biso   1.000  H
  H8       1.0000 0.09800  0.26610  0.23010  Biso   1.000  H
  H9       1.0000 0.97680  0.03450  0.19130  Biso   1.000  H
  H10      1.0000 0.79650  0.80960  0.04370  Biso   1.000  H
  H11      1.0000 0.61090  0.68850  0.86400  Biso   1.000  H
  H12      1.0000 0.45860  0.68460  0.66460  Biso   1.000  H
  H13      1.0000 0.39950  0.80570  0.54160  Biso   1.000  H
  H14      1.0000 0.53510  0.03480  0.59980  Biso   1.000  H
  H15      1.0000 0.72430  0.61900  0.16300  Biso   1.000  H
  H16      1.0000 0.50390  0.36780  0.84550  Biso   1.000  H
  H17      1.0000 0.83710  0.91540  0.31060  Biso   1.000  H
  H18      1.0000 0.22510  0.96770  0.56400  Biso   1.000  H
  H19      1.0000 0.23360  0.40980  0.42590  Biso   1.000  H
  H20      1.0000 0.62660  0.66980  0.44230  Biso   1.000  H
  H21      1.0000 0.96350  0.64150  0.91320  Biso   1.000  H
  H22      1.0000 0.90200  0.73390  0.76990  Biso   1.000  H
  H23      1.0000 0.02320  0.96550  0.80870  Biso   1.000  H
  H24      1.0000 0.20350  0.19040  0.95630  Biso   1.000  H
  H25      1.0000 0.38910  0.31150  0.13600  Biso   1.000  H
  H26      1.0000 0.54140  0.31540  0.33540  Biso   1.000  H
  H27      1.0000 0.60050  0.19430  0.45840  Biso   1.000  H
  H28      1.0000 0.46490  0.96520  0.40020  Biso   1.000  H
  C1       1.0000 0.21270  0.51440  0.98910  Biso   1.000  C
  C2       1.0000 0.36260  0.50800  0.99480  Biso   1.000  C
  C3       1.0000 0.36600  0.42910  0.90280  Biso   1.000  C
  C4       1.0000 0.49720  0.57900  0.09230  Biso   1.000  C
  C5       1.0000 0.92310  0.14870  0.65740  Biso   1.000  C
  C6       1.0000 0.96130  0.07020  0.57580  Biso   1.000  C
  C7       1.0000 0.09620  0.05040  0.61270  Biso   1.000  C
  C8       1.0000 0.86650  0.01940  0.46270  Biso   1.000  C
  C9       1.0000 0.67430  0.39930  0.66370  Biso   1.000  C
  C10      1.0000 0.58420  0.45240  0.57920  Biso   1.000  C
  C11      1.0000 0.65950  0.55400  0.54430  Biso   1.000  C
  C12      1.0000 0.42410  0.39840  0.53450  Biso   1.000  C
  C13      1.0000 0.98910  0.26550  0.06960  Biso   1.000  C
  C14      1.0000 0.02660  0.21140  0.15730  Biso   1.000  C
  C15      1.0000 0.95540  0.07440  0.13420  Biso   1.000  C
  C16      1.0000 0.84990  0.99610  0.02240  Biso   1.000  C
  C17      1.0000 0.77230  0.85420  0.99040  Biso   1.000  C
  C18      1.0000 0.66220  0.78110  0.88210  Biso   1.000  C
  C19      1.0000 0.62590  0.84530  0.79750  Biso   1.000  C
  C20      1.0000 0.51120  0.77770  0.68780  Biso   1.000  C
  C21      1.0000 0.47680  0.84910  0.61480  Biso   1.000  C
  C22      1.0000 0.55890  0.98770  0.65110  Biso   1.000  C
  C23      1.0000 0.70430  0.98730  0.82680  Biso   1.000  C
  C24      1.0000 0.82210  0.06230  0.94200  Biso   1.000  C
  C25      1.0000 0.78730  0.48560  0.01090  Biso   1.000  C
  C26      1.0000 0.63740  0.49200  0.00520  Biso   1.000  C
  C27      1.0000 0.63400  0.57090  0.09720  Biso   1.000  C
  C28      1.0000 0.50280  0.42100  0.90770  Biso   1.000  C
  C29      1.0000 0.07690  0.85130  0.34260  Biso   1.000  C
  C30      1.0000 0.03870  0.92980  0.42420  Biso   1.000  C
  C31      1.0000 0.90380  0.94960  0.38730  Biso   1.000  C
  C32      1.0000 0.13350  0.98060  0.53730  Biso   1.000  C
  C33      1.0000 0.32570  0.60070  0.33630  Biso   1.000  C
  C34      1.0000 0.41580  0.54760  0.42080  Biso   1.000  C
  C35      1.0000 0.34050  0.44600  0.45570  Biso   1.000  C
  C36      1.0000 0.57590  0.60160  0.46550  Biso   1.000  C
  C37      1.0000 0.01090  0.73450  0.93040  Biso   1.000  C
  C38      1.0000 0.97340  0.78860  0.84270  Biso   1.000  C
  C39      1.0000 0.04460  0.92560  0.86580  Biso   1.000  C
  C40      1.0000 0.15010  0.00390  0.97760  Biso   1.000  C
  C41      1.0000 0.22770  0.14580  0.00960  Biso   1.000  C
  C42      1.0000 0.33780  0.21890  0.11790  Biso   1.000  C
  C43      1.0000 0.37410  0.15470  0.20250  Biso   1.000  C
  C44      1.0000 0.48880  0.22230  0.31220  Biso   1.000  C
  C45      1.0000 0.52320  0.15090  0.38520  Biso   1.000  C
  C46      1.0000 0.44110  0.01230  0.34890  Biso   1.000  C
  C47      1.0000 0.29570  0.01270  0.17320  Biso   1.000  C
  C48      1.0000 0.17790  0.93770  0.05800  Biso   1.000  C
  N1       1.0000 0.89120  0.19600  0.96290  Biso   1.000  N
  N2       1.0000 0.66860  0.05700  0.75400  Biso   1.000  N
  N3       1.0000 0.10880  0.80400  0.03710  Biso   1.000  N
  N4       1.0000 0.33140  0.94300  0.24600  Biso   1.000  N
  O1       1.0000 0.09120  0.44030  0.90410  Biso   1.000  O
  O2       1.0000 0.21930  0.59310  0.07360  Biso   1.000  O
  O3       1.0000 0.98820  0.16590  0.76180  Biso   1.000  O
  O4       1.0000 0.82390  0.19890  0.61960  Biso   1.000  O
  O5       1.0000 0.81900  0.46230  0.71730  Biso   1.000  O
  O6       1.0000 0.60600  0.29110  0.67940  Biso   1.000  O
  O7       1.0000 0.90880  0.55970  0.09590  Biso   1.000  O
  O8       1.0000 0.78070  0.40690  0.92640  Biso   1.000  O
  O9       1.0000 0.01180  0.83410  0.23820  Biso   1.000  O
  O10      1.0000 0.17610  0.80110  0.38040  Biso   1.000  O
  O11      1.0000 0.18100  0.53770  0.28270  Biso   1.000  O
  O12      1.0000 0.39400  0.70890  0.32060  Biso   1.000  O
