data_image0
_cell_length_a       8.733
_cell_length_b       16.283
_cell_length_c       22.98
_cell_angle_alpha    90
_cell_angle_beta     90
_cell_angle_gamma    90

_symmetry_space_group_name_H-M    P 1
_symmetry_int_tables_number       1

loop_
  _symmetry_equiv_pos_as_xyz
  'x, y, z'

loop_
  _atom_site_label
  _atom_site_occupancy
  _atom_site_fract_x
  _atom_site_fract_y
  _atom_site_fract_z
  _atom_site_thermal_displace_type
  _atom_site_B_iso_or_equiv
  _atom_site_type_symbol
  Co1      1.0000 0.72887  0.75000  0.75000  Biso   1.000  Co
  Co2      1.0000 0.77113  0.75000  0.25000  Biso   1.000  Co
  Co3      1.0000 0.27113  0.25000  0.25000  Biso   1.000  Co
  Co4      1.0000 0.22887  0.25000  0.75000  Biso   1.000  Co
  H1       1.0000 0.61020  0.56950  0.68950  Biso   1.000  H
  H2       1.0000 0.42650  0.48030  0.74020  Biso   1.000  H
  H3       1.0000 0.46900  0.69070  0.82880  Biso   1.000  H
  H4       1.0000 0.22060  0.66380  0.86390  Biso   1.000  H
  H5       1.0000 0.07530  0.62370  0.94410  Biso   1.000  H
  H6       1.0000 0.19130  0.38790  0.91480  Biso   1.000  H
  H7       1.0000 0.34500  0.42800  0.83680  Biso   1.000  H
  H8       1.0000 0.13650  0.58960  0.66050  Biso   1.000  H
  H9       1.0000 0.88010  0.74240  0.56180  Biso   1.000  H
  H10      1.0000 0.88980  0.56950  0.31050  Biso   1.000  H
  H11      1.0000 0.07350  0.48030  0.25980  Biso   1.000  H
  H12      1.0000 0.03100  0.69070  0.17120  Biso   1.000  H
  H13      1.0000 0.27940  0.66380  0.13610  Biso   1.000  H
  H14      1.0000 0.42470  0.62370  0.05590  Biso   1.000  H
  H15      1.0000 0.30870  0.38790  0.08520  Biso   1.000  H
  H16      1.0000 0.15500  0.42800  0.16320  Biso   1.000  H
  H17      1.0000 0.36350  0.58960  0.33950  Biso   1.000  H
  H18      1.0000 0.61990  0.74240  0.43820  Biso   1.000  H
  H19      1.0000 0.88980  0.93050  0.18950  Biso   1.000  H
  H20      1.0000 0.07350  0.01970  0.24020  Biso   1.000  H
  H21      1.0000 0.03100  0.80930  0.32880  Biso   1.000  H
  H22      1.0000 0.27940  0.83620  0.36390  Biso   1.000  H
  H23      1.0000 0.42470  0.87630  0.44410  Biso   1.000  H
  H24      1.0000 0.30870  0.11210  0.41480  Biso   1.000  H
  H25      1.0000 0.15500  0.07200  0.33680  Biso   1.000  H
  H26      1.0000 0.36350  0.91040  0.16050  Biso   1.000  H
  H27      1.0000 0.61990  0.75760  0.06180  Biso   1.000  H
  H28      1.0000 0.61020  0.93050  0.81050  Biso   1.000  H
  H29      1.0000 0.42650  0.01970  0.75980  Biso   1.000  H
  H30      1.0000 0.46900  0.80930  0.67120  Biso   1.000  H
  H31      1.0000 0.22060  0.83620  0.63610  Biso   1.000  H
  H32      1.0000 0.07530  0.87630  0.55590  Biso   1.000  H
  H33      1.0000 0.19130  0.11210  0.58520  Biso   1.000  H
  H34      1.0000 0.34500  0.07200  0.66320  Biso   1.000  H
  H35      1.0000 0.13650  0.91040  0.83950  Biso   1.000  H
  H36      1.0000 0.88010  0.75760  0.93820  Biso   1.000  H
  H37      1.0000 0.38980  0.43050  0.31050  Biso   1.000  H
  H38      1.0000 0.57350  0.51970  0.25980  Biso   1.000  H
  H39      1.0000 0.53100  0.30930  0.17120  Biso   1.000  H
  H40      1.0000 0.77940  0.33620  0.13610  Biso   1.000  H
  H41      1.0000 0.92470  0.37630  0.05590  Biso   1.000  H
  H42      1.0000 0.80870  0.61210  0.08520  Biso   1.000  H
  H43      1.0000 0.65500  0.57200  0.16320  Biso   1.000  H
  H44      1.0000 0.86350  0.41040  0.33950  Biso   1.000  H
  H45      1.0000 0.11990  0.25760  0.43820  Biso   1.000  H
  H46      1.0000 0.11020  0.43050  0.68950  Biso   1.000  H
  H47      1.0000 0.92650  0.51970  0.74020  Biso   1.000  H
  H48      1.0000 0.96900  0.30930  0.82880  Biso   1.000  H
  H49      1.0000 0.72060  0.33620  0.86390  Biso   1.000  H
  H50      1.0000 0.57530  0.37630  0.94410  Biso   1.000  H
  H51      1.0000 0.69130  0.61210  0.91480  Biso   1.000  H
  H52      1.0000 0.84500  0.57200  0.83680  Biso   1.000  H
  H53      1.0000 0.63650  0.41040  0.66050  Biso   1.000  H
  H54      1.0000 0.38010  0.25760  0.56180  Biso   1.000  H
  H55      1.0000 0.11020  0.06950  0.81050  Biso   1.000  H
  H56      1.0000 0.92650  0.98030  0.75980  Biso   1.000  H
  H57      1.0000 0.96900  0.19070  0.67120  Biso   1.000  H
  H58      1.0000 0.72060  0.16380  0.63610  Biso   1.000  H
  H59      1.0000 0.57530  0.12370  0.55590  Biso   1.000  H
  H60      1.0000 0.69130  0.88790  0.58520  Biso   1.000  H
  H61      1.0000 0.84500  0.92800  0.66320  Biso   1.000  H
  H62      1.0000 0.63650  0.08960  0.83950  Biso   1.000  H
  H63      1.0000 0.38010  0.24240  0.93820  Biso   1.000  H
  H64      1.0000 0.38980  0.06950  0.18950  Biso   1.000  H
  H65      1.0000 0.57350  0.98030  0.24020  Biso   1.000  H
  H66      1.0000 0.53100  0.19070  0.32880  Biso   1.000  H
  H67      1.0000 0.77940  0.16380  0.36390  Biso   1.000  H
  H68      1.0000 0.92470  0.12370  0.44410  Biso   1.000  H
  H69      1.0000 0.80870  0.88790  0.41480  Biso   1.000  H
  H70      1.0000 0.65500  0.92800  0.33680  Biso   1.000  H
  H71      1.0000 0.86350  0.08960  0.16050  Biso   1.000  H
  H72      1.0000 0.11990  0.24240  0.06180  Biso   1.000  H
  C1       1.0000 0.55820  0.58260  0.72460  Biso   1.000  C
  C2       1.0000 0.45660  0.53390  0.75180  Biso   1.000  C
  C3       1.0000 0.48130  0.64920  0.80020  Biso   1.000  C
  C4       1.0000 0.30100  0.55010  0.84430  Biso   1.000  C
  C5       1.0000 0.21740  0.60770  0.87500  Biso   1.000  C
  C6       1.0000 0.12910  0.58370  0.92200  Biso   1.000  C
  C7       1.0000 0.11900  0.50200  0.93670  Biso   1.000  C
  C8       1.0000 0.19900  0.44440  0.90490  Biso   1.000  C
  C9       1.0000 0.29020  0.46800  0.85860  Biso   1.000  C
  C10      1.0000 0.89730  0.69240  0.67140  Biso   1.000  C
  C11      1.0000 0.99520  0.67170  0.61990  Biso   1.000  C
  C12      1.0000 0.11750  0.61690  0.62470  Biso   1.000  C
  C13      1.0000 0.21140  0.60270  0.57690  Biso   1.000  C
  C14      1.0000 0.19250  0.64320  0.52460  Biso   1.000  C
  C15      1.0000 0.06300  0.69230  0.52060  Biso   1.000  C
  C16      1.0000 0.96630  0.70750  0.56670  Biso   1.000  C
  C17      1.0000 0.94180  0.58260  0.27540  Biso   1.000  C
  C18      1.0000 0.04340  0.53390  0.24820  Biso   1.000  C
  C19      1.0000 0.01870  0.64920  0.19980  Biso   1.000  C
  C20      1.0000 0.19900  0.55010  0.15570  Biso   1.000  C
  C21      1.0000 0.28260  0.60770  0.12500  Biso   1.000  C
  C22      1.0000 0.37090  0.58370  0.07800  Biso   1.000  C
  C23      1.0000 0.38100  0.50200  0.06330  Biso   1.000  C
  C24      1.0000 0.30100  0.44440  0.09510  Biso   1.000  C
  C25      1.0000 0.20980  0.46800  0.14140  Biso   1.000  C
  C26      1.0000 0.60270  0.69240  0.32860  Biso   1.000  C
  C27      1.0000 0.50480  0.67170  0.38010  Biso   1.000  C
  C28      1.0000 0.38250  0.61690  0.37530  Biso   1.000  C
  C29      1.0000 0.28860  0.60270  0.42310  Biso   1.000  C
  C30      1.0000 0.30750  0.64320  0.47540  Biso   1.000  C
  C31      1.0000 0.43700  0.69230  0.47940  Biso   1.000  C
  C32      1.0000 0.53370  0.70750  0.43330  Biso   1.000  C
  C33      1.0000 0.94180  0.91740  0.22460  Biso   1.000  C
  C34      1.0000 0.04340  0.96610  0.25180  Biso   1.000  C
  C35      1.0000 0.01870  0.85080  0.30020  Biso   1.000  C
  C36      1.0000 0.19900  0.94990  0.34430  Biso   1.000  C
  C37      1.0000 0.28260  0.89230  0.37500  Biso   1.000  C
  C38      1.0000 0.37090  0.91630  0.42200  Biso   1.000  C
  C39      1.0000 0.38100  0.99800  0.43670  Biso   1.000  C
  C40      1.0000 0.30100  0.05560  0.40490  Biso   1.000  C
  C41      1.0000 0.20980  0.03200  0.35860  Biso   1.000  C
  C42      1.0000 0.60270  0.80760  0.17140  Biso   1.000  C
  C43      1.0000 0.50480  0.82830  0.11990  Biso   1.000  C
  C44      1.0000 0.38250  0.88310  0.12470  Biso   1.000  C
  C45      1.0000 0.28860  0.89730  0.07690  Biso   1.000  C
  C46      1.0000 0.30750  0.85680  0.02460  Biso   1.000  C
  C47      1.0000 0.43700  0.80770  0.02060  Biso   1.000  C
  C48      1.0000 0.53370  0.79250  0.06670  Biso   1.000  C
  C49      1.0000 0.55820  0.91740  0.77540  Biso   1.000  C
  C50      1.0000 0.45660  0.96610  0.74820  Biso   1.000  C
  C51      1.0000 0.48130  0.85080  0.69980  Biso   1.000  C
  C52      1.0000 0.30100  0.94990  0.65570  Biso   1.000  C
  C53      1.0000 0.21740  0.89230  0.62500  Biso   1.000  C
  C54      1.0000 0.12910  0.91630  0.57800  Biso   1.000  C
  C55      1.0000 0.11900  0.99800  0.56330  Biso   1.000  C
  C56      1.0000 0.19900  0.05560  0.59510  Biso   1.000  C
  C57      1.0000 0.29020  0.03200  0.64140  Biso   1.000  C
  C58      1.0000 0.89730  0.80760  0.82860  Biso   1.000  C
  C59      1.0000 0.99520  0.82830  0.88010  Biso   1.000  C
  C60      1.0000 0.11750  0.88310  0.87530  Biso   1.000  C
  C61      1.0000 0.21140  0.89730  0.92310  Biso   1.000  C
  C62      1.0000 0.19250  0.85680  0.97540  Biso   1.000  C
  C63      1.0000 0.06300  0.80770  0.97940  Biso   1.000  C
  C64      1.0000 0.96630  0.79250  0.93330  Biso   1.000  C
  C65      1.0000 0.44180  0.41740  0.27540  Biso   1.000  C
  C66      1.0000 0.54340  0.46610  0.24820  Biso   1.000  C
  C67      1.0000 0.51870  0.35080  0.19980  Biso   1.000  C
  C68      1.0000 0.69900  0.44990  0.15570  Biso   1.000  C
  C69      1.0000 0.78260  0.39230  0.12500  Biso   1.000  C
  C70      1.0000 0.87090  0.41630  0.07800  Biso   1.000  C
  C71      1.0000 0.88100  0.49800  0.06330  Biso   1.000  C
  C72      1.0000 0.80100  0.55560  0.09510  Biso   1.000  C
  C73      1.0000 0.70980  0.53200  0.14140  Biso   1.000  C
  C74      1.0000 0.10270  0.30760  0.32860  Biso   1.000  C
  C75      1.0000 0.00480  0.32830  0.38010  Biso   1.000  C
  C76      1.0000 0.88250  0.38310  0.37530  Biso   1.000  C
  C77      1.0000 0.78860  0.39730  0.42310  Biso   1.000  C
  C78      1.0000 0.80750  0.35680  0.47540  Biso   1.000  C
  C79      1.0000 0.93700  0.30770  0.47940  Biso   1.000  C
  C80      1.0000 0.03370  0.29250  0.43330  Biso   1.000  C
  C81      1.0000 0.05820  0.41740  0.72460  Biso   1.000  C
  C82      1.0000 0.95660  0.46610  0.75180  Biso   1.000  C
  C83      1.0000 0.98130  0.35080  0.80020  Biso   1.000  C
  C84      1.0000 0.80100  0.44990  0.84430  Biso   1.000  C
  C85      1.0000 0.71740  0.39230  0.87500  Biso   1.000  C
  C86      1.0000 0.62910  0.41630  0.92200  Biso   1.000  C
  C87      1.0000 0.61900  0.49800  0.93670  Biso   1.000  C
  C88      1.0000 0.69900  0.55560  0.90490  Biso   1.000  C
  C89      1.0000 0.79020  0.53200  0.85860  Biso   1.000  C
  C90      1.0000 0.39730  0.30760  0.67140  Biso   1.000  C
  C91      1.0000 0.49520  0.32830  0.61990  Biso   1.000  C
  C92      1.0000 0.61750  0.38310  0.62470  Biso   1.000  C
  C93      1.0000 0.71140  0.39730  0.57690  Biso   1.000  C
  C94      1.0000 0.69250  0.35680  0.52460  Biso   1.000  C
  C95      1.0000 0.56300  0.30770  0.52060  Biso   1.000  C
  C96      1.0000 0.46630  0.29250  0.56670  Biso   1.000  C
  C97      1.0000 0.05820  0.08260  0.77540  Biso   1.000  C
  C98      1.0000 0.95660  0.03390  0.74820  Biso   1.000  C
  C99      1.0000 0.98130  0.14920  0.69980  Biso   1.000  C
  C100     1.0000 0.80100  0.05010  0.65570  Biso   1.000  C
  C101     1.0000 0.71740  0.10770  0.62500  Biso   1.000  C
  C102     1.0000 0.62910  0.08370  0.57800  Biso   1.000  C
  C103     1.0000 0.61900  0.00200  0.56330  Biso   1.000  C
  C104     1.0000 0.69900  0.94440  0.59510  Biso   1.000  C
  C105     1.0000 0.79020  0.96800  0.64140  Biso   1.000  C
  C106     1.0000 0.39730  0.19240  0.82860  Biso   1.000  C
  C107     1.0000 0.49520  0.17170  0.88010  Biso   1.000  C
  C108     1.0000 0.61750  0.11690  0.87530  Biso   1.000  C
  C109     1.0000 0.71140  0.10270  0.92310  Biso   1.000  C
  C110     1.0000 0.69250  0.14320  0.97540  Biso   1.000  C
  C111     1.0000 0.56300  0.19230  0.97940  Biso   1.000  C
  C112     1.0000 0.46630  0.20750  0.93330  Biso   1.000  C
  C113     1.0000 0.44180  0.08260  0.22460  Biso   1.000  C
  C114     1.0000 0.54340  0.03390  0.25180  Biso   1.000  C
  C115     1.0000 0.51870  0.14920  0.30020  Biso   1.000  C
  C116     1.0000 0.69900  0.05010  0.34430  Biso   1.000  C
  C117     1.0000 0.78260  0.10770  0.37500  Biso   1.000  C
  C118     1.0000 0.87090  0.08370  0.42200  Biso   1.000  C
  C119     1.0000 0.88100  0.00200  0.43670  Biso   1.000  C
  C120     1.0000 0.80100  0.94440  0.40490  Biso   1.000  C
  C121     1.0000 0.70980  0.96800  0.35860  Biso   1.000  C
  C122     1.0000 0.10270  0.19240  0.17140  Biso   1.000  C
  C123     1.0000 0.00480  0.17170  0.11990  Biso   1.000  C
  C124     1.0000 0.88250  0.11690  0.12470  Biso   1.000  C
  C125     1.0000 0.78860  0.10270  0.07690  Biso   1.000  C
  C126     1.0000 0.80750  0.14320  0.02460  Biso   1.000  C
  C127     1.0000 0.93700  0.19230  0.02060  Biso   1.000  C
  C128     1.0000 0.03370  0.20750  0.06670  Biso   1.000  C
  N1       1.0000 0.57540  0.65500  0.75600  Biso   1.000  N
  N2       1.0000 0.40360  0.57710  0.80020  Biso   1.000  N
  N3       1.0000 0.03310  0.47250  0.98530  Biso   1.000  N
  N4       1.0000 0.01710  0.74740  0.47710  Biso   1.000  N
  N5       1.0000 0.92460  0.65500  0.24400  Biso   1.000  N
  N6       1.0000 0.09640  0.57710  0.19980  Biso   1.000  N
  N7       1.0000 0.46690  0.47250  0.01470  Biso   1.000  N
  N8       1.0000 0.48290  0.74740  0.52290  Biso   1.000  N
  N9       1.0000 0.92460  0.84500  0.25600  Biso   1.000  N
  N10      1.0000 0.09640  0.92290  0.30020  Biso   1.000  N
  N11      1.0000 0.46690  0.02750  0.48530  Biso   1.000  N
  N12      1.0000 0.48290  0.75260  0.97710  Biso   1.000  N
  N13      1.0000 0.57540  0.84500  0.74400  Biso   1.000  N
  N14      1.0000 0.40360  0.92290  0.69980  Biso   1.000  N
  N15      1.0000 0.03310  0.02750  0.51470  Biso   1.000  N
  N16      1.0000 0.01710  0.75260  0.02290  Biso   1.000  N
  N17      1.0000 0.42460  0.34500  0.24400  Biso   1.000  N
  N18      1.0000 0.59640  0.42290  0.19980  Biso   1.000  N
  N19      1.0000 0.96690  0.52750  0.01470  Biso   1.000  N
  N20      1.0000 0.98290  0.25260  0.52290  Biso   1.000  N
  N21      1.0000 0.07540  0.34500  0.75600  Biso   1.000  N
  N22      1.0000 0.90360  0.42290  0.80020  Biso   1.000  N
  N23      1.0000 0.53310  0.52750  0.98530  Biso   1.000  N
  N24      1.0000 0.51710  0.25260  0.47710  Biso   1.000  N
  N25      1.0000 0.07540  0.15500  0.74400  Biso   1.000  N
  N26      1.0000 0.90360  0.07710  0.69980  Biso   1.000  N
  N27      1.0000 0.53310  0.97250  0.51470  Biso   1.000  N
  N28      1.0000 0.51710  0.24740  0.02290  Biso   1.000  N
  N29      1.0000 0.42460  0.15500  0.25600  Biso   1.000  N
  N30      1.0000 0.59640  0.07710  0.30020  Biso   1.000  N
  N31      1.0000 0.96690  0.97250  0.48530  Biso   1.000  N
  N32      1.0000 0.98290  0.24740  0.97710  Biso   1.000  N
  O1       1.0000 0.79170  0.74570  0.66380  Biso   1.000  O
  O2       1.0000 0.92200  0.66130  0.71939  Biso   1.000  O
  O3       1.0000 0.88470  0.75790  0.46160  Biso   1.000  O
  O4       1.0000 0.11240  0.76610  0.44090  Biso   1.000  O
  O5       1.0000 0.70830  0.74570  0.33620  Biso   1.000  O
  O6       1.0000 0.57800  0.66130  0.28061  Biso   1.000  O
  O7       1.0000 0.61530  0.75790  0.53840  Biso   1.000  O
  O8       1.0000 0.38760  0.76610  0.55910  Biso   1.000  O
  O9       1.0000 0.70830  0.75430  0.16380  Biso   1.000  O
  O10      1.0000 0.57800  0.83870  0.21939  Biso   1.000  O
  O11      1.0000 0.61530  0.74210  0.96160  Biso   1.000  O
  O12      1.0000 0.38760  0.73390  0.94090  Biso   1.000  O
  O13      1.0000 0.79170  0.75430  0.83620  Biso   1.000  O
  O14      1.0000 0.92200  0.83870  0.78061  Biso   1.000  O
  O15      1.0000 0.88470  0.74210  0.03840  Biso   1.000  O
  O16      1.0000 0.11240  0.73390  0.05910  Biso   1.000  O
  O17      1.0000 0.20830  0.25430  0.33620  Biso   1.000  O
  O18      1.0000 0.07800  0.33870  0.28061  Biso   1.000  O
  O19      1.0000 0.11530  0.24210  0.53840  Biso   1.000  O
  O20      1.0000 0.88760  0.23390  0.55910  Biso   1.000  O
  O21      1.0000 0.29170  0.25430  0.66380  Biso   1.000  O
  O22      1.0000 0.42200  0.33870  0.71939  Biso   1.000  O
  O23      1.0000 0.38470  0.24210  0.46160  Biso   1.000  O
  O24      1.0000 0.61240  0.23390  0.44090  Biso   1.000  O
  O25      1.0000 0.29170  0.24570  0.83620  Biso   1.000  O
  O26      1.0000 0.42200  0.16130  0.78061  Biso   1.000  O
  O27      1.0000 0.38470  0.25790  0.03840  Biso   1.000  O
  O28      1.0000 0.61240  0.26610  0.05910  Biso   1.000  O
  O29      1.0000 0.20830  0.24570  0.16380  Biso   1.000  O
  O30      1.0000 0.07800  0.16130  0.21939  Biso   1.000  O
  O31      1.0000 0.11530  0.25790  0.96160  Biso   1.000  O
  O32      1.0000 0.88760  0.26610  0.94090  Biso   1.000  O
