data_image0
_cell_length_a       9.0717
_cell_length_b       14.9399
_cell_length_c       15.6428
_cell_angle_alpha    118.524
_cell_angle_beta     105.209
_cell_angle_gamma    90

_symmetry_space_group_name_H-M    P 1
_symmetry_int_tables_number       1

loop_
  _symmetry_equiv_pos_as_xyz
  'x, y, z'

loop_
  _atom_site_label
  _atom_site_occupancy
  _atom_site_fract_x
  _atom_site_fract_y
  _atom_site_fract_z
  _atom_site_thermal_displace_type
  _atom_site_B_iso_or_equiv
  _atom_site_type_symbol
  Ni1      1.0000 0.50166  0.75821  0.42542  Biso   1.000  Ni
  Ni2      1.0000 0.49834  0.33279  0.57458  Biso   1.000  Ni
  H1       1.0000 0.34900  0.95970  0.53940  Biso   1.000  H
  H2       1.0000 0.41040  0.06850  0.72180  Biso   1.000  H
  H3       1.0000 0.66760  0.84450  0.66360  Biso   1.000  H
  H4       1.0000 0.23280  0.76270  0.53380  Biso   1.000  H
  H5       1.0000 0.04930  0.61070  0.47840  Biso   1.000  H
  H6       1.0000 0.34140  0.53380  0.31860  Biso   1.000  H
  H7       1.0000 0.57850  0.91790  0.35440  Biso   1.000  H
  H8       1.0000 0.99300  0.83870  0.35960  Biso   1.000  H
  H9       1.0000 0.86650  0.74990  0.42340  Biso   1.000  H
  H10      1.0000 0.69380  0.86970  0.82480  Biso   1.000  H
  H11      1.0000 0.82540  0.93600  0.99700  Biso   1.000  H
  H12      1.0000 0.71240  0.21490  0.05680  Biso   1.000  H
  H13      1.0000 0.59140  0.15140  0.88360  Biso   1.000  H
  H14      1.0000 0.61490  0.04020  0.14660  Biso   1.000  H
  H15      1.0000 0.58430  0.95080  0.22940  Biso   1.000  H
  H16      1.0000 0.04510  0.98840  0.34660  Biso   1.000  H
  H17      1.0000 0.07570  0.07770  0.26360  Biso   1.000  H
  H18      1.0000 0.88740  0.26270  0.33520  Biso   1.000  H
  H19      1.0000 0.02320  0.43020  0.43260  Biso   1.000  H
  H20      1.0000 0.15620  0.38900  0.19100  Biso   1.000  H
  H21      1.0000 0.04830  0.21950  0.10560  Biso   1.000  H
  H22      1.0000 0.10800  0.66480  0.15280  Biso   1.000  H
  H23      1.0000 0.15600  0.77740  0.17720  Biso   1.000  H
  H24      1.0000 0.17350  0.64680  0.00980  Biso   1.000  H
  H25      1.0000 0.31130  0.61220  0.06720  Biso   1.000  H
  H26      1.0000 0.31230  0.81710  0.10620  Biso   1.000  H
  H27      1.0000 0.45330  0.77400  0.15000  Biso   1.000  H
  H28      1.0000 0.37390  0.76100  0.95900  Biso   1.000  H
  H29      1.0000 0.37060  0.64880  0.94220  Biso   1.000  H
  H30      1.0000 0.65100  0.42030  0.46060  Biso   1.000  H
  H31      1.0000 0.58960  0.34670  0.27820  Biso   1.000  H
  H32      1.0000 0.33240  0.18090  0.33640  Biso   1.000  H
  H33      1.0000 0.76720  0.22890  0.46620  Biso   1.000  H
  H34      1.0000 0.95070  0.13230  0.52160  Biso   1.000  H
  H35      1.0000 0.65860  0.21520  0.68140  Biso   1.000  H
  H36      1.0000 0.42150  0.56350  0.64560  Biso   1.000  H
  H37      1.0000 0.00700  0.47910  0.64040  Biso   1.000  H
  H38      1.0000 0.13350  0.32650  0.57660  Biso   1.000  H
  H39      1.0000 0.30620  0.04490  0.17520  Biso   1.000  H
  H40      1.0000 0.17460  0.93900  0.00300  Biso   1.000  H
  H41      1.0000 0.28760  0.15810  0.94320  Biso   1.000  H
  H42      1.0000 0.40860  0.26780  0.11640  Biso   1.000  H
  H43      1.0000 0.38510  0.89360  0.85340  Biso   1.000  H
  H44      1.0000 0.41570  0.72140  0.77060  Biso   1.000  H
  H45      1.0000 0.95490  0.64180  0.65340  Biso   1.000  H
  H46      1.0000 0.92430  0.81410  0.73640  Biso   1.000  H
  H47      1.0000 0.11260  0.92750  0.66480  Biso   1.000  H
  H48      1.0000 0.97680  0.99760  0.56740  Biso   1.000  H
  H49      1.0000 0.84380  0.19800  0.80900  Biso   1.000  H
  H50      1.0000 0.95170  0.11390  0.89440  Biso   1.000  H
  H51      1.0000 0.89200  0.51200  0.84720  Biso   1.000  H
  H52      1.0000 0.84400  0.60020  0.82280  Biso   1.000  H
  H53      1.0000 0.82650  0.63700  0.99020  Biso   1.000  H
  H54      1.0000 0.68870  0.54500  0.93280  Biso   1.000  H
  H55      1.0000 0.68770  0.71090  0.89380  Biso   1.000  H
  H56      1.0000 0.54670  0.62400  0.85000  Biso   1.000  H
  H57      1.0000 0.62610  0.80200  0.04100  Biso   1.000  H
  H58      1.0000 0.62940  0.70660  0.05780  Biso   1.000  H
  C1       1.0000 0.42290  0.95145  0.58810  Biso   1.000  C
  C2       1.0000 0.45420  0.01046  0.68772  Biso   1.000  C
  C3       1.0000 0.59760  0.88730  0.65540  Biso   1.000  C
  C4       1.0000 0.23180  0.69630  0.48260  Biso   1.000  C
  C5       1.0000 0.12990  0.61200  0.45240  Biso   1.000  C
  C6       1.0000 0.29070  0.57193  0.36606  Biso   1.000  C
  C7       1.0000 0.66590  0.88752  0.36504  Biso   1.000  C
  C8       1.0000 0.89430  0.84366  0.36672  Biso   1.000  C
  C9       1.0000 0.82440  0.79590  0.40300  Biso   1.000  C
  C10      1.0000 0.32080  0.73131  0.26082  Biso   1.000  C
  C11      1.0000 0.63380  0.00660  0.83820  Biso   1.000  C
  C12      1.0000 0.70110  0.93925  0.87090  Biso   1.000  C
  C13      1.0000 0.77900  0.97926  0.97412  Biso   1.000  C
  C14      1.0000 0.78800  0.08362  0.04364  Biso   1.000  C
  C15      1.0000 0.71310  0.14658  0.01016  Biso   1.000  C
  C16      1.0000 0.63820  0.10806  0.90632  Biso   1.000  C
  C17      1.0000 0.84830  0.06785  0.19694  Biso   1.000  C
  C18      1.0000 0.70110  0.02983  0.18668  Biso   1.000  C
  C19      1.0000 0.68280  0.97625  0.23630  Biso   1.000  C
  C20      1.0000 0.81170  0.96070  0.29620  Biso   1.000  C
  C21      1.0000 0.95890  0.99873  0.30646  Biso   1.000  C
  C22      1.0000 0.97720  0.05232  0.25684  Biso   1.000  C
  C23      1.0000 0.94540  0.22417  0.20594  Biso   1.000  C
  C24      1.0000 0.94250  0.28793  0.30686  Biso   1.000  C
  C25      1.0000 0.02220  0.38930  0.36520  Biso   1.000  C
  C26      1.0000 0.09800  0.42667  0.32154  Biso   1.000  C
  C27      1.0000 0.10510  0.36323  0.22086  Biso   1.000  C
  C28      1.0000 0.03510  0.26322  0.16884  Biso   1.000  C
  C29      1.0000 0.19360  0.71310  0.16600  Biso   1.000  C
  C30      1.0000 0.25700  0.66960  0.07240  Biso   1.000  C
  C31      1.0000 0.36400  0.75690  0.09200  Biso   1.000  C
  C32      1.0000 0.41500  0.72010  0.99020  Biso   1.000  C
  C33      1.0000 0.57710  0.36335  0.41190  Biso   1.000  C
  C34      1.0000 0.54580  0.32274  0.31228  Biso   1.000  C
  C35      1.0000 0.40240  0.23190  0.34460  Biso   1.000  C
  C36      1.0000 0.76820  0.21370  0.51740  Biso   1.000  C
  C37      1.0000 0.87010  0.15960  0.54760  Biso   1.000  C
  C38      1.0000 0.70930  0.20587  0.63394  Biso   1.000  C
  C39      1.0000 0.33410  0.52248  0.63496  Biso   1.000  C
  C40      1.0000 0.10570  0.47694  0.63328  Biso   1.000  C
  C41      1.0000 0.17560  0.39290  0.59700  Biso   1.000  C
  C42      1.0000 0.67920  0.47049  0.73918  Biso   1.000  C
  C43      1.0000 0.36620  0.16840  0.16180  Biso   1.000  C
  C44      1.0000 0.29890  0.06835  0.12910  Biso   1.000  C
  C45      1.0000 0.22100  0.00514  0.02588  Biso   1.000  C
  C46      1.0000 0.21200  0.03998  0.95636  Biso   1.000  C
  C47      1.0000 0.28690  0.13642  0.98984  Biso   1.000  C
  C48      1.0000 0.36180  0.20174  0.09368  Biso   1.000  C
  C49      1.0000 0.15170  0.87091  0.80306  Biso   1.000  C
  C50      1.0000 0.29890  0.84315  0.81332  Biso   1.000  C
  C51      1.0000 0.31720  0.73995  0.76370  Biso   1.000  C
  C52      1.0000 0.18830  0.66450  0.70380  Biso   1.000  C
  C53      1.0000 0.04110  0.69227  0.69354  Biso   1.000  C
  C54      1.0000 0.02280  0.79548  0.74316  Biso   1.000  C
  C55      1.0000 0.05460  0.01823  0.79406  Biso   1.000  C
  C56      1.0000 0.05750  0.98107  0.69314  Biso   1.000  C
  C57      1.0000 0.97780  0.02410  0.63480  Biso   1.000  C
  C58      1.0000 0.90200  0.10513  0.67846  Biso   1.000  C
  C59      1.0000 0.89490  0.14237  0.77914  Biso   1.000  C
  C60      1.0000 0.96490  0.09438  0.83116  Biso   1.000  C
  C61      1.0000 0.80640  0.54710  0.83400  Biso   1.000  C
  C62      1.0000 0.74300  0.59720  0.92760  Biso   1.000  C
  C63      1.0000 0.63600  0.66490  0.90800  Biso   1.000  C
  C64      1.0000 0.58500  0.72990  0.00980  Biso   1.000  C
  N1       1.0000 0.51770  0.87505  0.56690  Biso   1.000  N
  N2       1.0000 0.56740  0.96758  0.73196  Biso   1.000  N
  N3       1.0000 0.32820  0.66873  0.42766  Biso   1.000  N
  N4       1.0000 0.16880  0.53103  0.37766  Biso   1.000  N
  N5       1.0000 0.68070  0.82522  0.40504  Biso   1.000  N
  N6       1.0000 0.79290  0.90017  0.34274  Biso   1.000  N
  N7       1.0000 0.86750  0.12423  0.14786  Biso   1.000  N
  N8       1.0000 0.69780  0.60454  0.42948  Biso   1.000  N
  N9       1.0000 0.48230  0.30815  0.43310  Biso   1.000  N
  N10      1.0000 0.43260  0.23562  0.26804  Biso   1.000  N
  N11      1.0000 0.67180  0.24107  0.57234  Biso   1.000  N
  N12      1.0000 0.83120  0.15337  0.62234  Biso   1.000  N
  N13      1.0000 0.31930  0.42018  0.59496  Biso   1.000  N
  N14      1.0000 0.20710  0.55743  0.65726  Biso   1.000  N
  N15      1.0000 0.13250  0.97637  0.85214  Biso   1.000  N
  N16      1.0000 0.30220  0.17506  0.57052  Biso   1.000  N
  O1       1.0000 0.40700  0.66659  0.25898  Biso   1.000  O
  O2       1.0000 0.33300  0.81172  0.34304  Biso   1.000  O
  O3       1.0000 0.65600  0.68647  0.48374  Biso   1.000  O
  O4       1.0000 0.66390  0.57292  0.33584  Biso   1.000  O
  O5       1.0000 0.78090  0.55997  0.46714  Biso   1.000  O
  O6       1.0000 0.59300  0.40761  0.74102  Biso   1.000  O
  O7       1.0000 0.66700  0.46868  0.65696  Biso   1.000  O
  O8       1.0000 0.34400  0.20273  0.51626  Biso   1.000  O
  O9       1.0000 0.33610  0.23708  0.66416  Biso   1.000  O
  O10      1.0000 0.21910  0.09283  0.53286  Biso   1.000  O
