data_image0
_cell_length_a       7.3524
_cell_length_b       23.175
_cell_length_c       29.1642
_cell_angle_alpha    90
_cell_angle_beta     90
_cell_angle_gamma    90.772

_symmetry_space_group_name_H-M    P 1
_symmetry_int_tables_number       1

loop_
  _symmetry_equiv_pos_as_xyz
  'x, y, z'

loop_
  _atom_site_label
  _atom_site_occupancy
  _atom_site_fract_x
  _atom_site_fract_y
  _atom_site_fract_z
  _atom_site_thermal_displace_type
  _atom_site_B_iso_or_equiv
  _atom_site_type_symbol
  Ce1      1.0000 0.79029  0.66691  0.29850  Biso   1.000  Ce
  Ce2      1.0000 0.29337  0.73903  0.26366  Biso   1.000  Ce
  Ce3      1.0000 0.20971  0.83309  0.79850  Biso   1.000  Ce
  Ce4      1.0000 0.70663  0.76097  0.76366  Biso   1.000  Ce
  Ce5      1.0000 0.20971  0.33309  0.70150  Biso   1.000  Ce
  Ce6      1.0000 0.70663  0.26097  0.73634  Biso   1.000  Ce
  Ce7      1.0000 0.79029  0.16691  0.20150  Biso   1.000  Ce
  Ce8      1.0000 0.29337  0.23903  0.23634  Biso   1.000  Ce
  H1       1.0000 0.91480  0.61990  0.57960  Biso   1.000  H
  H2       1.0000 0.89920  0.34290  0.29220  Biso   1.000  H
  H3       1.0000 0.60500  0.79590  0.21130  Biso   1.000  H
  H4       1.0000 0.48170  0.82030  0.18350  Biso   1.000  H
  H5       1.0000 0.59030  0.73740  0.45110  Biso   1.000  H
  H6       1.0000 0.97480  0.76640  0.43300  Biso   1.000  H
  H7       1.0000 0.11900  0.79720  0.49940  Biso   1.000  H
  H8       1.0000 0.22210  0.70840  0.55290  Biso   1.000  H
  H9       1.0000 0.23620  0.84920  0.66620  Biso   1.000  H
  H10      1.0000 0.42080  0.85880  0.60240  Biso   1.000  H
  H11      1.0000 0.97250  0.53430  0.17710  Biso   1.000  H
  H12      1.0000 0.59600  0.55370  0.17110  Biso   1.000  H
  H13      1.0000 0.44590  0.50080  0.11580  Biso   1.000  H
  H14      1.0000 0.12390  0.41710  0.17950  Biso   1.000  H
  H15      1.0000 0.57570  0.36040  0.11440  Biso   1.000  H
  H16      1.0000 0.75460  0.43050  0.07890  Biso   1.000  H
  H17      1.0000 0.08520  0.88010  0.07960  Biso   1.000  H
  H18      1.0000 0.10080  0.15710  0.79220  Biso   1.000  H
  H19      1.0000 0.39500  0.70410  0.71130  Biso   1.000  H
  H20      1.0000 0.51830  0.67970  0.68350  Biso   1.000  H
  H21      1.0000 0.40970  0.76260  0.95110  Biso   1.000  H
  H22      1.0000 0.02520  0.73360  0.93300  Biso   1.000  H
  H23      1.0000 0.88100  0.70280  0.99940  Biso   1.000  H
  H24      1.0000 0.77790  0.79160  0.05290  Biso   1.000  H
  H25      1.0000 0.76380  0.65080  0.16620  Biso   1.000  H
  H26      1.0000 0.57920  0.64120  0.10240  Biso   1.000  H
  H27      1.0000 0.02750  0.96570  0.67710  Biso   1.000  H
  H28      1.0000 0.40400  0.94630  0.67110  Biso   1.000  H
  H29      1.0000 0.55410  0.99920  0.61580  Biso   1.000  H
  H30      1.0000 0.87610  0.08290  0.67950  Biso   1.000  H
  H31      1.0000 0.42430  0.13960  0.61440  Biso   1.000  H
  H32      1.0000 0.24540  0.06950  0.57890  Biso   1.000  H
  H33      1.0000 0.08520  0.38010  0.42040  Biso   1.000  H
  H34      1.0000 0.10080  0.65710  0.70780  Biso   1.000  H
  H35      1.0000 0.39500  0.20410  0.78870  Biso   1.000  H
  H36      1.0000 0.51830  0.17970  0.81650  Biso   1.000  H
  H37      1.0000 0.40970  0.26260  0.54890  Biso   1.000  H
  H38      1.0000 0.02520  0.23360  0.56700  Biso   1.000  H
  H39      1.0000 0.88100  0.20280  0.50060  Biso   1.000  H
  H40      1.0000 0.77790  0.29160  0.44710  Biso   1.000  H
  H41      1.0000 0.76380  0.15080  0.33380  Biso   1.000  H
  H42      1.0000 0.57920  0.14120  0.39760  Biso   1.000  H
  H43      1.0000 0.02750  0.46570  0.82290  Biso   1.000  H
  H44      1.0000 0.40400  0.44630  0.82890  Biso   1.000  H
  H45      1.0000 0.55410  0.49920  0.88420  Biso   1.000  H
  H46      1.0000 0.87610  0.58290  0.82050  Biso   1.000  H
  H47      1.0000 0.42430  0.63960  0.88560  Biso   1.000  H
  H48      1.0000 0.24540  0.56950  0.92110  Biso   1.000  H
  H49      1.0000 0.91480  0.11990  0.92040  Biso   1.000  H
  H50      1.0000 0.89920  0.84290  0.20780  Biso   1.000  H
  H51      1.0000 0.60500  0.29590  0.28870  Biso   1.000  H
  H52      1.0000 0.48170  0.32030  0.31650  Biso   1.000  H
  H53      1.0000 0.59030  0.23740  0.04890  Biso   1.000  H
  H54      1.0000 0.97480  0.26640  0.06700  Biso   1.000  H
  H55      1.0000 0.11900  0.29720  0.00060  Biso   1.000  H
  H56      1.0000 0.22210  0.20840  0.94710  Biso   1.000  H
  H57      1.0000 0.23620  0.34920  0.83380  Biso   1.000  H
  H58      1.0000 0.42080  0.35880  0.89760  Biso   1.000  H
  H59      1.0000 0.97250  0.03430  0.32290  Biso   1.000  H
  H60      1.0000 0.59600  0.05370  0.32890  Biso   1.000  H
  H61      1.0000 0.44590  0.00080  0.38420  Biso   1.000  H
  H62      1.0000 0.12390  0.91710  0.32050  Biso   1.000  H
  H63      1.0000 0.57570  0.86040  0.38560  Biso   1.000  H
  H64      1.0000 0.75460  0.93050  0.42110  Biso   1.000  H
  C1       1.0000 0.46450  0.78900  0.52830  Biso   1.000  C
  C2       1.0000 0.37160  0.76840  0.48330  Biso   1.000  C
  C3       1.0000 0.46620  0.74320  0.44760  Biso   1.000  C
  C4       1.0000 0.38390  0.72620  0.40720  Biso   1.000  C
  C5       1.0000 0.19390  0.73300  0.40208  Biso   1.000  C
  C6       1.0000 0.09870  0.76010  0.43660  Biso   1.000  C
  C7       1.0000 0.18500  0.77840  0.47680  Biso   1.000  C
  C8       1.0000 0.49750  0.70210  0.36950  Biso   1.000  C
  C9       1.0000 0.08800  0.70780  0.36260  Biso   1.000  C
  C10      1.0000 0.33860  0.78580  0.57030  Biso   1.000  C
  C11      1.0000 0.22530  0.73660  0.57560  Biso   1.000  C
  C12      1.0000 0.11810  0.73010  0.61480  Biso   1.000  C
  C13      1.0000 0.12060  0.77240  0.64900  Biso   1.000  C
  C14      1.0000 0.23390  0.82080  0.64370  Biso   1.000  C
  C15      1.0000 0.34350  0.82690  0.60510  Biso   1.000  C
  C16      1.0000 0.00770  0.67610  0.61780  Biso   1.000  C
  C17      1.0000 0.99760  0.77200  0.69020  Biso   1.000  C
  C18      1.0000 0.53450  0.85150  0.51940  Biso   1.000  C
  C19      1.0000 0.62890  0.75030  0.54020  Biso   1.000  C
  C20      1.0000 0.07690  0.47900  0.10380  Biso   1.000  C
  C21      1.0000 0.19150  0.51280  0.13893  Biso   1.000  C
  C22      1.0000 0.09780  0.53970  0.17490  Biso   1.000  C
  C23      1.0000 0.18530  0.57380  0.20700  Biso   1.000  C
  C24      1.0000 0.37630  0.57900  0.20600  Biso   1.000  C
  C25      1.0000 0.46980  0.55100  0.17190  Biso   1.000  C
  C26      1.0000 0.37920  0.51880  0.13870  Biso   1.000  C
  C27      1.0000 0.07450  0.60350  0.24240  Biso   1.000  C
  C28      1.0000 0.48480  0.61200  0.24180  Biso   1.000  C
  C29      1.0000 0.95520  0.43300  0.12710  Biso   1.000  C
  C30      1.0000 0.01090  0.40730  0.16720  Biso   1.000  C
  C31      1.0000 0.90060  0.36700  0.18980  Biso   1.000  C
  C32      1.0000 0.73270  0.35040  0.17050  Biso   1.000  C
  C33      1.0000 0.68260  0.37310  0.12840  Biso   1.000  C
  C34      1.0000 0.79100  0.41480  0.10670  Biso   1.000  C
  C35      1.0000 0.96240  0.34700  0.23620  Biso   1.000  C
  C36      1.0000 0.60500  0.30800  0.19180  Biso   1.000  C
  C37      1.0000 0.19600  0.44670  0.06850  Biso   1.000  C
  C38      1.0000 0.95940  0.52450  0.07760  Biso   1.000  C
  C39      1.0000 0.53550  0.71100  0.02830  Biso   1.000  C
  C40      1.0000 0.62840  0.73160  0.98330  Biso   1.000  C
  C41      1.0000 0.53380  0.75680  0.94760  Biso   1.000  C
  C42      1.0000 0.61610  0.77380  0.90720  Biso   1.000  C
  C43      1.0000 0.80610  0.76700  0.90208  Biso   1.000  C
  C44      1.0000 0.90130  0.73990  0.93660  Biso   1.000  C
  C45      1.0000 0.81500  0.72160  0.97680  Biso   1.000  C
  C46      1.0000 0.50250  0.79790  0.86950  Biso   1.000  C
  C47      1.0000 0.91200  0.79220  0.86260  Biso   1.000  C
  C48      1.0000 0.66140  0.71420  0.07030  Biso   1.000  C
  C49      1.0000 0.77470  0.76340  0.07560  Biso   1.000  C
  C50      1.0000 0.88190  0.76990  0.11480  Biso   1.000  C
  C51      1.0000 0.87940  0.72760  0.14900  Biso   1.000  C
  C52      1.0000 0.76610  0.67920  0.14370  Biso   1.000  C
  C53      1.0000 0.65650  0.67310  0.10510  Biso   1.000  C
  C54      1.0000 0.99230  0.82390  0.11780  Biso   1.000  C
  C55      1.0000 0.00240  0.72800  0.19020  Biso   1.000  C
  C56      1.0000 0.46550  0.64850  0.01940  Biso   1.000  C
  C57      1.0000 0.37110  0.74970  0.04020  Biso   1.000  C
  C58      1.0000 0.92310  0.02100  0.60380  Biso   1.000  C
  C59      1.0000 0.80850  0.98720  0.63893  Biso   1.000  C
  C60      1.0000 0.90220  0.96030  0.67490  Biso   1.000  C
  C61      1.0000 0.81470  0.92620  0.70700  Biso   1.000  C
  C62      1.0000 0.62370  0.92100  0.70600  Biso   1.000  C
  C63      1.0000 0.53020  0.94900  0.67190  Biso   1.000  C
  C64      1.0000 0.62080  0.98120  0.63870  Biso   1.000  C
  C65      1.0000 0.92550  0.89650  0.74240  Biso   1.000  C
  C66      1.0000 0.51520  0.88800  0.74180  Biso   1.000  C
  C67      1.0000 0.04480  0.06700  0.62710  Biso   1.000  C
  C68      1.0000 0.98910  0.09270  0.66720  Biso   1.000  C
  C69      1.0000 0.09940  0.13300  0.68980  Biso   1.000  C
  C70      1.0000 0.26730  0.14960  0.67050  Biso   1.000  C
  C71      1.0000 0.31740  0.12690  0.62840  Biso   1.000  C
  C72      1.0000 0.20900  0.08520  0.60670  Biso   1.000  C
  C73      1.0000 0.03760  0.15300  0.73620  Biso   1.000  C
  C74      1.0000 0.39500  0.19200  0.69180  Biso   1.000  C
  C75      1.0000 0.80400  0.05330  0.56850  Biso   1.000  C
  C76      1.0000 0.04060  0.97550  0.57760  Biso   1.000  C
  C77      1.0000 0.53550  0.21100  0.47170  Biso   1.000  C
  C78      1.0000 0.62840  0.23160  0.51670  Biso   1.000  C
  C79      1.0000 0.53380  0.25680  0.55240  Biso   1.000  C
  C80      1.0000 0.61610  0.27380  0.59280  Biso   1.000  C
  C81      1.0000 0.80610  0.26700  0.59792  Biso   1.000  C
  C82      1.0000 0.90130  0.23990  0.56340  Biso   1.000  C
  C83      1.0000 0.81500  0.22160  0.52320  Biso   1.000  C
  C84      1.0000 0.50250  0.29790  0.63050  Biso   1.000  C
  C85      1.0000 0.91200  0.29220  0.63740  Biso   1.000  C
  C86      1.0000 0.66140  0.21420  0.42970  Biso   1.000  C
  C87      1.0000 0.77470  0.26340  0.42440  Biso   1.000  C
  C88      1.0000 0.88190  0.26990  0.38520  Biso   1.000  C
  C89      1.0000 0.87940  0.22760  0.35100  Biso   1.000  C
  C90      1.0000 0.76610  0.17920  0.35630  Biso   1.000  C
  C91      1.0000 0.65650  0.17310  0.39490  Biso   1.000  C
  C92      1.0000 0.99230  0.32390  0.38220  Biso   1.000  C
  C93      1.0000 0.00240  0.22800  0.30980  Biso   1.000  C
  C94      1.0000 0.46550  0.14850  0.48060  Biso   1.000  C
  C95      1.0000 0.37110  0.24970  0.45980  Biso   1.000  C
  C96      1.0000 0.92310  0.52100  0.89620  Biso   1.000  C
  C97      1.0000 0.80850  0.48720  0.86107  Biso   1.000  C
  C98      1.0000 0.90220  0.46030  0.82510  Biso   1.000  C
  C99      1.0000 0.81470  0.42620  0.79300  Biso   1.000  C
  C100     1.0000 0.62370  0.42100  0.79400  Biso   1.000  C
  C101     1.0000 0.53020  0.44900  0.82810  Biso   1.000  C
  C102     1.0000 0.62080  0.48120  0.86130  Biso   1.000  C
  C103     1.0000 0.92550  0.39650  0.75760  Biso   1.000  C
  C104     1.0000 0.51520  0.38800  0.75820  Biso   1.000  C
  C105     1.0000 0.04480  0.56700  0.87290  Biso   1.000  C
  C106     1.0000 0.98910  0.59270  0.83280  Biso   1.000  C
  C107     1.0000 0.09940  0.63300  0.81020  Biso   1.000  C
  C108     1.0000 0.26730  0.64960  0.82950  Biso   1.000  C
  C109     1.0000 0.31740  0.62690  0.87160  Biso   1.000  C
  C110     1.0000 0.20900  0.58520  0.89330  Biso   1.000  C
  C111     1.0000 0.03760  0.65300  0.76380  Biso   1.000  C
  C112     1.0000 0.39500  0.69200  0.80820  Biso   1.000  C
  C113     1.0000 0.80400  0.55330  0.93150  Biso   1.000  C
  C114     1.0000 0.04060  0.47550  0.92240  Biso   1.000  C
  C115     1.0000 0.46450  0.28900  0.97170  Biso   1.000  C
  C116     1.0000 0.37160  0.26840  0.01670  Biso   1.000  C
  C117     1.0000 0.46620  0.24320  0.05240  Biso   1.000  C
  C118     1.0000 0.38390  0.22620  0.09280  Biso   1.000  C
  C119     1.0000 0.19390  0.23300  0.09792  Biso   1.000  C
  C120     1.0000 0.09870  0.26010  0.06340  Biso   1.000  C
  C121     1.0000 0.18500  0.27840  0.02320  Biso   1.000  C
  C122     1.0000 0.49750  0.20210  0.13050  Biso   1.000  C
  C123     1.0000 0.08800  0.20780  0.13740  Biso   1.000  C
  C124     1.0000 0.33860  0.28580  0.92970  Biso   1.000  C
  C125     1.0000 0.22530  0.23660  0.92440  Biso   1.000  C
  C126     1.0000 0.11810  0.23010  0.88520  Biso   1.000  C
  C127     1.0000 0.12060  0.27240  0.85100  Biso   1.000  C
  C128     1.0000 0.23390  0.32080  0.85630  Biso   1.000  C
  C129     1.0000 0.34350  0.32690  0.89490  Biso   1.000  C
  C130     1.0000 0.00770  0.17610  0.88220  Biso   1.000  C
  C131     1.0000 0.99760  0.27200  0.80980  Biso   1.000  C
  C132     1.0000 0.53450  0.35150  0.98060  Biso   1.000  C
  C133     1.0000 0.62890  0.25030  0.95980  Biso   1.000  C
  C134     1.0000 0.07690  0.97900  0.39620  Biso   1.000  C
  C135     1.0000 0.19150  0.01280  0.36107  Biso   1.000  C
  C136     1.0000 0.09780  0.03970  0.32510  Biso   1.000  C
  C137     1.0000 0.18530  0.07380  0.29300  Biso   1.000  C
  C138     1.0000 0.37630  0.07900  0.29400  Biso   1.000  C
  C139     1.0000 0.46980  0.05100  0.32810  Biso   1.000  C
  C140     1.0000 0.37920  0.01880  0.36130  Biso   1.000  C
  C141     1.0000 0.07450  0.10350  0.25760  Biso   1.000  C
  C142     1.0000 0.48480  0.11200  0.25820  Biso   1.000  C
  C143     1.0000 0.95520  0.93300  0.37290  Biso   1.000  C
  C144     1.0000 0.01090  0.90730  0.33280  Biso   1.000  C
  C145     1.0000 0.90060  0.86700  0.31020  Biso   1.000  C
  C146     1.0000 0.73270  0.85040  0.32950  Biso   1.000  C
  C147     1.0000 0.68260  0.87310  0.37160  Biso   1.000  C
  C148     1.0000 0.79100  0.91480  0.39330  Biso   1.000  C
  C149     1.0000 0.96240  0.84700  0.26380  Biso   1.000  C
  C150     1.0000 0.60500  0.80800  0.30820  Biso   1.000  C
  C151     1.0000 0.19600  0.94670  0.43150  Biso   1.000  C
  C152     1.0000 0.95940  0.02450  0.42240  Biso   1.000  C
  O1       1.0000 0.66670  0.70020  0.37547  Biso   1.000  O
  O2       1.0000 0.42230  0.68629  0.33239  Biso   1.000  O
  O3       1.0000 0.06050  0.73882  0.32641  Biso   1.000  O
  O4       1.0000 0.01820  0.65916  0.36689  Biso   1.000  O
  O5       1.0000 0.98140  0.65090  0.65524  Biso   1.000  O
  O6       1.0000 0.94520  0.65710  0.57994  Biso   1.000  O
  O7       1.0000 0.06780  0.78030  0.72945  Biso   1.000  O
  O8       1.0000 0.83060  0.76610  0.68400  Biso   1.000  O
  O9       1.0000 0.15050  0.63811  0.27032  Biso   1.000  O
  O10      1.0000 0.90340  0.59450  0.24232  Biso   1.000  O
  O11      1.0000 0.51310  0.66596  0.23559  Biso   1.000  O
  O12      1.0000 0.55370  0.58550  0.27405  Biso   1.000  O
  O13      1.0000 0.11670  0.33080  0.24230  Biso   1.000  O
  O14      1.0000 0.84280  0.35260  0.26924  Biso   1.000  O
  O15      1.0000 0.66590  0.26418  0.21210  Biso   1.000  O
  O16      1.0000 0.43810  0.31660  0.18825  Biso   1.000  O
  O17      1.0000 0.77900  0.57400  0.34540  Biso   1.000  O
  O18      1.0000 0.48400  0.79640  0.20663  Biso   1.000  O
  O19      1.0000 0.33330  0.79980  0.87547  Biso   1.000  O
  O20      1.0000 0.57770  0.81371  0.83239  Biso   1.000  O
  O21      1.0000 0.93950  0.76118  0.82641  Biso   1.000  O
  O22      1.0000 0.98180  0.84084  0.86689  Biso   1.000  O
  O23      1.0000 0.01860  0.84910  0.15524  Biso   1.000  O
  O24      1.0000 0.05480  0.84290  0.07994  Biso   1.000  O
  O25      1.0000 0.93220  0.71970  0.22945  Biso   1.000  O
  O26      1.0000 0.16940  0.73390  0.18400  Biso   1.000  O
  O27      1.0000 0.84950  0.86189  0.77032  Biso   1.000  O
  O28      1.0000 0.09660  0.90550  0.74232  Biso   1.000  O
  O29      1.0000 0.48690  0.83404  0.73559  Biso   1.000  O
  O30      1.0000 0.44630  0.91450  0.77405  Biso   1.000  O
  O31      1.0000 0.88330  0.16920  0.74230  Biso   1.000  O
  O32      1.0000 0.15720  0.14740  0.76924  Biso   1.000  O
  O33      1.0000 0.33410  0.23582  0.71210  Biso   1.000  O
  O34      1.0000 0.56190  0.18340  0.68825  Biso   1.000  O
  O35      1.0000 0.22100  0.92600  0.84540  Biso   1.000  O
  O36      1.0000 0.51600  0.70360  0.70663  Biso   1.000  O
  O37      1.0000 0.33330  0.29980  0.62453  Biso   1.000  O
  O38      1.0000 0.57770  0.31371  0.66761  Biso   1.000  O
  O39      1.0000 0.93950  0.26118  0.67359  Biso   1.000  O
  O40      1.0000 0.98180  0.34084  0.63311  Biso   1.000  O
  O41      1.0000 0.01860  0.34910  0.34476  Biso   1.000  O
  O42      1.0000 0.05480  0.34290  0.42006  Biso   1.000  O
  O43      1.0000 0.93220  0.21970  0.27055  Biso   1.000  O
  O44      1.0000 0.16940  0.23390  0.31600  Biso   1.000  O
  O45      1.0000 0.84950  0.36189  0.72968  Biso   1.000  O
  O46      1.0000 0.09660  0.40550  0.75768  Biso   1.000  O
  O47      1.0000 0.48690  0.33404  0.76441  Biso   1.000  O
  O48      1.0000 0.44630  0.41450  0.72595  Biso   1.000  O
  O49      1.0000 0.88330  0.66920  0.75770  Biso   1.000  O
  O50      1.0000 0.15720  0.64740  0.73076  Biso   1.000  O
  O51      1.0000 0.33410  0.73582  0.78790  Biso   1.000  O
  O52      1.0000 0.56190  0.68340  0.81175  Biso   1.000  O
  O53      1.0000 0.22100  0.42600  0.65460  Biso   1.000  O
  O54      1.0000 0.51600  0.20360  0.79337  Biso   1.000  O
  O55      1.0000 0.66670  0.20020  0.12453  Biso   1.000  O
  O56      1.0000 0.42230  0.18629  0.16761  Biso   1.000  O
  O57      1.0000 0.06050  0.23882  0.17359  Biso   1.000  O
  O58      1.0000 0.01820  0.15916  0.13311  Biso   1.000  O
  O59      1.0000 0.98140  0.15090  0.84476  Biso   1.000  O
  O60      1.0000 0.94520  0.15710  0.92006  Biso   1.000  O
  O61      1.0000 0.06780  0.28030  0.77055  Biso   1.000  O
  O62      1.0000 0.83060  0.26610  0.81600  Biso   1.000  O
  O63      1.0000 0.15050  0.13811  0.22968  Biso   1.000  O
  O64      1.0000 0.90340  0.09450  0.25768  Biso   1.000  O
  O65      1.0000 0.51310  0.16596  0.26441  Biso   1.000  O
  O66      1.0000 0.55370  0.08550  0.22595  Biso   1.000  O
  O67      1.0000 0.11670  0.83080  0.25770  Biso   1.000  O
  O68      1.0000 0.84280  0.85260  0.23076  Biso   1.000  O
  O69      1.0000 0.66590  0.76418  0.28790  Biso   1.000  O
  O70      1.0000 0.43810  0.81660  0.31175  Biso   1.000  O
  O71      1.0000 0.77900  0.07400  0.15460  Biso   1.000  O
  O72      1.0000 0.48400  0.29640  0.29337  Biso   1.000  O
  F1       1.0000 0.39850  0.88759  0.51848  Biso   1.000  F
  F2       1.0000 0.65110  0.86920  0.55164  Biso   1.000  F
  F3       1.0000 0.62160  0.85480  0.47940  Biso   1.000  F
  F4       1.0000 0.77410  0.75890  0.51294  Biso   1.000  F
  F5       1.0000 0.58190  0.69430  0.53703  Biso   1.000  F
  F6       1.0000 0.68560  0.76000  0.58299  Biso   1.000  F
  F7       1.0000 0.29990  0.48326  0.04387  Biso   1.000  F
  F8       1.0000 0.30670  0.41109  0.09008  Biso   1.000  F
  F9       1.0000 0.09610  0.41547  0.03954  Biso   1.000  F
  F10      1.0000 0.05750  0.57044  0.06576  Biso   1.000  F
  F11      1.0000 0.88560  0.50364  0.03899  Biso   1.000  F
  F12      1.0000 0.82200  0.54229  0.10330  Biso   1.000  F
  F13      1.0000 0.60150  0.61241  0.01848  Biso   1.000  F
  F14      1.0000 0.34890  0.63080  0.05164  Biso   1.000  F
  F15      1.0000 0.37840  0.64520  0.97940  Biso   1.000  F
  F16      1.0000 0.22590  0.74110  0.01294  Biso   1.000  F
  F17      1.0000 0.41810  0.80570  0.03703  Biso   1.000  F
  F18      1.0000 0.31440  0.74000  0.08299  Biso   1.000  F
  F19      1.0000 0.70010  0.01674  0.54387  Biso   1.000  F
  F20      1.0000 0.69330  0.08891  0.59008  Biso   1.000  F
  F21      1.0000 0.90390  0.08453  0.53954  Biso   1.000  F
  F22      1.0000 0.94250  0.92956  0.56576  Biso   1.000  F
  F23      1.0000 0.11440  0.99636  0.53899  Biso   1.000  F
  F24      1.0000 0.17800  0.95771  0.60330  Biso   1.000  F
  F25      1.0000 0.60150  0.11241  0.48152  Biso   1.000  F
  F26      1.0000 0.34890  0.13080  0.44836  Biso   1.000  F
  F27      1.0000 0.37840  0.14520  0.52060  Biso   1.000  F
  F28      1.0000 0.22590  0.24110  0.48706  Biso   1.000  F
  F29      1.0000 0.41810  0.30570  0.46297  Biso   1.000  F
  F30      1.0000 0.31440  0.24000  0.41701  Biso   1.000  F
  F31      1.0000 0.70010  0.51674  0.95613  Biso   1.000  F
  F32      1.0000 0.69330  0.58891  0.90992  Biso   1.000  F
  F33      1.0000 0.90390  0.58453  0.96046  Biso   1.000  F
  F34      1.0000 0.94250  0.42956  0.93424  Biso   1.000  F
  F35      1.0000 0.11440  0.49636  0.96101  Biso   1.000  F
  F36      1.0000 0.17800  0.45771  0.89670  Biso   1.000  F
  F37      1.0000 0.39850  0.38759  0.98152  Biso   1.000  F
  F38      1.0000 0.65110  0.36920  0.94836  Biso   1.000  F
  F39      1.0000 0.62160  0.35480  0.02060  Biso   1.000  F
  F40      1.0000 0.77410  0.25890  0.98706  Biso   1.000  F
  F41      1.0000 0.58190  0.19430  0.96297  Biso   1.000  F
  F42      1.0000 0.68560  0.26000  0.91701  Biso   1.000  F
  F43      1.0000 0.29990  0.98326  0.45613  Biso   1.000  F
  F44      1.0000 0.30670  0.91109  0.40992  Biso   1.000  F
  F45      1.0000 0.09610  0.91547  0.46046  Biso   1.000  F
  F46      1.0000 0.05750  0.07044  0.43424  Biso   1.000  F
  F47      1.0000 0.88560  0.00364  0.46101  Biso   1.000  F
  F48      1.0000 0.82200  0.04229  0.39670  Biso   1.000  F
