data_image0
_cell_length_a       7.3654
_cell_length_b       23.4808
_cell_length_c       29.0284
_cell_angle_alpha    90
_cell_angle_beta     90
_cell_angle_gamma    90.969

_symmetry_space_group_name_H-M    P 1
_symmetry_int_tables_number       1

loop_
  _symmetry_equiv_pos_as_xyz
  'x, y, z'

loop_
  _atom_site_label
  _atom_site_occupancy
  _atom_site_fract_x
  _atom_site_fract_y
  _atom_site_fract_z
  _atom_site_thermal_displace_type
  _atom_site_B_iso_or_equiv
  _atom_site_type_symbol
  Nd1      1.0000 0.78954  0.67208  0.29729  Biso   1.000  Nd
  Nd2      1.0000 0.28631  0.74295  0.26218  Biso   1.000  Nd
  Nd3      1.0000 0.21046  0.82792  0.79729  Biso   1.000  Nd
  Nd4      1.0000 0.71369  0.75705  0.76218  Biso   1.000  Nd
  Nd5      1.0000 0.21046  0.32792  0.70271  Biso   1.000  Nd
  Nd6      1.0000 0.71369  0.25705  0.73782  Biso   1.000  Nd
  Nd7      1.0000 0.78954  0.17208  0.20271  Biso   1.000  Nd
  Nd8      1.0000 0.28631  0.24295  0.23782  Biso   1.000  Nd
  H1       1.0000 0.92890  0.62020  0.57660  Biso   1.000  H
  H2       1.0000 0.89680  0.34360  0.29460  Biso   1.000  H
  H3       1.0000 0.60480  0.79200  0.20970  Biso   1.000  H
  H4       1.0000 0.48150  0.81650  0.18190  Biso   1.000  H
  H5       1.0000 0.58880  0.74140  0.44830  Biso   1.000  H
  H6       1.0000 0.97740  0.77590  0.43170  Biso   1.000  H
  H7       1.0000 0.12910  0.80500  0.49800  Biso   1.000  H
  H8       1.0000 0.23150  0.71270  0.55020  Biso   1.000  H
  H9       1.0000 0.24100  0.84770  0.66600  Biso   1.000  H
  H10      1.0000 0.41790  0.86100  0.60070  Biso   1.000  H
  H11      1.0000 0.96550  0.53780  0.17780  Biso   1.000  H
  H12      1.0000 0.58890  0.55640  0.17260  Biso   1.000  H
  H13      1.0000 0.44080  0.50350  0.11790  Biso   1.000  H
  H14      1.0000 0.11710  0.42090  0.18300  Biso   1.000  H
  H15      1.0000 0.56890  0.36510  0.11860  Biso   1.000  H
  H16      1.0000 0.74930  0.43260  0.08170  Biso   1.000  H
  H17      1.0000 0.07110  0.87980  0.07660  Biso   1.000  H
  H18      1.0000 0.10320  0.15640  0.79460  Biso   1.000  H
  H19      1.0000 0.39520  0.70800  0.70970  Biso   1.000  H
  H20      1.0000 0.51850  0.68350  0.68190  Biso   1.000  H
  H21      1.0000 0.41120  0.75860  0.94830  Biso   1.000  H
  H22      1.0000 0.02260  0.72410  0.93170  Biso   1.000  H
  H23      1.0000 0.87090  0.69500  0.99800  Biso   1.000  H
  H24      1.0000 0.76850  0.78730  0.05020  Biso   1.000  H
  H25      1.0000 0.75900  0.65230  0.16600  Biso   1.000  H
  H26      1.0000 0.58210  0.63900  0.10070  Biso   1.000  H
  H27      1.0000 0.03450  0.96220  0.67780  Biso   1.000  H
  H28      1.0000 0.41110  0.94360  0.67260  Biso   1.000  H
  H29      1.0000 0.55920  0.99650  0.61790  Biso   1.000  H
  H30      1.0000 0.88290  0.07910  0.68300  Biso   1.000  H
  H31      1.0000 0.43110  0.13490  0.61860  Biso   1.000  H
  H32      1.0000 0.25070  0.06740  0.58170  Biso   1.000  H
  H33      1.0000 0.07110  0.37980  0.42340  Biso   1.000  H
  H34      1.0000 0.10320  0.65640  0.70540  Biso   1.000  H
  H35      1.0000 0.39520  0.20800  0.79030  Biso   1.000  H
  H36      1.0000 0.51850  0.18350  0.81810  Biso   1.000  H
  H37      1.0000 0.41120  0.25860  0.55170  Biso   1.000  H
  H38      1.0000 0.02260  0.22410  0.56830  Biso   1.000  H
  H39      1.0000 0.87090  0.19500  0.50200  Biso   1.000  H
  H40      1.0000 0.76850  0.28730  0.44980  Biso   1.000  H
  H41      1.0000 0.75900  0.15230  0.33400  Biso   1.000  H
  H42      1.0000 0.58210  0.13900  0.39930  Biso   1.000  H
  H43      1.0000 0.03450  0.46220  0.82220  Biso   1.000  H
  H44      1.0000 0.41110  0.44360  0.82740  Biso   1.000  H
  H45      1.0000 0.55920  0.49650  0.88210  Biso   1.000  H
  H46      1.0000 0.88290  0.57910  0.81700  Biso   1.000  H
  H47      1.0000 0.43110  0.63490  0.88140  Biso   1.000  H
  H48      1.0000 0.25070  0.56740  0.91830  Biso   1.000  H
  H49      1.0000 0.92890  0.12020  0.92340  Biso   1.000  H
  H50      1.0000 0.89680  0.84360  0.20540  Biso   1.000  H
  H51      1.0000 0.60480  0.29200  0.29030  Biso   1.000  H
  H52      1.0000 0.48150  0.31650  0.31810  Biso   1.000  H
  H53      1.0000 0.58880  0.24140  0.05170  Biso   1.000  H
  H54      1.0000 0.97740  0.27590  0.06830  Biso   1.000  H
  H55      1.0000 0.12910  0.30500  0.00200  Biso   1.000  H
  H56      1.0000 0.23150  0.21270  0.94980  Biso   1.000  H
  H57      1.0000 0.24100  0.34770  0.83400  Biso   1.000  H
  H58      1.0000 0.41790  0.36100  0.89930  Biso   1.000  H
  H59      1.0000 0.96550  0.03780  0.32220  Biso   1.000  H
  H60      1.0000 0.58890  0.05640  0.32740  Biso   1.000  H
  H61      1.0000 0.44080  0.00350  0.38210  Biso   1.000  H
  H62      1.0000 0.11710  0.92090  0.31700  Biso   1.000  H
  H63      1.0000 0.56890  0.86510  0.38140  Biso   1.000  H
  H64      1.0000 0.74930  0.93260  0.41830  Biso   1.000  H
  C1       1.0000 0.46830  0.79330  0.52620  Biso   1.000  C
  C2       1.0000 0.37470  0.77290  0.48130  Biso   1.000  C
  C3       1.0000 0.46500  0.74770  0.44530  Biso   1.000  C
  C4       1.0000 0.37960  0.73130  0.40490  Biso   1.000  C
  C5       1.0000 0.19130  0.73970  0.40020  Biso   1.000  C
  C6       1.0000 0.10010  0.76820  0.43510  Biso   1.000  C
  C7       1.0000 0.19100  0.78530  0.47530  Biso   1.000  C
  C8       1.0000 0.48580  0.70530  0.36740  Biso   1.000  C
  C9       1.0000 0.08160  0.71480  0.36130  Biso   1.000  C
  C10      1.0000 0.34570  0.78820  0.56850  Biso   1.000  C
  C11      1.0000 0.23430  0.73980  0.57360  Biso   1.000  C
  C12      1.0000 0.12690  0.73090  0.61270  Biso   1.000  C
  C13      1.0000 0.12850  0.77230  0.64720  Biso   1.000  C
  C14      1.0000 0.23850  0.82050  0.64270  Biso   1.000  C
  C15      1.0000 0.34560  0.82830  0.60340  Biso   1.000  C
  C16      1.0000 0.01790  0.67750  0.61430  Biso   1.000  C
  C17      1.0000 0.00810  0.77000  0.68880  Biso   1.000  C
  C18      1.0000 0.53270  0.85590  0.51800  Biso   1.000  C
  C19      1.0000 0.63520  0.75670  0.53780  Biso   1.000  C
  C20      1.0000 0.07020  0.48070  0.10620  Biso   1.000  C
  C21      1.0000 0.18590  0.51530  0.14180  Biso   1.000  C
  C22      1.0000 0.09090  0.54270  0.17610  Biso   1.000  C
  C23      1.0000 0.17950  0.57770  0.20830  Biso   1.000  C
  C24      1.0000 0.37060  0.58310  0.20790  Biso   1.000  C
  C25      1.0000 0.46280  0.55390  0.17350  Biso   1.000  C
  C26      1.0000 0.37450  0.52150  0.14080  Biso   1.000  C
  C27      1.0000 0.06660  0.60860  0.24230  Biso   1.000  C
  C28      1.0000 0.47770  0.61860  0.24170  Biso   1.000  C
  C29      1.0000 0.94880  0.43530  0.13010  Biso   1.000  C
  C30      1.0000 0.00530  0.41040  0.17040  Biso   1.000  C
  C31      1.0000 0.89770  0.36980  0.19270  Biso   1.000  C
  C32      1.0000 0.72910  0.35350  0.17340  Biso   1.000  C
  C33      1.0000 0.67790  0.37680  0.13200  Biso   1.000  C
  C34      1.0000 0.78550  0.41740  0.10980  Biso   1.000  C
  C35      1.0000 0.95830  0.34900  0.23860  Biso   1.000  C
  C36      1.0000 0.60310  0.31010  0.19450  Biso   1.000  C
  C37      1.0000 0.18910  0.44920  0.07130  Biso   1.000  C
  C38      1.0000 0.95620  0.52470  0.07940  Biso   1.000  C
  C39      1.0000 0.53170  0.70670  0.02620  Biso   1.000  C
  C40      1.0000 0.62530  0.72710  0.98130  Biso   1.000  C
  C41      1.0000 0.53500  0.75230  0.94530  Biso   1.000  C
  C42      1.0000 0.62040  0.76870  0.90490  Biso   1.000  C
  C43      1.0000 0.80870  0.76030  0.90020  Biso   1.000  C
  C44      1.0000 0.89990  0.73180  0.93510  Biso   1.000  C
  C45      1.0000 0.80900  0.71470  0.97530  Biso   1.000  C
  C46      1.0000 0.51420  0.79470  0.86740  Biso   1.000  C
  C47      1.0000 0.91840  0.78520  0.86130  Biso   1.000  C
  C48      1.0000 0.65430  0.71180  0.06850  Biso   1.000  C
  C49      1.0000 0.76570  0.76020  0.07360  Biso   1.000  C
  C50      1.0000 0.87310  0.76910  0.11270  Biso   1.000  C
  C51      1.0000 0.87150  0.72770  0.14720  Biso   1.000  C
  C52      1.0000 0.76150  0.67950  0.14270  Biso   1.000  C
  C53      1.0000 0.65440  0.67170  0.10340  Biso   1.000  C
  C54      1.0000 0.98210  0.82250  0.11430  Biso   1.000  C
  C55      1.0000 0.99190  0.73000  0.18880  Biso   1.000  C
  C56      1.0000 0.46730  0.64410  0.01800  Biso   1.000  C
  C57      1.0000 0.36480  0.74330  0.03780  Biso   1.000  C
  C58      1.0000 0.92980  0.01930  0.60620  Biso   1.000  C
  C59      1.0000 0.81410  0.98470  0.64180  Biso   1.000  C
  C60      1.0000 0.90910  0.95730  0.67610  Biso   1.000  C
  C61      1.0000 0.82050  0.92230  0.70830  Biso   1.000  C
  C62      1.0000 0.62940  0.91690  0.70790  Biso   1.000  C
  C63      1.0000 0.53720  0.94610  0.67350  Biso   1.000  C
  C64      1.0000 0.62550  0.97850  0.64080  Biso   1.000  C
  C65      1.0000 0.93340  0.89140  0.74230  Biso   1.000  C
  C66      1.0000 0.52230  0.88140  0.74170  Biso   1.000  C
  C67      1.0000 0.05120  0.06470  0.63010  Biso   1.000  C
  C68      1.0000 0.99470  0.08960  0.67040  Biso   1.000  C
  C69      1.0000 0.10230  0.13020  0.69270  Biso   1.000  C
  C70      1.0000 0.27090  0.14650  0.67340  Biso   1.000  C
  C71      1.0000 0.32210  0.12320  0.63200  Biso   1.000  C
  C72      1.0000 0.21450  0.08260  0.60980  Biso   1.000  C
  C73      1.0000 0.04170  0.15100  0.73860  Biso   1.000  C
  C74      1.0000 0.39690  0.18990  0.69450  Biso   1.000  C
  C75      1.0000 0.81090  0.05080  0.57130  Biso   1.000  C
  C76      1.0000 0.04380  0.97530  0.57940  Biso   1.000  C
  C77      1.0000 0.53170  0.20670  0.47380  Biso   1.000  C
  C78      1.0000 0.62530  0.22710  0.51870  Biso   1.000  C
  C79      1.0000 0.53500  0.25230  0.55470  Biso   1.000  C
  C80      1.0000 0.62040  0.26870  0.59510  Biso   1.000  C
  C81      1.0000 0.80870  0.26030  0.59980  Biso   1.000  C
  C82      1.0000 0.89990  0.23180  0.56490  Biso   1.000  C
  C83      1.0000 0.80900  0.21470  0.52470  Biso   1.000  C
  C84      1.0000 0.51420  0.29470  0.63260  Biso   1.000  C
  C85      1.0000 0.91840  0.28520  0.63870  Biso   1.000  C
  C86      1.0000 0.65430  0.21180  0.43150  Biso   1.000  C
  C87      1.0000 0.76570  0.26020  0.42640  Biso   1.000  C
  C88      1.0000 0.87310  0.26910  0.38730  Biso   1.000  C
  C89      1.0000 0.87150  0.22770  0.35280  Biso   1.000  C
  C90      1.0000 0.76150  0.17950  0.35730  Biso   1.000  C
  C91      1.0000 0.65440  0.17170  0.39660  Biso   1.000  C
  C92      1.0000 0.98210  0.32250  0.38570  Biso   1.000  C
  C93      1.0000 0.99190  0.23000  0.31120  Biso   1.000  C
  C94      1.0000 0.46730  0.14410  0.48200  Biso   1.000  C
  C95      1.0000 0.36480  0.24330  0.46220  Biso   1.000  C
  C96      1.0000 0.92980  0.51930  0.89380  Biso   1.000  C
  C97      1.0000 0.81410  0.48470  0.85820  Biso   1.000  C
  C98      1.0000 0.90910  0.45730  0.82390  Biso   1.000  C
  C99      1.0000 0.82050  0.42230  0.79170  Biso   1.000  C
  C100     1.0000 0.62940  0.41690  0.79210  Biso   1.000  C
  C101     1.0000 0.53720  0.44610  0.82650  Biso   1.000  C
  C102     1.0000 0.62550  0.47850  0.85920  Biso   1.000  C
  C103     1.0000 0.93340  0.39140  0.75770  Biso   1.000  C
  C104     1.0000 0.52230  0.38140  0.75830  Biso   1.000  C
  C105     1.0000 0.05120  0.56470  0.86990  Biso   1.000  C
  C106     1.0000 0.99470  0.58960  0.82960  Biso   1.000  C
  C107     1.0000 0.10230  0.63020  0.80730  Biso   1.000  C
  C108     1.0000 0.27090  0.64650  0.82660  Biso   1.000  C
  C109     1.0000 0.32210  0.62320  0.86800  Biso   1.000  C
  C110     1.0000 0.21450  0.58260  0.89020  Biso   1.000  C
  C111     1.0000 0.04170  0.65100  0.76140  Biso   1.000  C
  C112     1.0000 0.39690  0.68990  0.80550  Biso   1.000  C
  C113     1.0000 0.81090  0.55080  0.92870  Biso   1.000  C
  C114     1.0000 0.04380  0.47530  0.92060  Biso   1.000  C
  C115     1.0000 0.46830  0.29330  0.97380  Biso   1.000  C
  C116     1.0000 0.37470  0.27290  0.01870  Biso   1.000  C
  C117     1.0000 0.46500  0.24770  0.05470  Biso   1.000  C
  C118     1.0000 0.37960  0.23130  0.09510  Biso   1.000  C
  C119     1.0000 0.19130  0.23970  0.09980  Biso   1.000  C
  C120     1.0000 0.10010  0.26820  0.06490  Biso   1.000  C
  C121     1.0000 0.19100  0.28530  0.02470  Biso   1.000  C
  C122     1.0000 0.48580  0.20530  0.13260  Biso   1.000  C
  C123     1.0000 0.08160  0.21480  0.13870  Biso   1.000  C
  C124     1.0000 0.34570  0.28820  0.93150  Biso   1.000  C
  C125     1.0000 0.23430  0.23980  0.92640  Biso   1.000  C
  C126     1.0000 0.12690  0.23090  0.88730  Biso   1.000  C
  C127     1.0000 0.12850  0.27230  0.85280  Biso   1.000  C
  C128     1.0000 0.23850  0.32050  0.85730  Biso   1.000  C
  C129     1.0000 0.34560  0.32830  0.89660  Biso   1.000  C
  C130     1.0000 0.01790  0.17750  0.88570  Biso   1.000  C
  C131     1.0000 0.00810  0.27000  0.81120  Biso   1.000  C
  C132     1.0000 0.53270  0.35590  0.98200  Biso   1.000  C
  C133     1.0000 0.63520  0.25670  0.96220  Biso   1.000  C
  C134     1.0000 0.07020  0.98070  0.39380  Biso   1.000  C
  C135     1.0000 0.18590  0.01530  0.35820  Biso   1.000  C
  C136     1.0000 0.09090  0.04270  0.32390  Biso   1.000  C
  C137     1.0000 0.17950  0.07770  0.29170  Biso   1.000  C
  C138     1.0000 0.37060  0.08310  0.29210  Biso   1.000  C
  C139     1.0000 0.46280  0.05390  0.32650  Biso   1.000  C
  C140     1.0000 0.37450  0.02150  0.35920  Biso   1.000  C
  C141     1.0000 0.06660  0.10860  0.25770  Biso   1.000  C
  C142     1.0000 0.47770  0.11860  0.25830  Biso   1.000  C
  C143     1.0000 0.94880  0.93530  0.36990  Biso   1.000  C
  C144     1.0000 0.00530  0.91040  0.32960  Biso   1.000  C
  C145     1.0000 0.89770  0.86980  0.30730  Biso   1.000  C
  C146     1.0000 0.72910  0.85350  0.32660  Biso   1.000  C
  C147     1.0000 0.67790  0.87680  0.36800  Biso   1.000  C
  C148     1.0000 0.78550  0.91740  0.39020  Biso   1.000  C
  C149     1.0000 0.95830  0.84900  0.26140  Biso   1.000  C
  C150     1.0000 0.60310  0.81010  0.30550  Biso   1.000  C
  C151     1.0000 0.18910  0.94920  0.42870  Biso   1.000  C
  C152     1.0000 0.95620  0.02470  0.42060  Biso   1.000  C
  O1       1.0000 0.65110  0.69880  0.37310  Biso   1.000  O
  O2       1.0000 0.40640  0.69230  0.33017  Biso   1.000  O
  O3       1.0000 0.05620  0.74480  0.32433  Biso   1.000  O
  O4       1.0000 0.00680  0.66820  0.36650  Biso   1.000  O
  O5       1.0000 0.99360  0.65110  0.65230  Biso   1.000  O
  O6       1.0000 0.95930  0.65740  0.57700  Biso   1.000  O
  O7       1.0000 0.07930  0.77740  0.72819  Biso   1.000  O
  O8       1.0000 0.84030  0.76390  0.68440  Biso   1.000  O
  O9       1.0000 0.13930  0.64410  0.26987  Biso   1.000  O
  O10      1.0000 0.89510  0.60070  0.24160  Biso   1.000  O
  O11      1.0000 0.50400  0.67160  0.23488  Biso   1.000  O
  O12      1.0000 0.55260  0.59310  0.27470  Biso   1.000  O
  O13      1.0000 0.11390  0.33270  0.24501  Biso   1.000  O
  O14      1.0000 0.84040  0.35330  0.27169  Biso   1.000  O
  O15      1.0000 0.66460  0.26560  0.21240  Biso   1.000  O
  O16      1.0000 0.43660  0.31940  0.19310  Biso   1.000  O
  O17      1.0000 0.79800  0.57990  0.34140  Biso   1.000  O
  O18      1.0000 0.48380  0.79250  0.20500  Biso   1.000  O
  O19      1.0000 0.34890  0.80120  0.87310  Biso   1.000  O
  O20      1.0000 0.59360  0.80770  0.83017  Biso   1.000  O
  O21      1.0000 0.94380  0.75520  0.82433  Biso   1.000  O
  O22      1.0000 0.99320  0.83180  0.86650  Biso   1.000  O
  O23      1.0000 0.00640  0.84890  0.15230  Biso   1.000  O
  O24      1.0000 0.04070  0.84260  0.07700  Biso   1.000  O
  O25      1.0000 0.92070  0.72260  0.22819  Biso   1.000  O
  O26      1.0000 0.15970  0.73610  0.18440  Biso   1.000  O
  O27      1.0000 0.86070  0.85590  0.76987  Biso   1.000  O
  O28      1.0000 0.10490  0.89930  0.74160  Biso   1.000  O
  O29      1.0000 0.49600  0.82840  0.73488  Biso   1.000  O
  O30      1.0000 0.44740  0.90690  0.77470  Biso   1.000  O
  O31      1.0000 0.88610  0.16730  0.74501  Biso   1.000  O
  O32      1.0000 0.15960  0.14670  0.77169  Biso   1.000  O
  O33      1.0000 0.33540  0.23440  0.71240  Biso   1.000  O
  O34      1.0000 0.56340  0.18060  0.69310  Biso   1.000  O
  O35      1.0000 0.20200  0.92010  0.84140  Biso   1.000  O
  O36      1.0000 0.51620  0.70750  0.70500  Biso   1.000  O
  O37      1.0000 0.34890  0.30120  0.62690  Biso   1.000  O
  O38      1.0000 0.59360  0.30770  0.66983  Biso   1.000  O
  O39      1.0000 0.94380  0.25520  0.67567  Biso   1.000  O
  O40      1.0000 0.99320  0.33180  0.63350  Biso   1.000  O
  O41      1.0000 0.00640  0.34890  0.34770  Biso   1.000  O
  O42      1.0000 0.04070  0.34260  0.42300  Biso   1.000  O
  O43      1.0000 0.92070  0.22260  0.27181  Biso   1.000  O
  O44      1.0000 0.15970  0.23610  0.31560  Biso   1.000  O
  O45      1.0000 0.86070  0.35590  0.73013  Biso   1.000  O
  O46      1.0000 0.10490  0.39930  0.75840  Biso   1.000  O
  O47      1.0000 0.49600  0.32840  0.76512  Biso   1.000  O
  O48      1.0000 0.44740  0.40690  0.72530  Biso   1.000  O
  O49      1.0000 0.88610  0.66730  0.75499  Biso   1.000  O
  O50      1.0000 0.15960  0.64670  0.72831  Biso   1.000  O
  O51      1.0000 0.33540  0.73440  0.78760  Biso   1.000  O
  O52      1.0000 0.56340  0.68060  0.80690  Biso   1.000  O
  O53      1.0000 0.20200  0.42010  0.65860  Biso   1.000  O
  O54      1.0000 0.51620  0.20750  0.79500  Biso   1.000  O
  O55      1.0000 0.65110  0.19880  0.12690  Biso   1.000  O
  O56      1.0000 0.40640  0.19230  0.16983  Biso   1.000  O
  O57      1.0000 0.05620  0.24480  0.17567  Biso   1.000  O
  O58      1.0000 0.00680  0.16820  0.13350  Biso   1.000  O
  O59      1.0000 0.99360  0.15110  0.84770  Biso   1.000  O
  O60      1.0000 0.95930  0.15740  0.92300  Biso   1.000  O
  O61      1.0000 0.07930  0.27740  0.77181  Biso   1.000  O
  O62      1.0000 0.84030  0.26390  0.81560  Biso   1.000  O
  O63      1.0000 0.13930  0.14410  0.23013  Biso   1.000  O
  O64      1.0000 0.89510  0.10070  0.25840  Biso   1.000  O
  O65      1.0000 0.50400  0.17160  0.26512  Biso   1.000  O
  O66      1.0000 0.55260  0.09310  0.22530  Biso   1.000  O
  O67      1.0000 0.11390  0.83270  0.25499  Biso   1.000  O
  O68      1.0000 0.84040  0.85330  0.22831  Biso   1.000  O
  O69      1.0000 0.66460  0.76560  0.28760  Biso   1.000  O
  O70      1.0000 0.43660  0.81940  0.30690  Biso   1.000  O
  O71      1.0000 0.79800  0.07990  0.15860  Biso   1.000  O
  O72      1.0000 0.48380  0.29250  0.29500  Biso   1.000  O
  F1       1.0000 0.39500  0.89090  0.51732  Biso   1.000  F
  F2       1.0000 0.65060  0.87380  0.54957  Biso   1.000  F
  F3       1.0000 0.62090  0.86060  0.47753  Biso   1.000  F
  F4       1.0000 0.77820  0.76530  0.50879  Biso   1.000  F
  F5       1.0000 0.59190  0.70070  0.53427  Biso   1.000  F
  F6       1.0000 0.69670  0.76580  0.57988  Biso   1.000  F
  F7       1.0000 0.29240  0.48460  0.04593  Biso   1.000  F
  F8       1.0000 0.30220  0.41390  0.09270  Biso   1.000  F
  F9       1.0000 0.09190  0.41730  0.04221  Biso   1.000  F
  F10      1.0000 0.05210  0.57120  0.06839  Biso   1.000  F
  F11      1.0000 0.88470  0.50470  0.04002  Biso   1.000  F
  F12      1.0000 0.81540  0.54220  0.10478  Biso   1.000  F
  F13      1.0000 0.60500  0.60910  0.01732  Biso   1.000  F
  F14      1.0000 0.34940  0.62620  0.04957  Biso   1.000  F
  F15      1.0000 0.37910  0.63940  0.97753  Biso   1.000  F
  F16      1.0000 0.22180  0.73470  0.00879  Biso   1.000  F
  F17      1.0000 0.40810  0.79930  0.03427  Biso   1.000  F
  F18      1.0000 0.30330  0.73420  0.07988  Biso   1.000  F
  F19      1.0000 0.70760  0.01540  0.54593  Biso   1.000  F
  F20      1.0000 0.69780  0.08610  0.59270  Biso   1.000  F
  F21      1.0000 0.90810  0.08270  0.54221  Biso   1.000  F
  F22      1.0000 0.94790  0.92880  0.56839  Biso   1.000  F
  F23      1.0000 0.11530  0.99530  0.54002  Biso   1.000  F
  F24      1.0000 0.18460  0.95780  0.60478  Biso   1.000  F
  F25      1.0000 0.60500  0.10910  0.48268  Biso   1.000  F
  F26      1.0000 0.34940  0.12620  0.45043  Biso   1.000  F
  F27      1.0000 0.37910  0.13940  0.52247  Biso   1.000  F
  F28      1.0000 0.22180  0.23470  0.49121  Biso   1.000  F
  F29      1.0000 0.40810  0.29930  0.46573  Biso   1.000  F
  F30      1.0000 0.30330  0.23420  0.42012  Biso   1.000  F
  F31      1.0000 0.70760  0.51540  0.95407  Biso   1.000  F
  F32      1.0000 0.69780  0.58610  0.90730  Biso   1.000  F
  F33      1.0000 0.90810  0.58270  0.95779  Biso   1.000  F
  F34      1.0000 0.94790  0.42880  0.93161  Biso   1.000  F
  F35      1.0000 0.11530  0.49530  0.95998  Biso   1.000  F
  F36      1.0000 0.18460  0.45780  0.89522  Biso   1.000  F
  F37      1.0000 0.39500  0.39090  0.98268  Biso   1.000  F
  F38      1.0000 0.65060  0.37380  0.95043  Biso   1.000  F
  F39      1.0000 0.62090  0.36060  0.02247  Biso   1.000  F
  F40      1.0000 0.77820  0.26530  0.99121  Biso   1.000  F
  F41      1.0000 0.59190  0.20070  0.96573  Biso   1.000  F
  F42      1.0000 0.69670  0.26580  0.92012  Biso   1.000  F
  F43      1.0000 0.29240  0.98460  0.45407  Biso   1.000  F
  F44      1.0000 0.30220  0.91390  0.40730  Biso   1.000  F
  F45      1.0000 0.09190  0.91730  0.45779  Biso   1.000  F
  F46      1.0000 0.05210  0.07120  0.43161  Biso   1.000  F
  F47      1.0000 0.88470  0.00470  0.45998  Biso   1.000  F
  F48      1.0000 0.81540  0.04220  0.39522  Biso   1.000  F
