data_image0
_cell_length_a       8.0659
_cell_length_b       21.2621
_cell_length_c       22.7182
_cell_angle_alpha    82.919
_cell_angle_beta     82.369
_cell_angle_gamma    80.025

_symmetry_space_group_name_H-M    P 1
_symmetry_int_tables_number       1

loop_
  _symmetry_equiv_pos_as_xyz
  'x, y, z'

loop_
  _atom_site_label
  _atom_site_occupancy
  _atom_site_fract_x
  _atom_site_fract_y
  _atom_site_fract_z
  _atom_site_thermal_displace_type
  _atom_site_B_iso_or_equiv
  _atom_site_type_symbol
  Yb1      1.0000 0.80241  0.42291  0.28441  Biso   1.000  Yb
  Yb2      1.0000 0.38714  0.47082  0.43305  Biso   1.000  Yb
  Yb3      1.0000 0.46276  0.24693  0.09610  Biso   1.000  Yb
  Yb4      1.0000 0.23953  0.09279  0.03710  Biso   1.000  Yb
  Yb5      1.0000 0.19759  0.57709  0.71559  Biso   1.000  Yb
  Yb6      1.0000 0.61286  0.52918  0.56695  Biso   1.000  Yb
  Yb7      1.0000 0.53724  0.75307  0.90391  Biso   1.000  Yb
  Yb8      1.0000 0.76047  0.90721  0.96290  Biso   1.000  Yb
  H1       1.0000 0.51600  0.41530  0.21970  Biso   1.000  H
  H2       1.0000 0.50480  0.47690  0.22920  Biso   1.000  H
  H3       1.0000 0.01390  0.45450  0.18540  Biso   1.000  H
  H4       1.0000 0.88130  0.43890  0.16500  Biso   1.000  H
  H5       1.0000 0.16870  0.40750  0.26980  Biso   1.000  H
  H6       1.0000 0.11730  0.46680  0.29070  Biso   1.000  H
  H7       1.0000 0.10750  0.42850  0.39270  Biso   1.000  H
  H8       1.0000 0.05080  0.46740  0.44730  Biso   1.000  H
  H9       1.0000 0.81840  0.25270  0.05250  Biso   1.000  H
  H10      1.0000 0.78090  0.26030  0.11110  Biso   1.000  H
  H11      1.0000 0.11260  0.29880  0.08860  Biso   1.000  H
  H12      1.0000 0.19310  0.34410  0.05120  Biso   1.000  H
  H13      1.0000 0.43220  0.38860  0.05900  Biso   1.000  H
  H14      1.0000 0.58750  0.37540  0.07050  Biso   1.000  H
  H15      1.0000 0.38430  0.98560  0.08500  Biso   1.000  H
  H16      1.0000 0.27450  0.94730  0.07970  Biso   1.000  H
  H17      1.0000 0.56410  0.64420  0.25260  Biso   1.000  H
  H18      1.0000 0.53890  0.71290  0.43880  Biso   1.000  H
  H19      1.0000 0.44730  0.78460  0.36120  Biso   1.000  H
  H20      1.0000 0.40240  0.77130  0.12510  Biso   1.000  H
  H21      1.0000 0.97110  0.74720  0.14990  Biso   1.000  H
  H22      1.0000 0.76860  0.74610  0.23210  Biso   1.000  H
  H23      1.0000 0.34020  0.28210  0.43110  Biso   1.000  H
  H24      1.0000 0.33800  0.18530  0.26020  Biso   1.000  H
  H25      1.0000 0.23560  0.13780  0.35150  Biso   1.000  H
  H26      1.0000 0.97760  0.27040  0.41560  Biso   1.000  H
  H27      1.0000 0.97940  0.31380  0.61040  Biso   1.000  H
  H28      1.0000 0.13360  0.21900  0.57820  Biso   1.000  H
  H29      1.0000 0.64670  0.08900  0.21770  Biso   1.000  H
  H30      1.0000 0.84740  0.88530  0.16280  Biso   1.000  H
  H31      1.0000 0.89660  0.91130  0.25320  Biso   1.000  H
  H32      1.0000 0.03860  0.07150  0.21620  Biso   1.000  H
  H33      1.0000 0.77540  0.24460  0.31580  Biso   1.000  H
  H34      1.0000 0.71860  0.14320  0.35160  Biso   1.000  H
  H35      1.0000 0.48400  0.58470  0.78030  Biso   1.000  H
  H36      1.0000 0.49520  0.52310  0.77080  Biso   1.000  H
  H37      1.0000 0.98610  0.54550  0.81460  Biso   1.000  H
  H38      1.0000 0.11870  0.56110  0.83500  Biso   1.000  H
  H39      1.0000 0.83130  0.59250  0.73020  Biso   1.000  H
  H40      1.0000 0.88270  0.53320  0.70930  Biso   1.000  H
  H41      1.0000 0.89250  0.57150  0.60730  Biso   1.000  H
  H42      1.0000 0.94920  0.53260  0.55270  Biso   1.000  H
  H43      1.0000 0.18160  0.74730  0.94750  Biso   1.000  H
  H44      1.0000 0.21910  0.73970  0.88890  Biso   1.000  H
  H45      1.0000 0.88740  0.70120  0.91140  Biso   1.000  H
  H46      1.0000 0.80690  0.65590  0.94880  Biso   1.000  H
  H47      1.0000 0.56780  0.61140  0.94100  Biso   1.000  H
  H48      1.0000 0.41250  0.62460  0.92950  Biso   1.000  H
  H49      1.0000 0.61570  0.01440  0.91500  Biso   1.000  H
  H50      1.0000 0.72550  0.05270  0.92030  Biso   1.000  H
  H51      1.0000 0.43590  0.35580  0.74740  Biso   1.000  H
  H52      1.0000 0.46110  0.28710  0.56120  Biso   1.000  H
  H53      1.0000 0.55270  0.21540  0.63880  Biso   1.000  H
  H54      1.0000 0.59760  0.22870  0.87490  Biso   1.000  H
  H55      1.0000 0.02890  0.25280  0.85010  Biso   1.000  H
  H56      1.0000 0.23140  0.25390  0.76790  Biso   1.000  H
  H57      1.0000 0.65980  0.71790  0.56890  Biso   1.000  H
  H58      1.0000 0.66200  0.81470  0.73980  Biso   1.000  H
  H59      1.0000 0.76440  0.86220  0.64850  Biso   1.000  H
  H60      1.0000 0.02240  0.72960  0.58440  Biso   1.000  H
  H61      1.0000 0.02060  0.68620  0.38960  Biso   1.000  H
  H62      1.0000 0.86640  0.78100  0.42180  Biso   1.000  H
  H63      1.0000 0.35330  0.91100  0.78230  Biso   1.000  H
  H64      1.0000 0.15260  0.11470  0.83720  Biso   1.000  H
  H65      1.0000 0.10340  0.08870  0.74680  Biso   1.000  H
  H66      1.0000 0.96140  0.92850  0.78380  Biso   1.000  H
  H67      1.0000 0.22460  0.75540  0.68420  Biso   1.000  H
  H68      1.0000 0.28140  0.85680  0.64840  Biso   1.000  H
  C1       1.0000 0.43650  0.76720  0.24410  Biso   1.000  C
  C2       1.0000 0.49660  0.72260  0.29730  Biso   1.000  C
  C3       1.0000 0.55330  0.65780  0.29050  Biso   1.000  C
  C4       1.0000 0.59440  0.61260  0.33830  Biso   1.000  C
  C5       1.0000 0.58740  0.63340  0.39510  Biso   1.000  C
  C6       1.0000 0.53790  0.69850  0.40180  Biso   1.000  C
  C7       1.0000 0.48760  0.74200  0.35480  Biso   1.000  C
  C8       1.0000 0.65440  0.54450  0.32580  Biso   1.000  C
  C9       1.0000 0.62030  0.58970  0.44940  Biso   1.000  C
  C10      1.0000 0.56590  0.76080  0.18770  Biso   1.000  C
  C11      1.0000 0.51630  0.76810  0.13010  Biso   1.000  C
  C12      1.0000 0.63800  0.77050  0.08000  Biso   1.000  C
  C13      1.0000 0.80920  0.76630  0.08680  Biso   1.000  C
  C14      1.0000 0.85690  0.75430  0.14440  Biso   1.000  C
  C15      1.0000 0.73450  0.75280  0.19400  Biso   1.000  C
  C16      1.0000 0.58440  0.77460  0.01980  Biso   1.000  C
  C17      1.0000 0.94310  0.77550  0.03540  Biso   1.000  C
  C18      1.0000 0.26180  0.75250  0.23530  Biso   1.000  C
  C19      1.0000 0.41740  0.83930  0.25510  Biso   1.000  C
  C20      1.0000 0.19760  0.18010  0.46350  Biso   1.000  C
  C21      1.0000 0.27330  0.20550  0.40130  Biso   1.000  C
  C22      1.0000 0.33710  0.26300  0.39660  Biso   1.000  C
  C23      1.0000 0.39560  0.29220  0.34220  Biso   1.000  C
  C24      1.0000 0.39270  0.26330  0.29000  Biso   1.000  C
  C25      1.0000 0.33580  0.20540  0.29450  Biso   1.000  C
  C26      1.0000 0.27530  0.17670  0.34930  Biso   1.000  C
  C27      1.0000 0.46840  0.35360  0.34150  Biso   1.000  C
  C28      1.0000 0.42520  0.30080  0.22970  Biso   1.000  C
  C29      1.0000 0.08190  0.23640  0.49200  Biso   1.000  C
  C30      1.0000 0.98110  0.27960  0.45440  Biso   1.000  C
  C31      1.0000 0.88650  0.33570  0.47360  Biso   1.000  C
  C32      1.0000 0.88990  0.35020  0.53170  Biso   1.000  C
  C33      1.0000 0.98130  0.30560  0.57100  Biso   1.000  C
  C34      1.0000 0.07530  0.24870  0.55150  Biso   1.000  C
  C35      1.0000 0.78030  0.37890  0.43070  Biso   1.000  C
  C36      1.0000 0.81650  0.41440  0.54980  Biso   1.000  C
  C37      1.0000 0.35000  0.15190  0.49950  Biso   1.000  C
  C38      1.0000 0.09030  0.12690  0.46360  Biso   1.000  C
  C39      1.0000 0.82540  0.02730  0.30090  Biso   1.000  C
  C40      1.0000 0.78460  0.00390  0.24360  Biso   1.000  C
  C41      1.0000 0.68860  0.04820  0.20620  Biso   1.000  C
  C42      1.0000 0.65440  0.03260  0.15220  Biso   1.000  C
  C43      1.0000 0.71500  0.97170  0.13440  Biso   1.000  C
  C44      1.0000 0.80720  0.92650  0.17360  Biso   1.000  C
  C45      1.0000 0.83860  0.94220  0.22740  Biso   1.000  C
  C46      1.0000 0.56560  0.08480  0.11100  Biso   1.000  C
  C47      1.0000 0.71600  0.95380  0.07290  Biso   1.000  C
  C48      1.0000 0.86450  0.09670  0.28560  Biso   1.000  C
  C49      1.0000 0.98150  0.10660  0.23530  Biso   1.000  C
  C50      1.0000 0.01380  0.16720  0.21360  Biso   1.000  C
  C51      1.0000 0.92750  0.22030  0.24320  Biso   1.000  C
  C52      1.0000 0.82440  0.20990  0.29470  Biso   1.000  C
  C53      1.0000 0.79050  0.14900  0.31650  Biso   1.000  C
  C54      1.0000 0.14680  0.17160  0.16030  Biso   1.000  C
  C55      1.0000 0.92870  0.28980  0.21310  Biso   1.000  C
  C56      1.0000 0.66980  0.02170  0.34790  Biso   1.000  C
  C57      1.0000 0.98410  0.98570  0.32610  Biso   1.000  C
  C58      1.0000 0.56350  0.23280  0.75590  Biso   1.000  C
  C59      1.0000 0.50340  0.27740  0.70270  Biso   1.000  C
  C60      1.0000 0.44670  0.34220  0.70950  Biso   1.000  C
  C61      1.0000 0.40560  0.38740  0.66170  Biso   1.000  C
  C62      1.0000 0.41260  0.36660  0.60490  Biso   1.000  C
  C63      1.0000 0.46210  0.30150  0.59820  Biso   1.000  C
  C64      1.0000 0.51240  0.25800  0.64520  Biso   1.000  C
  C65      1.0000 0.34560  0.45550  0.67420  Biso   1.000  C
  C66      1.0000 0.37970  0.41030  0.55060  Biso   1.000  C
  C67      1.0000 0.43410  0.23920  0.81230  Biso   1.000  C
  C68      1.0000 0.48370  0.23190  0.86990  Biso   1.000  C
  C69      1.0000 0.36200  0.22950  0.92000  Biso   1.000  C
  C70      1.0000 0.19080  0.23370  0.91320  Biso   1.000  C
  C71      1.0000 0.14310  0.24570  0.85560  Biso   1.000  C
  C72      1.0000 0.26550  0.24720  0.80600  Biso   1.000  C
  C73      1.0000 0.41560  0.22540  0.98020  Biso   1.000  C
  C74      1.0000 0.05690  0.22450  0.96460  Biso   1.000  C
  C75      1.0000 0.73820  0.24750  0.76470  Biso   1.000  C
  C76      1.0000 0.58260  0.16070  0.74490  Biso   1.000  C
  C77      1.0000 0.80240  0.81990  0.53650  Biso   1.000  C
  C78      1.0000 0.72670  0.79450  0.59870  Biso   1.000  C
  C79      1.0000 0.66290  0.73700  0.60340  Biso   1.000  C
  C80      1.0000 0.60440  0.70780  0.65780  Biso   1.000  C
  C81      1.0000 0.60730  0.73670  0.71000  Biso   1.000  C
  C82      1.0000 0.66420  0.79460  0.70550  Biso   1.000  C
  C83      1.0000 0.72470  0.82330  0.65070  Biso   1.000  C
  C84      1.0000 0.53160  0.64640  0.65850  Biso   1.000  C
  C85      1.0000 0.57480  0.69920  0.77030  Biso   1.000  C
  C86      1.0000 0.91810  0.76360  0.50800  Biso   1.000  C
  C87      1.0000 0.01890  0.72040  0.54560  Biso   1.000  C
  C88      1.0000 0.11350  0.66430  0.52640  Biso   1.000  C
  C89      1.0000 0.11010  0.64980  0.46830  Biso   1.000  C
  C90      1.0000 0.01870  0.69440  0.42900  Biso   1.000  C
  C91      1.0000 0.92470  0.75130  0.44850  Biso   1.000  C
  C92      1.0000 0.21970  0.62110  0.56930  Biso   1.000  C
  C93      1.0000 0.18350  0.58560  0.45020  Biso   1.000  C
  C94      1.0000 0.65000  0.84810  0.50050  Biso   1.000  C
  C95      1.0000 0.90970  0.87310  0.53640  Biso   1.000  C
  C96      1.0000 0.17460  0.97270  0.69910  Biso   1.000  C
  C97      1.0000 0.21540  0.99610  0.75640  Biso   1.000  C
  C98      1.0000 0.31140  0.95180  0.79380  Biso   1.000  C
  C99      1.0000 0.34560  0.96740  0.84780  Biso   1.000  C
  C100     1.0000 0.28500  0.02830  0.86560  Biso   1.000  C
  C101     1.0000 0.19280  0.07350  0.82640  Biso   1.000  C
  C102     1.0000 0.16140  0.05780  0.77260  Biso   1.000  C
  C103     1.0000 0.43440  0.91520  0.88900  Biso   1.000  C
  C104     1.0000 0.28400  0.04620  0.92710  Biso   1.000  C
  C105     1.0000 0.13550  0.90330  0.71440  Biso   1.000  C
  C106     1.0000 0.01850  0.89340  0.76470  Biso   1.000  C
  C107     1.0000 0.98620  0.83280  0.78640  Biso   1.000  C
  C108     1.0000 0.07250  0.77970  0.75680  Biso   1.000  C
  C109     1.0000 0.17560  0.79010  0.70530  Biso   1.000  C
  C110     1.0000 0.20950  0.85100  0.68350  Biso   1.000  C
  C111     1.0000 0.85320  0.82840  0.83970  Biso   1.000  C
  C112     1.0000 0.07130  0.71020  0.78690  Biso   1.000  C
  C113     1.0000 0.33020  0.97830  0.65210  Biso   1.000  C
  C114     1.0000 0.01590  0.01430  0.67390  Biso   1.000  C
  O1       1.0000 0.79330  0.53170  0.29400  Biso   1.000  O
  O2       1.0000 0.56810  0.50010  0.34366  Biso   1.000  O
  O3       1.0000 0.56230  0.53710  0.45780  Biso   1.000  O
  O4       1.0000 0.69250  0.60700  0.48903  Biso   1.000  O
  O5       1.0000 0.64890  0.80930  0.97619  Biso   1.000  O
  O6       1.0000 0.47900  0.74020  0.01020  Biso   1.000  O
  O7       1.0000 0.94210  0.83280  0.01090  Biso   1.000  O
  O8       1.0000 0.05210  0.72900  0.02140  Biso   1.000  O
  O9       1.0000 0.61410  0.35510  0.31435  Biso   1.000  O
  O10      1.0000 0.37960  0.39720  0.37000  Biso   1.000  O
  O11      1.0000 0.49860  0.26920  0.18600  Biso   1.000  O
  O12      1.0000 0.37330  0.36020  0.22440  Biso   1.000  O
  O13      1.0000 0.85710  0.39280  0.37858  Biso   1.000  O
  O14      1.0000 0.62730  0.39740  0.44653  Biso   1.000  O
  O15      1.0000 0.74690  0.42250  0.60236  Biso   1.000  O
  O16      1.0000 0.82390  0.46160  0.51000  Biso   1.000  O
  O17      1.0000 0.55740  0.14150  0.12180  Biso   1.000  O
  O18      1.0000 0.50690  0.06750  0.06670  Biso   1.000  O
  O19      1.0000 0.61020  0.92190  0.05910  Biso   1.000  O
  O20      1.0000 0.83610  0.96910  0.03410  Biso   1.000  O
  O21      1.0000 0.23810  0.21420  0.15690  Biso   1.000  O
  O22      1.0000 0.16180  0.12940  0.12480  Biso   1.000  O
  O23      1.0000 0.93000  0.33170  0.24740  Biso   1.000  O
  O24      1.0000 0.91790  0.29870  0.15840  Biso   1.000  O
  O25      1.0000 0.58530  0.44910  0.22220  Biso   1.000  O
  O26      1.0000 0.90130  0.46890  0.18730  Biso   1.000  O
  O27      1.0000 0.08790  0.42970  0.28490  Biso   1.000  O
  O28      1.0000 0.10320  0.46250  0.41600  Biso   1.000  O
  O29      1.0000 0.75130  0.24100  0.08500  Biso   1.000  O
  O30      1.0000 0.21310  0.31400  0.07830  Biso   1.000  O
  O31      1.0000 0.50970  0.35410  0.07090  Biso   1.000  O
  O32      1.0000 0.96930  0.06580  0.06950  Biso   1.000  O
  O33      1.0000 0.28050  0.98750  0.08070  Biso   1.000  O
  O34      1.0000 0.20670  0.46830  0.70600  Biso   1.000  O
  O35      1.0000 0.43190  0.49990  0.65634  Biso   1.000  O
  O36      1.0000 0.43770  0.46290  0.54220  Biso   1.000  O
  O37      1.0000 0.30750  0.39300  0.51097  Biso   1.000  O
  O38      1.0000 0.35110  0.19070  0.02381  Biso   1.000  O
  O39      1.0000 0.52100  0.25980  0.98980  Biso   1.000  O
  O40      1.0000 0.05790  0.16720  0.98910  Biso   1.000  O
  O41      1.0000 0.94790  0.27100  0.97860  Biso   1.000  O
  O42      1.0000 0.38590  0.64490  0.68565  Biso   1.000  O
  O43      1.0000 0.62040  0.60280  0.63000  Biso   1.000  O
  O44      1.0000 0.50140  0.73080  0.81400  Biso   1.000  O
  O45      1.0000 0.62670  0.63980  0.77560  Biso   1.000  O
  O46      1.0000 0.14290  0.60720  0.62142  Biso   1.000  O
  O47      1.0000 0.37270  0.60260  0.55347  Biso   1.000  O
  O48      1.0000 0.25310  0.57750  0.39764  Biso   1.000  O
  O49      1.0000 0.17610  0.53840  0.49000  Biso   1.000  O
  O50      1.0000 0.44260  0.85850  0.87820  Biso   1.000  O
  O51      1.0000 0.49310  0.93250  0.93330  Biso   1.000  O
  O52      1.0000 0.38980  0.07810  0.94090  Biso   1.000  O
  O53      1.0000 0.16390  0.03090  0.96590  Biso   1.000  O
  O54      1.0000 0.76190  0.78580  0.84310  Biso   1.000  O
  O55      1.0000 0.83820  0.87060  0.87520  Biso   1.000  O
  O56      1.0000 0.07000  0.66830  0.75260  Biso   1.000  O
  O57      1.0000 0.08210  0.70130  0.84160  Biso   1.000  O
  O58      1.0000 0.41470  0.55090  0.77780  Biso   1.000  O
  O59      1.0000 0.09870  0.53110  0.81270  Biso   1.000  O
  O60      1.0000 0.91210  0.57030  0.71510  Biso   1.000  O
  O61      1.0000 0.89680  0.53750  0.58400  Biso   1.000  O
  O62      1.0000 0.24870  0.75900  0.91500  Biso   1.000  O
  O63      1.0000 0.78690  0.68600  0.92170  Biso   1.000  O
  O64      1.0000 0.49030  0.64590  0.92910  Biso   1.000  O
  O65      1.0000 0.03070  0.93420  0.93050  Biso   1.000  O
  O66      1.0000 0.71950  0.01250  0.91930  Biso   1.000  O
  F1       1.0000 0.16080  0.74750  0.28660  Biso   1.000  F
  F2       1.0000 0.17630  0.79950  0.19884  Biso   1.000  F
  F3       1.0000 0.27260  0.69840  0.21037  Biso   1.000  F
  F4       1.0000 0.28630  0.85560  0.29677  Biso   1.000  F
  F5       1.0000 0.55580  0.85230  0.27387  Biso   1.000  F
  F6       1.0000 0.38710  0.87840  0.20600  Biso   1.000  F
  F7       1.0000 0.43190  0.19697  0.51079  Biso   1.000  F
  F8       1.0000 0.46240  0.10990  0.46900  Biso   1.000  F
  F9       1.0000 0.30200  0.12030  0.55212  Biso   1.000  F
  F10      1.0000 0.00760  0.11330  0.51727  Biso   1.000  F
  F11      1.0000 0.18040  0.07242  0.44681  Biso   1.000  F
  F12      1.0000 0.97230  0.14577  0.42594  Biso   1.000  F
  F13      1.0000 0.62320  0.96409  0.35189  Biso   1.000  F
  F14      1.0000 0.53690  0.06429  0.33242  Biso   1.000  F
  F15      1.0000 0.69690  0.03180  0.40226  Biso   1.000  F
  F16      1.0000 0.95530  0.92628  0.34971  Biso   1.000  F
  F17      1.0000 0.11480  0.97814  0.28361  Biso   1.000  F
  F18      1.0000 0.03140  0.01250  0.36950  Biso   1.000  F
  F19      1.0000 0.83920  0.25250  0.71340  Biso   1.000  F
  F20      1.0000 0.82370  0.20050  0.80116  Biso   1.000  F
  F21      1.0000 0.72740  0.30160  0.78963  Biso   1.000  F
  F22      1.0000 0.71370  0.14440  0.70323  Biso   1.000  F
  F23      1.0000 0.44420  0.14770  0.72613  Biso   1.000  F
  F24      1.0000 0.61290  0.12160  0.79400  Biso   1.000  F
  F25      1.0000 0.56810  0.80303  0.48921  Biso   1.000  F
  F26      1.0000 0.53760  0.89010  0.53100  Biso   1.000  F
  F27      1.0000 0.69800  0.87970  0.44788  Biso   1.000  F
  F28      1.0000 0.99240  0.88670  0.48273  Biso   1.000  F
  F29      1.0000 0.81960  0.92758  0.55319  Biso   1.000  F
  F30      1.0000 0.02770  0.85423  0.57406  Biso   1.000  F
  F31      1.0000 0.37680  0.03591  0.64811  Biso   1.000  F
  F32      1.0000 0.46310  0.93571  0.66758  Biso   1.000  F
  F33      1.0000 0.30310  0.96820  0.59774  Biso   1.000  F
  F34      1.0000 0.04470  0.07372  0.65029  Biso   1.000  F
  F35      1.0000 0.88520  0.02186  0.71639  Biso   1.000  F
  F36      1.0000 0.96860  0.98750  0.63050  Biso   1.000  F
