data_image0
_cell_length_a       8.0954
_cell_length_b       21.259
_cell_length_c       22.8149
_cell_angle_alpha    82.52
_cell_angle_beta     82.394
_cell_angle_gamma    79.972

_symmetry_space_group_name_H-M    P 1
_symmetry_int_tables_number       1

loop_
  _symmetry_equiv_pos_as_xyz
  'x, y, z'

loop_
  _atom_site_label
  _atom_site_occupancy
  _atom_site_fract_x
  _atom_site_fract_y
  _atom_site_fract_z
  _atom_site_thermal_displace_type
  _atom_site_B_iso_or_equiv
  _atom_site_type_symbol
  Y1       1.0000 0.80207  0.42460  0.28400  Biso   1.000  Y
  Y2       1.0000 0.38643  0.47118  0.43309  Biso   1.000  Y
  Y3       1.0000 0.46433  0.24909  0.09561  Biso   1.000  Y
  Y4       1.0000 0.23957  0.09340  0.03635  Biso   1.000  Y
  Y5       1.0000 0.19793  0.57540  0.71600  Biso   1.000  Y
  Y6       1.0000 0.61357  0.52882  0.56691  Biso   1.000  Y
  Y7       1.0000 0.53567  0.75091  0.90439  Biso   1.000  Y
  Y8       1.0000 0.76043  0.90660  0.96365  Biso   1.000  Y
  H1       1.0000 0.51380  0.41750  0.21850  Biso   1.000  H
  H2       1.0000 0.50260  0.47910  0.22800  Biso   1.000  H
  H3       1.0000 0.01400  0.45890  0.18530  Biso   1.000  H
  H4       1.0000 0.88150  0.44340  0.16490  Biso   1.000  H
  H5       1.0000 0.17190  0.40890  0.26950  Biso   1.000  H
  H6       1.0000 0.12050  0.46820  0.29040  Biso   1.000  H
  H7       1.0000 0.10550  0.42850  0.39290  Biso   1.000  H
  H8       1.0000 0.04880  0.46740  0.44750  Biso   1.000  H
  H9       1.0000 0.82400  0.25540  0.05150  Biso   1.000  H
  H10      1.0000 0.78660  0.26290  0.11010  Biso   1.000  H
  H11      1.0000 0.11010  0.30270  0.08850  Biso   1.000  H
  H12      1.0000 0.19060  0.34800  0.05110  Biso   1.000  H
  H13      1.0000 0.43260  0.39250  0.05720  Biso   1.000  H
  H14      1.0000 0.58780  0.37930  0.06870  Biso   1.000  H
  H15      1.0000 0.93900  0.03470  0.06060  Biso   1.000  H
  H16      1.0000 0.95480  0.06050  0.10880  Biso   1.000  H
  H17      1.0000 0.39080  0.96120  0.08280  Biso   1.000  H
  H18      1.0000 0.21780  0.95880  0.07140  Biso   1.000  H
  H19      1.0000 0.55920  0.64590  0.25340  Biso   1.000  H
  H20      1.0000 0.53340  0.71450  0.43790  Biso   1.000  H
  H21      1.0000 0.44310  0.78580  0.36060  Biso   1.000  H
  H22      1.0000 0.40260  0.76940  0.12550  Biso   1.000  H
  H23      1.0000 0.96840  0.74790  0.15130  Biso   1.000  H
  H24      1.0000 0.76770  0.74630  0.23300  Biso   1.000  H
  H25      1.0000 0.33880  0.28230  0.43070  Biso   1.000  H
  H26      1.0000 0.33660  0.18640  0.26030  Biso   1.000  H
  H27      1.0000 0.23690  0.13730  0.35150  Biso   1.000  H
  H28      1.0000 0.97980  0.27060  0.41590  Biso   1.000  H
  H29      1.0000 0.98190  0.31090  0.60970  Biso   1.000  H
  H30      1.0000 0.13750  0.21720  0.57740  Biso   1.000  H
  H31      1.0000 0.64920  0.08970  0.21680  Biso   1.000  H
  H32      1.0000 0.84440  0.88560  0.16370  Biso   1.000  H
  H33      1.0000 0.89880  0.91210  0.25320  Biso   1.000  H
  H34      1.0000 0.03260  0.07290  0.21490  Biso   1.000  H
  H35      1.0000 0.77410  0.24560  0.31410  Biso   1.000  H
  H36      1.0000 0.71860  0.14400  0.35050  Biso   1.000  H
  H37      1.0000 0.48620  0.58250  0.78150  Biso   1.000  H
  H38      1.0000 0.49740  0.52090  0.77200  Biso   1.000  H
  H39      1.0000 0.98600  0.54110  0.81470  Biso   1.000  H
  H40      1.0000 0.11850  0.55660  0.83510  Biso   1.000  H
  H41      1.0000 0.82810  0.59110  0.73050  Biso   1.000  H
  H42      1.0000 0.87950  0.53180  0.70960  Biso   1.000  H
  H43      1.0000 0.89450  0.57150  0.60710  Biso   1.000  H
  H44      1.0000 0.95120  0.53260  0.55250  Biso   1.000  H
  H45      1.0000 0.17600  0.74460  0.94850  Biso   1.000  H
  H46      1.0000 0.21340  0.73710  0.88990  Biso   1.000  H
  H47      1.0000 0.88990  0.69730  0.91150  Biso   1.000  H
  H48      1.0000 0.80940  0.65200  0.94890  Biso   1.000  H
  H49      1.0000 0.56740  0.60750  0.94280  Biso   1.000  H
  H50      1.0000 0.41220  0.62070  0.93130  Biso   1.000  H
  H51      1.0000 0.06100  0.96530  0.93940  Biso   1.000  H
  H52      1.0000 0.04520  0.93950  0.89120  Biso   1.000  H
  H53      1.0000 0.60920  0.03880  0.91720  Biso   1.000  H
  H54      1.0000 0.78220  0.04120  0.92860  Biso   1.000  H
  H55      1.0000 0.44080  0.35410  0.74660  Biso   1.000  H
  H56      1.0000 0.46660  0.28550  0.56210  Biso   1.000  H
  H57      1.0000 0.55690  0.21420  0.63940  Biso   1.000  H
  H58      1.0000 0.59740  0.23060  0.87450  Biso   1.000  H
  H59      1.0000 0.03160  0.25210  0.84870  Biso   1.000  H
  H60      1.0000 0.23230  0.25370  0.76700  Biso   1.000  H
  H61      1.0000 0.66120  0.71770  0.56930  Biso   1.000  H
  H62      1.0000 0.66340  0.81360  0.73970  Biso   1.000  H
  H63      1.0000 0.76310  0.86270  0.64850  Biso   1.000  H
  H64      1.0000 0.02020  0.72940  0.58410  Biso   1.000  H
  H65      1.0000 0.01810  0.68910  0.39030  Biso   1.000  H
  H66      1.0000 0.86250  0.78280  0.42260  Biso   1.000  H
  H67      1.0000 0.35080  0.91030  0.78320  Biso   1.000  H
  H68      1.0000 0.15560  0.11440  0.83630  Biso   1.000  H
  H69      1.0000 0.10120  0.08790  0.74680  Biso   1.000  H
  H70      1.0000 0.96740  0.92710  0.78510  Biso   1.000  H
  H71      1.0000 0.22590  0.75440  0.68590  Biso   1.000  H
  H72      1.0000 0.28140  0.85600  0.64950  Biso   1.000  H
  C1       1.0000 0.43380  0.76889  0.24398  Biso   1.000  C
  C2       1.0000 0.49120  0.72384  0.29796  Biso   1.000  C
  C3       1.0000 0.54910  0.65931  0.29105  Biso   1.000  C
  C4       1.0000 0.59240  0.61438  0.33877  Biso   1.000  C
  C5       1.0000 0.58440  0.63558  0.39496  Biso   1.000  C
  C6       1.0000 0.53340  0.70010  0.40117  Biso   1.000  C
  C7       1.0000 0.48320  0.74318  0.35456  Biso   1.000  C
  C8       1.0000 0.65400  0.54608  0.32638  Biso   1.000  C
  C9       1.0000 0.62000  0.59130  0.44975  Biso   1.000  C
  C10      1.0000 0.56300  0.76097  0.18803  Biso   1.000  C
  C11      1.0000 0.51560  0.76678  0.13079  Biso   1.000  C
  C12      1.0000 0.63730  0.76859  0.08142  Biso   1.000  C
  C13      1.0000 0.80630  0.76440  0.08852  Biso   1.000  C
  C14      1.0000 0.85450  0.75400  0.14598  Biso   1.000  C
  C15      1.0000 0.73400  0.75275  0.19500  Biso   1.000  C
  C16      1.0000 0.58300  0.77226  0.02079  Biso   1.000  C
  C17      1.0000 0.94140  0.77349  0.03703  Biso   1.000  C
  C18      1.0000 0.25760  0.75557  0.23478  Biso   1.000  C
  C19      1.0000 0.41570  0.84134  0.25399  Biso   1.000  C
  C20      1.0000 0.19860  0.17963  0.46351  Biso   1.000  C
  C21      1.0000 0.27240  0.20541  0.40102  Biso   1.000  C
  C22      1.0000 0.33630  0.26337  0.39636  Biso   1.000  C
  C23      1.0000 0.39530  0.29278  0.34206  Biso   1.000  C
  C24      1.0000 0.39050  0.26496  0.28947  Biso   1.000  C
  C25      1.0000 0.33450  0.20635  0.29442  Biso   1.000  C
  C26      1.0000 0.27490  0.17648  0.34933  Biso   1.000  C
  C27      1.0000 0.46680  0.35392  0.34109  Biso   1.000  C
  C28      1.0000 0.42460  0.30184  0.22914  Biso   1.000  C
  C29      1.0000 0.08340  0.23576  0.49174  Biso   1.000  C
  C30      1.0000 0.98270  0.27924  0.45465  Biso   1.000  C
  C31      1.0000 0.88730  0.33464  0.47402  Biso   1.000  C
  C32      1.0000 0.89330  0.34820  0.53210  Biso   1.000  C
  C33      1.0000 0.98400  0.30329  0.57036  Biso   1.000  C
  C34      1.0000 0.07830  0.24705  0.55103  Biso   1.000  C
  C35      1.0000 0.78170  0.37841  0.43079  Biso   1.000  C
  C36      1.0000 0.81950  0.41271  0.54991  Biso   1.000  C
  C37      1.0000 0.34960  0.15049  0.49878  Biso   1.000  C
  C38      1.0000 0.09160  0.12664  0.46294  Biso   1.000  C
  C39      1.0000 0.82590  0.02835  0.30055  Biso   1.000  C
  C40      1.0000 0.78540  0.00474  0.24372  Biso   1.000  C
  C41      1.0000 0.69060  0.04877  0.20576  Biso   1.000  C
  C42      1.0000 0.65550  0.03340  0.15132  Biso   1.000  C
  C43      1.0000 0.71660  0.97138  0.13536  Biso   1.000  C
  C44      1.0000 0.80590  0.92704  0.17396  Biso   1.000  C
  C45      1.0000 0.83950  0.94296  0.22768  Biso   1.000  C
  C46      1.0000 0.56790  0.08525  0.11053  Biso   1.000  C
  C47      1.0000 0.71670  0.95410  0.07354  Biso   1.000  C
  C48      1.0000 0.86440  0.09714  0.28499  Biso   1.000  C
  C49      1.0000 0.97830  0.10778  0.23445  Biso   1.000  C
  C50      1.0000 0.01300  0.16835  0.21258  Biso   1.000  C
  C51      1.0000 0.92850  0.22195  0.24101  Biso   1.000  C
  C52      1.0000 0.82360  0.21098  0.29332  Biso   1.000  C
  C53      1.0000 0.79010  0.14982  0.31553  Biso   1.000  C
  C54      1.0000 0.14520  0.17311  0.15982  Biso   1.000  C
  C55      1.0000 0.93010  0.28994  0.21300  Biso   1.000  C
  C56      1.0000 0.67100  0.02264  0.34703  Biso   1.000  C
  C57      1.0000 0.98210  0.98676  0.32643  Biso   1.000  C
  C58      1.0000 0.56620  0.23111  0.75602  Biso   1.000  C
  C59      1.0000 0.50880  0.27616  0.70204  Biso   1.000  C
  C60      1.0000 0.45090  0.34069  0.70895  Biso   1.000  C
  C61      1.0000 0.40760  0.38562  0.66123  Biso   1.000  C
  C62      1.0000 0.41560  0.36442  0.60504  Biso   1.000  C
  C63      1.0000 0.46660  0.29990  0.59883  Biso   1.000  C
  C64      1.0000 0.51680  0.25682  0.64544  Biso   1.000  C
  C65      1.0000 0.34600  0.45392  0.67362  Biso   1.000  C
  C66      1.0000 0.38000  0.40870  0.55025  Biso   1.000  C
  C67      1.0000 0.43700  0.23903  0.81197  Biso   1.000  C
  C68      1.0000 0.48440  0.23322  0.86921  Biso   1.000  C
  C69      1.0000 0.36270  0.23141  0.91858  Biso   1.000  C
  C70      1.0000 0.19370  0.23560  0.91148  Biso   1.000  C
  C71      1.0000 0.14550  0.24600  0.85402  Biso   1.000  C
  C72      1.0000 0.26600  0.24725  0.80500  Biso   1.000  C
  C73      1.0000 0.41700  0.22774  0.97921  Biso   1.000  C
  C74      1.0000 0.05860  0.22651  0.96297  Biso   1.000  C
  C75      1.0000 0.74240  0.24443  0.76522  Biso   1.000  C
  C76      1.0000 0.58430  0.15866  0.74601  Biso   1.000  C
  C77      1.0000 0.80140  0.82037  0.53649  Biso   1.000  C
  C78      1.0000 0.72760  0.79459  0.59898  Biso   1.000  C
  C79      1.0000 0.66370  0.73663  0.60364  Biso   1.000  C
  C80      1.0000 0.60470  0.70722  0.65794  Biso   1.000  C
  C81      1.0000 0.60950  0.73504  0.71053  Biso   1.000  C
  C82      1.0000 0.66550  0.79365  0.70558  Biso   1.000  C
  C83      1.0000 0.72510  0.82352  0.65067  Biso   1.000  C
  C84      1.0000 0.53320  0.64608  0.65891  Biso   1.000  C
  C85      1.0000 0.57540  0.69816  0.77086  Biso   1.000  C
  C86      1.0000 0.91660  0.76424  0.50826  Biso   1.000  C
  C87      1.0000 0.01730  0.72076  0.54535  Biso   1.000  C
  C88      1.0000 0.11270  0.66536  0.52598  Biso   1.000  C
  C89      1.0000 0.10670  0.65180  0.46790  Biso   1.000  C
  C90      1.0000 0.01600  0.69671  0.42964  Biso   1.000  C
  C91      1.0000 0.92170  0.75295  0.44897  Biso   1.000  C
  C92      1.0000 0.21830  0.62159  0.56921  Biso   1.000  C
  C93      1.0000 0.18050  0.58729  0.45009  Biso   1.000  C
  C94      1.0000 0.65040  0.84951  0.50122  Biso   1.000  C
  C95      1.0000 0.90840  0.87336  0.53706  Biso   1.000  C
  C96      1.0000 0.17410  0.97165  0.69945  Biso   1.000  C
  C97      1.0000 0.21460  0.99526  0.75628  Biso   1.000  C
  C98      1.0000 0.30940  0.95123  0.79424  Biso   1.000  C
  C99      1.0000 0.34450  0.96660  0.84868  Biso   1.000  C
  C100     1.0000 0.28340  0.02862  0.86464  Biso   1.000  C
  C101     1.0000 0.19410  0.07296  0.82604  Biso   1.000  C
  C102     1.0000 0.16050  0.05704  0.77232  Biso   1.000  C
  C103     1.0000 0.43210  0.91475  0.88947  Biso   1.000  C
  C104     1.0000 0.28330  0.04590  0.92646  Biso   1.000  C
  C105     1.0000 0.13560  0.90286  0.71501  Biso   1.000  C
  C106     1.0000 0.02170  0.89222  0.76555  Biso   1.000  C
  C107     1.0000 0.98700  0.83165  0.78742  Biso   1.000  C
  C108     1.0000 0.07150  0.77805  0.75899  Biso   1.000  C
  C109     1.0000 0.17640  0.78902  0.70668  Biso   1.000  C
  C110     1.0000 0.20990  0.85018  0.68447  Biso   1.000  C
  C111     1.0000 0.85480  0.82689  0.84018  Biso   1.000  C
  C112     1.0000 0.06990  0.71006  0.78700  Biso   1.000  C
  C113     1.0000 0.32900  0.97736  0.65297  Biso   1.000  C
  C114     1.0000 0.01790  0.01324  0.67357  Biso   1.000  C
  O1       1.0000 0.79480  0.53492  0.29527  Biso   1.000  O
  O2       1.0000 0.56930  0.50121  0.34328  Biso   1.000  O
  O3       1.0000 0.56410  0.53809  0.45804  Biso   1.000  O
  O4       1.0000 0.69270  0.60869  0.48866  Biso   1.000  O
  O5       1.0000 0.64930  0.80696  0.97741  Biso   1.000  O
  O6       1.0000 0.47810  0.73791  0.01180  Biso   1.000  O
  O7       1.0000 0.94370  0.83099  0.01364  Biso   1.000  O
  O8       1.0000 0.04650  0.72685  0.02234  Biso   1.000  O
  O9       1.0000 0.61170  0.35561  0.31380  Biso   1.000  O
  O10      1.0000 0.37910  0.39708  0.36930  Biso   1.000  O
  O11      1.0000 0.49780  0.27081  0.18704  Biso   1.000  O
  O12      1.0000 0.37160  0.36114  0.22423  Biso   1.000  O
  O13      1.0000 0.85720  0.39305  0.37919  Biso   1.000  O
  O14      1.0000 0.63010  0.39627  0.44702  Biso   1.000  O
  O15      1.0000 0.74950  0.42058  0.60213  Biso   1.000  O
  O16      1.0000 0.82610  0.46054  0.51004  Biso   1.000  O
  O17      1.0000 0.55980  0.14208  0.12065  Biso   1.000  O
  O18      1.0000 0.50940  0.06772  0.06669  Biso   1.000  O
  O19      1.0000 0.61250  0.92123  0.06125  Biso   1.000  O
  O20      1.0000 0.83440  0.96965  0.03539  Biso   1.000  O
  O21      1.0000 0.23610  0.21498  0.15628  Biso   1.000  O
  O22      1.0000 0.15970  0.13119  0.12429  Biso   1.000  O
  O23      1.0000 0.93140  0.33255  0.24645  Biso   1.000  O
  O24      1.0000 0.92070  0.30079  0.15755  Biso   1.000  O
  O25      1.0000 0.58310  0.45127  0.22103  Biso   1.000  O
  O26      1.0000 0.90140  0.47330  0.18722  Biso   1.000  O
  O27      1.0000 0.09110  0.43113  0.28466  Biso   1.000  O
  O28      1.0000 0.10120  0.46245  0.41626  Biso   1.000  O
  O29      1.0000 0.75700  0.24368  0.08399  Biso   1.000  O
  O30      1.0000 0.21070  0.31797  0.07814  Biso   1.000  O
  O31      1.0000 0.51000  0.35803  0.06906  Biso   1.000  O
  O32      1.0000 0.97030  0.06647  0.06799  Biso   1.000  O
  O33      1.0000 0.28270  0.98652  0.08081  Biso   1.000  O
  O34      1.0000 0.20520  0.46508  0.70473  Biso   1.000  O
  O35      1.0000 0.43070  0.49879  0.65672  Biso   1.000  O
  O36      1.0000 0.43590  0.46191  0.54196  Biso   1.000  O
  O37      1.0000 0.30730  0.39131  0.51134  Biso   1.000  O
  O38      1.0000 0.35070  0.19304  0.02259  Biso   1.000  O
  O39      1.0000 0.52190  0.26209  0.98820  Biso   1.000  O
  O40      1.0000 0.05630  0.16901  0.98636  Biso   1.000  O
  O41      1.0000 0.95350  0.27315  0.97766  Biso   1.000  O
  O42      1.0000 0.38830  0.64439  0.68620  Biso   1.000  O
  O43      1.0000 0.62090  0.60292  0.63070  Biso   1.000  O
  O44      1.0000 0.50220  0.72919  0.81296  Biso   1.000  O
  O45      1.0000 0.62840  0.63886  0.77577  Biso   1.000  O
  O46      1.0000 0.14280  0.60695  0.62081  Biso   1.000  O
  O47      1.0000 0.36990  0.60373  0.55298  Biso   1.000  O
  O48      1.0000 0.25050  0.57942  0.39787  Biso   1.000  O
  O49      1.0000 0.17390  0.53946  0.48996  Biso   1.000  O
  O50      1.0000 0.44020  0.85792  0.87935  Biso   1.000  O
  O51      1.0000 0.49060  0.93228  0.93331  Biso   1.000  O
  O52      1.0000 0.38750  0.07877  0.93875  Biso   1.000  O
  O53      1.0000 0.16560  0.03035  0.96461  Biso   1.000  O
  O54      1.0000 0.76390  0.78502  0.84372  Biso   1.000  O
  O55      1.0000 0.84030  0.86881  0.87571  Biso   1.000  O
  O56      1.0000 0.06860  0.66745  0.75355  Biso   1.000  O
  O57      1.0000 0.07930  0.69921  0.84245  Biso   1.000  O
  O58      1.0000 0.41690  0.54873  0.77897  Biso   1.000  O
  O59      1.0000 0.09860  0.52670  0.81278  Biso   1.000  O
  O60      1.0000 0.90890  0.56887  0.71534  Biso   1.000  O
  O61      1.0000 0.89880  0.53755  0.58374  Biso   1.000  O
  O62      1.0000 0.24300  0.75632  0.91601  Biso   1.000  O
  O63      1.0000 0.78930  0.68203  0.92186  Biso   1.000  O
  O64      1.0000 0.49000  0.64197  0.93094  Biso   1.000  O
  O65      1.0000 0.02970  0.93353  0.93201  Biso   1.000  O
  O66      1.0000 0.71730  0.01348  0.91919  Biso   1.000  O
  F1       1.0000 0.15710  0.75166  0.28639  Biso   1.000  F
  F2       1.0000 0.17460  0.80169  0.19822  Biso   1.000  F
  F3       1.0000 0.26880  0.70045  0.21171  Biso   1.000  F
  F4       1.0000 0.28620  0.85767  0.29536  Biso   1.000  F
  F5       1.0000 0.55460  0.85336  0.27275  Biso   1.000  F
  F6       1.0000 0.38880  0.87998  0.20452  Biso   1.000  F
  F7       1.0000 0.43250  0.19634  0.51006  Biso   1.000  F
  F8       1.0000 0.46200  0.10964  0.46802  Biso   1.000  F
  F9       1.0000 0.30500  0.11863  0.55104  Biso   1.000  F
  F10      1.0000 0.01050  0.11249  0.51656  Biso   1.000  F
  F11      1.0000 0.18280  0.07203  0.44591  Biso   1.000  F
  F12      1.0000 0.97310  0.14578  0.42573  Biso   1.000  F
  F13      1.0000 0.62470  0.96465  0.35160  Biso   1.000  F
  F14      1.0000 0.53700  0.06551  0.33118  Biso   1.000  F
  F15      1.0000 0.69650  0.03277  0.40144  Biso   1.000  F
  F16      1.0000 0.95560  0.92763  0.34957  Biso   1.000  F
  F17      1.0000 0.11290  0.97973  0.28402  Biso   1.000  F
  F18      1.0000 0.03050  0.01432  0.36890  Biso   1.000  F
  F19      1.0000 0.84290  0.24834  0.71361  Biso   1.000  F
  F20      1.0000 0.82540  0.19831  0.80178  Biso   1.000  F
  F21      1.0000 0.73120  0.29955  0.78829  Biso   1.000  F
  F22      1.0000 0.71380  0.14233  0.70464  Biso   1.000  F
  F23      1.0000 0.44540  0.14664  0.72725  Biso   1.000  F
  F24      1.0000 0.61120  0.12002  0.79548  Biso   1.000  F
  F25      1.0000 0.56750  0.80366  0.48994  Biso   1.000  F
  F26      1.0000 0.53800  0.89036  0.53198  Biso   1.000  F
  F27      1.0000 0.69500  0.88137  0.44896  Biso   1.000  F
  F28      1.0000 0.98950  0.88751  0.48344  Biso   1.000  F
  F29      1.0000 0.81720  0.92797  0.55409  Biso   1.000  F
  F30      1.0000 0.02690  0.85422  0.57427  Biso   1.000  F
  F31      1.0000 0.37530  0.03535  0.64840  Biso   1.000  F
  F32      1.0000 0.46300  0.93449  0.66882  Biso   1.000  F
  F33      1.0000 0.30350  0.96723  0.59856  Biso   1.000  F
  F34      1.0000 0.04440  0.07237  0.65043  Biso   1.000  F
  F35      1.0000 0.88710  0.02027  0.71598  Biso   1.000  F
  F36      1.0000 0.96950  0.98568  0.63110  Biso   1.000  F
