data_image0
_cell_length_a       10.975
_cell_length_b       12.139
_cell_length_c       13.728
_cell_angle_alpha    67.25
_cell_angle_beta     80.94
_cell_angle_gamma    70.26

_symmetry_space_group_name_H-M    P 1
_symmetry_int_tables_number       1

loop_
  _symmetry_equiv_pos_as_xyz
  'x, y, z'

loop_
  _atom_site_label
  _atom_site_occupancy
  _atom_site_fract_x
  _atom_site_fract_y
  _atom_site_fract_z
  _atom_site_thermal_displace_type
  _atom_site_B_iso_or_equiv
  _atom_site_type_symbol
  Co1      1.0000 0.04300  0.40582  0.81500  Biso   1.000  Co
  Co2      1.0000 0.13202  0.67145  0.81249  Biso   1.000  Co
  Co3      1.0000 0.95700  0.59418  0.18500  Biso   1.000  Co
  Co4      1.0000 0.86798  0.32855  0.18751  Biso   1.000  Co
  Co5      1.0000 0.00000  0.50000  0.00000  Biso   1.000  Co
  H1       1.0000 0.20750  0.46460  0.85740  Biso   1.000  H
  H2       1.0000 0.86550  0.71680  0.51530  Biso   1.000  H
  H3       1.0000 0.94700  0.90020  0.52020  Biso   1.000  H
  H4       1.0000 0.78960  0.82720  0.35010  Biso   1.000  H
  H5       1.0000 0.72860  0.96800  0.18060  Biso   1.000  H
  H6       1.0000 0.76750  0.15300  0.11410  Biso   1.000  H
  H7       1.0000 0.91530  0.08560  0.37820  Biso   1.000  H
  H8       1.0000 0.60420  0.42860  0.92260  Biso   1.000  H
  H9       1.0000 0.73370  0.56020  0.75590  Biso   1.000  H
  H10      1.0000 0.63130  0.59430  0.58330  Biso   1.000  H
  H11      1.0000 0.44370  0.64570  0.49980  Biso   1.000  H
  H12      1.0000 0.24780  0.67730  0.58670  Biso   1.000  H
  H13      1.0000 0.42010  0.58000  0.84690  Biso   1.000  H
  H14      1.0000 0.15150  0.07700  0.19270  Biso   1.000  H
  H15      1.0000 0.13580  0.00250  0.03310  Biso   1.000  H
  H16      1.0000 0.23750  0.85690  0.29950  Biso   1.000  H
  H17      1.0000 0.21540  0.66960  0.41660  Biso   1.000  H
  H18      1.0000 0.09990  0.57060  0.37460  Biso   1.000  H
  H19      1.0000 0.05320  0.82440  0.09010  Biso   1.000  H
  H20      1.0000 0.79250  0.53540  0.14260  Biso   1.000  H
  H21      1.0000 0.13450  0.28320  0.48470  Biso   1.000  H
  H22      1.0000 0.05300  0.09980  0.47980  Biso   1.000  H
  H23      1.0000 0.21040  0.17280  0.64990  Biso   1.000  H
  H24      1.0000 0.27140  0.03200  0.81940  Biso   1.000  H
  H25      1.0000 0.23250  0.84700  0.88590  Biso   1.000  H
  H26      1.0000 0.08470  0.91440  0.62180  Biso   1.000  H
  H27      1.0000 0.39580  0.57140  0.07740  Biso   1.000  H
  H28      1.0000 0.26630  0.43980  0.24410  Biso   1.000  H
  H29      1.0000 0.36870  0.40570  0.41670  Biso   1.000  H
  H30      1.0000 0.55630  0.35430  0.50020  Biso   1.000  H
  H31      1.0000 0.75220  0.32270  0.41330  Biso   1.000  H
  H32      1.0000 0.57990  0.42000  0.15310  Biso   1.000  H
  H33      1.0000 0.84850  0.92300  0.80730  Biso   1.000  H
  H34      1.0000 0.86420  0.99750  0.96690  Biso   1.000  H
  H35      1.0000 0.76250  0.14310  0.70050  Biso   1.000  H
  H36      1.0000 0.78460  0.33040  0.58340  Biso   1.000  H
  H37      1.0000 0.90010  0.42940  0.62540  Biso   1.000  H
  H38      1.0000 0.94680  0.17560  0.90990  Biso   1.000  H
  C1       1.0000 0.97110  0.67240  0.64650  Biso   1.000  C
  C2       1.0000 0.90890  0.75170  0.54270  Biso   1.000  C
  C3       1.0000 0.91050  0.86440  0.48810  Biso   1.000  C
  C4       1.0000 0.86260  0.94330  0.38240  Biso   1.000  C
  C5       1.0000 0.80420  0.90480  0.32330  Biso   1.000  C
  C6       1.0000 0.76940  0.98910  0.22230  Biso   1.000  C
  C7       1.0000 0.79270  0.10050  0.18250  Biso   1.000  C
  C8       1.0000 0.88000  0.05960  0.33670  Biso   1.000  C
  C9       1.0000 0.78210  0.43150  0.95560  Biso   1.000  C
  C10      1.0000 0.67140  0.46210  0.89050  Biso   1.000  C
  C11      1.0000 0.66250  0.53410  0.78960  Biso   1.000  C
  C12      1.0000 0.54770  0.57590  0.72680  Biso   1.000  C
  C13      1.0000 0.55270  0.60040  0.62100  Biso   1.000  C
  C14      1.0000 0.44020  0.63400  0.57110  Biso   1.000  C
  C15      1.0000 0.32260  0.65070  0.62390  Biso   1.000  C
  C16      1.0000 0.42450  0.59400  0.77500  Biso   1.000  C
  C17      1.0000 0.09760  0.22220  0.04830  Biso   1.000  C
  C18      1.0000 0.13160  0.09080  0.12470  Biso   1.000  C
  C19      1.0000 0.13560  0.99210  0.10380  Biso   1.000  C
  C20      1.0000 0.13980  0.86850  0.18160  Biso   1.000  C
  C21      1.0000 0.19240  0.81600  0.28060  Biso   1.000  C
  C22      1.0000 0.17850  0.70480  0.35070  Biso   1.000  C
  C23      1.0000 0.11110  0.64480  0.32490  Biso   1.000  C
  C24      1.0000 0.08040  0.79660  0.15880  Biso   1.000  C
  C25      1.0000 0.02890  0.32760  0.35350  Biso   1.000  C
  C26      1.0000 0.09110  0.24830  0.45730  Biso   1.000  C
  C27      1.0000 0.08950  0.13560  0.51190  Biso   1.000  C
  C28      1.0000 0.13740  0.05670  0.61760  Biso   1.000  C
  C29      1.0000 0.19580  0.09520  0.67670  Biso   1.000  C
  C30      1.0000 0.23060  0.01090  0.77770  Biso   1.000  C
  C31      1.0000 0.20730  0.89950  0.81750  Biso   1.000  C
  C32      1.0000 0.12000  0.94040  0.66330  Biso   1.000  C
  C33      1.0000 0.21790  0.56850  0.04440  Biso   1.000  C
  C34      1.0000 0.32860  0.53790  0.10950  Biso   1.000  C
  C35      1.0000 0.33750  0.46590  0.21040  Biso   1.000  C
  C36      1.0000 0.45230  0.42410  0.27320  Biso   1.000  C
  C37      1.0000 0.44730  0.39960  0.37900  Biso   1.000  C
  C38      1.0000 0.55980  0.36600  0.42890  Biso   1.000  C
  C39      1.0000 0.67740  0.34930  0.37610  Biso   1.000  C
  C40      1.0000 0.57550  0.40600  0.22500  Biso   1.000  C
  C41      1.0000 0.90240  0.77780  0.95170  Biso   1.000  C
  C42      1.0000 0.86840  0.90920  0.87530  Biso   1.000  C
  C43      1.0000 0.86440  0.00790  0.89620  Biso   1.000  C
  C44      1.0000 0.86020  0.13150  0.81840  Biso   1.000  C
  C45      1.0000 0.80760  0.18400  0.71940  Biso   1.000  C
  C46      1.0000 0.82150  0.29520  0.64930  Biso   1.000  C
  C47      1.0000 0.88890  0.35520  0.67510  Biso   1.000  C
  C48      1.0000 0.91960  0.20340  0.84120  Biso   1.000  C
  N1       1.0000 0.26300  0.36660  0.65910  Biso   1.000  N
  N2       1.0000 0.85040  0.14000  0.23660  Biso   1.000  N
  N3       1.0000 0.31220  0.62940  0.72900  Biso   1.000  N
  N4       1.0000 0.05940  0.69120  0.22760  Biso   1.000  N
  N5       1.0000 0.73700  0.63340  0.34090  Biso   1.000  N
  N6       1.0000 0.14960  0.86000  0.76340  Biso   1.000  N
  N7       1.0000 0.68780  0.37060  0.27100  Biso   1.000  N
  N8       1.0000 0.94060  0.30880  0.77240  Biso   1.000  N
  O1       1.0000 0.02740  0.72360  0.68280  Biso   1.000  O
  O2       1.0000 0.96520  0.56450  0.68910  Biso   1.000  O
  O3       1.0000 0.77320  0.36460  0.05160  Biso   1.000  O
  O4       1.0000 0.87450  0.47400  0.91240  Biso   1.000  O
  O5       1.0000 0.11140  0.23840  0.95080  Biso   1.000  O
  O6       1.0000 0.05530  0.30560  0.08850  Biso   1.000  O
  O7       1.0000 0.12820  0.48970  0.87550  Biso   1.000  O
  O8       1.0000 0.19780  0.43380  0.57670  Biso   1.000  O
  O9       1.0000 0.22130  0.32950  0.74810  Biso   1.000  O
  O10      1.0000 0.38200  0.33100  0.64260  Biso   1.000  O
  O11      1.0000 0.97260  0.27640  0.31720  Biso   1.000  O
  O12      1.0000 0.03480  0.43550  0.31090  Biso   1.000  O
  O13      1.0000 0.22680  0.63540  0.94840  Biso   1.000  O
  O14      1.0000 0.12550  0.52600  0.08760  Biso   1.000  O
  O15      1.0000 0.88860  0.76160  0.04920  Biso   1.000  O
  O16      1.0000 0.94470  0.69440  0.91150  Biso   1.000  O
  O17      1.0000 0.87180  0.51030  0.12450  Biso   1.000  O
  O18      1.0000 0.80220  0.56620  0.42330  Biso   1.000  O
  O19      1.0000 0.77870  0.67050  0.25190  Biso   1.000  O
  O20      1.0000 0.61800  0.66900  0.35740  Biso   1.000  O
