data_image0
_cell_length_a       7.5233
_cell_length_b       9.2537
_cell_length_c       27.4599
_cell_angle_alpha    90
_cell_angle_beta     90
_cell_angle_gamma    108.27

_symmetry_space_group_name_H-M    P 1
_symmetry_int_tables_number       1

loop_
  _symmetry_equiv_pos_as_xyz
  'x, y, z'

loop_
  _atom_site_label
  _atom_site_occupancy
  _atom_site_fract_x
  _atom_site_fract_y
  _atom_site_fract_z
  _atom_site_thermal_displace_type
  _atom_site_B_iso_or_equiv
  _atom_site_type_symbol
  Cu1      1.0000 0.36871  0.51015  0.45256  Biso   1.000  Cu
  Cu2      1.0000 0.81050  0.20209  0.53141  Biso   1.000  Cu
  Cu3      1.0000 0.63129  0.98985  0.95256  Biso   1.000  Cu
  Cu4      1.0000 0.18950  0.29791  0.03141  Biso   1.000  Cu
  Cu5      1.0000 0.63129  0.48985  0.54744  Biso   1.000  Cu
  Cu6      1.0000 0.18950  0.79791  0.46859  Biso   1.000  Cu
  Cu7      1.0000 0.36871  0.01015  0.04744  Biso   1.000  Cu
  Cu8      1.0000 0.81050  0.70209  0.96859  Biso   1.000  Cu
  Mo1      1.0000 0.70970  0.80915  0.49294  Biso   1.000  Mo
  Mo2      1.0000 0.85176  0.45169  0.44330  Biso   1.000  Mo
  Mo3      1.0000 0.29030  0.69085  0.99294  Biso   1.000  Mo
  Mo4      1.0000 0.14824  0.04831  0.94330  Biso   1.000  Mo
  Mo5      1.0000 0.29030  0.19085  0.50706  Biso   1.000  Mo
  Mo6      1.0000 0.14824  0.54831  0.55670  Biso   1.000  Mo
  Mo7      1.0000 0.70970  0.30915  0.00706  Biso   1.000  Mo
  Mo8      1.0000 0.85176  0.95169  0.05670  Biso   1.000  Mo
  H1       1.0000 0.22510  0.32760  0.36390  Biso   1.000  H
  H2       1.0000 0.25030  0.34990  0.28110  Biso   1.000  H
  H3       1.0000 0.62440  0.76340  0.29930  Biso   1.000  H
  H4       1.0000 0.59970  0.72590  0.38140  Biso   1.000  H
  H5       1.0000 0.06300  0.24210  0.13790  Biso   1.000  H
  H6       1.0000 0.14960  0.35370  0.21240  Biso   1.000  H
  H7       1.0000 0.54300  0.66800  0.22370  Biso   1.000  H
  H8       1.0000 0.59860  0.64770  0.14740  Biso   1.000  H
  H9       1.0000 0.49920  0.52770  0.07500  Biso   1.000  H
  H10      1.0000 0.77490  0.17240  0.86390  Biso   1.000  H
  H11      1.0000 0.74970  0.15010  0.78110  Biso   1.000  H
  H12      1.0000 0.37560  0.73660  0.79930  Biso   1.000  H
  H13      1.0000 0.40030  0.77410  0.88140  Biso   1.000  H
  H14      1.0000 0.93700  0.25790  0.63790  Biso   1.000  H
  H15      1.0000 0.85040  0.14630  0.71240  Biso   1.000  H
  H16      1.0000 0.45700  0.83200  0.72370  Biso   1.000  H
  H17      1.0000 0.40140  0.85230  0.64740  Biso   1.000  H
  H18      1.0000 0.50080  0.97230  0.57500  Biso   1.000  H
  H19      1.0000 0.77490  0.67240  0.63610  Biso   1.000  H
  H20      1.0000 0.74970  0.65010  0.71890  Biso   1.000  H
  H21      1.0000 0.37560  0.23660  0.70070  Biso   1.000  H
  H22      1.0000 0.40030  0.27410  0.61860  Biso   1.000  H
  H23      1.0000 0.93700  0.75790  0.86210  Biso   1.000  H
  H24      1.0000 0.85040  0.64630  0.78760  Biso   1.000  H
  H25      1.0000 0.45700  0.33200  0.77630  Biso   1.000  H
  H26      1.0000 0.40140  0.35230  0.85260  Biso   1.000  H
  H27      1.0000 0.50080  0.47230  0.92500  Biso   1.000  H
  H28      1.0000 0.22510  0.82760  0.13610  Biso   1.000  H
  H29      1.0000 0.25030  0.84990  0.21890  Biso   1.000  H
  H30      1.0000 0.62440  0.26340  0.20070  Biso   1.000  H
  H31      1.0000 0.59970  0.22590  0.11860  Biso   1.000  H
  H32      1.0000 0.06300  0.74210  0.36210  Biso   1.000  H
  H33      1.0000 0.14960  0.85370  0.28760  Biso   1.000  H
  H34      1.0000 0.54300  0.16800  0.27630  Biso   1.000  H
  H35      1.0000 0.59860  0.14770  0.35260  Biso   1.000  H
  H36      1.0000 0.49920  0.02770  0.42500  Biso   1.000  H
  C1       1.0000 0.30610  0.41640  0.35070  Biso   1.000  C
  C2       1.0000 0.31900  0.42980  0.30080  Biso   1.000  C
  C3       1.0000 0.43470  0.56250  0.27990  Biso   1.000  C
  C4       1.0000 0.54170  0.67380  0.31160  Biso   1.000  C
  C5       1.0000 0.52490  0.65120  0.36100  Biso   1.000  C
  C6       1.0000 0.17120  0.32530  0.13980  Biso   1.000  C
  C7       1.0000 0.22300  0.39090  0.18510  Biso   1.000  C
  C8       1.0000 0.38580  0.51280  0.18910  Biso   1.000  C
  C9       1.0000 0.48950  0.56520  0.14630  Biso   1.000  C
  C10      1.0000 0.42780  0.49330  0.10280  Biso   1.000  C
  C11      1.0000 0.69390  0.08360  0.85070  Biso   1.000  C
  C12      1.0000 0.68100  0.07020  0.80080  Biso   1.000  C
  C13      1.0000 0.56530  0.93750  0.77990  Biso   1.000  C
  C14      1.0000 0.45830  0.82620  0.81160  Biso   1.000  C
  C15      1.0000 0.47510  0.84880  0.86100  Biso   1.000  C
  C16      1.0000 0.82880  0.17470  0.63980  Biso   1.000  C
  C17      1.0000 0.77700  0.10910  0.68510  Biso   1.000  C
  C18      1.0000 0.61420  0.98720  0.68910  Biso   1.000  C
  C19      1.0000 0.51050  0.93480  0.64630  Biso   1.000  C
  C20      1.0000 0.57220  0.00670  0.60280  Biso   1.000  C
  C21      1.0000 0.69390  0.58360  0.64930  Biso   1.000  C
  C22      1.0000 0.68100  0.57020  0.69920  Biso   1.000  C
  C23      1.0000 0.56530  0.43750  0.72010  Biso   1.000  C
  C24      1.0000 0.45830  0.32620  0.68840  Biso   1.000  C
  C25      1.0000 0.47510  0.34880  0.63900  Biso   1.000  C
  C26      1.0000 0.82880  0.67470  0.86020  Biso   1.000  C
  C27      1.0000 0.77700  0.60910  0.81490  Biso   1.000  C
  C28      1.0000 0.61420  0.48720  0.81090  Biso   1.000  C
  C29      1.0000 0.51050  0.43480  0.85370  Biso   1.000  C
  C30      1.0000 0.57220  0.50670  0.89720  Biso   1.000  C
  C31      1.0000 0.30610  0.91640  0.14930  Biso   1.000  C
  C32      1.0000 0.31900  0.92980  0.19920  Biso   1.000  C
  C33      1.0000 0.43470  0.06250  0.22010  Biso   1.000  C
  C34      1.0000 0.54170  0.17380  0.18840  Biso   1.000  C
  C35      1.0000 0.52490  0.15120  0.13900  Biso   1.000  C
  C36      1.0000 0.17120  0.82530  0.36020  Biso   1.000  C
  C37      1.0000 0.22300  0.89090  0.31490  Biso   1.000  C
  C38      1.0000 0.38580  0.01280  0.31090  Biso   1.000  C
  C39      1.0000 0.48950  0.06520  0.35370  Biso   1.000  C
  C40      1.0000 0.42780  0.99330  0.39720  Biso   1.000  C
  N1       1.0000 0.40520  0.52600  0.38130  Biso   1.000  N
  N2       1.0000 0.46060  0.59480  0.23100  Biso   1.000  N
  N3       1.0000 0.26700  0.37400  0.09840  Biso   1.000  N
  N4       1.0000 0.59480  0.97400  0.88130  Biso   1.000  N
  N5       1.0000 0.53940  0.90520  0.73100  Biso   1.000  N
  N6       1.0000 0.73300  0.12600  0.59840  Biso   1.000  N
  N7       1.0000 0.59480  0.47400  0.61870  Biso   1.000  N
  N8       1.0000 0.53940  0.40520  0.76900  Biso   1.000  N
  N9       1.0000 0.73300  0.62600  0.90160  Biso   1.000  N
  N10      1.0000 0.40520  0.02600  0.11870  Biso   1.000  N
  N11      1.0000 0.46060  0.09480  0.26900  Biso   1.000  N
  N12      1.0000 0.26700  0.87400  0.40160  Biso   1.000  N
  O1       1.0000 0.48810  0.73050  0.46360  Biso   1.000  O
  O2       1.0000 0.72030  0.99490  0.50750  Biso   1.000  O
  O3       1.0000 0.89370  0.81970  0.45290  Biso   1.000  O
  O4       1.0000 0.72650  0.71250  0.54790  Biso   1.000  O
  O5       1.0000 0.67830  0.51220  0.47510  Biso   1.000  O
  O6       1.0000 0.83840  0.26580  0.46080  Biso   1.000  O
  O7       1.0000 0.08570  0.57750  0.45270  Biso   1.000  O
  O8       1.0000 0.80700  0.44890  0.38220  Biso   1.000  O
  O9       1.0000 0.51190  0.76950  0.96360  Biso   1.000  O
  O10      1.0000 0.27970  0.50510  0.00750  Biso   1.000  O
  O11      1.0000 0.10630  0.68030  0.95290  Biso   1.000  O
  O12      1.0000 0.27350  0.78750  0.04790  Biso   1.000  O
  O13      1.0000 0.32170  0.98780  0.97510  Biso   1.000  O
  O14      1.0000 0.16160  0.23420  0.96080  Biso   1.000  O
  O15      1.0000 0.91430  0.92250  0.95270  Biso   1.000  O
  O16      1.0000 0.19300  0.05110  0.88220  Biso   1.000  O
  O17      1.0000 0.51190  0.26950  0.53640  Biso   1.000  O
  O18      1.0000 0.27970  0.00510  0.49250  Biso   1.000  O
  O19      1.0000 0.10630  0.18030  0.54710  Biso   1.000  O
  O20      1.0000 0.27350  0.28750  0.45210  Biso   1.000  O
  O21      1.0000 0.32170  0.48780  0.52490  Biso   1.000  O
  O22      1.0000 0.16160  0.73420  0.53920  Biso   1.000  O
  O23      1.0000 0.91430  0.42250  0.54730  Biso   1.000  O
  O24      1.0000 0.19300  0.55110  0.61780  Biso   1.000  O
  O25      1.0000 0.48810  0.23050  0.03640  Biso   1.000  O
  O26      1.0000 0.72030  0.49490  0.99250  Biso   1.000  O
  O27      1.0000 0.89370  0.31970  0.04710  Biso   1.000  O
  O28      1.0000 0.72650  0.21250  0.95210  Biso   1.000  O
  O29      1.0000 0.67830  0.01220  0.02490  Biso   1.000  O
  O30      1.0000 0.83840  0.76580  0.03920  Biso   1.000  O
  O31      1.0000 0.08570  0.07750  0.04730  Biso   1.000  O
  O32      1.0000 0.80700  0.94890  0.11780  Biso   1.000  O
