data_image0
_cell_length_a       13.4374
_cell_length_b       13.6645
_cell_length_c       16.6277
_cell_angle_alpha    90
_cell_angle_beta     90
_cell_angle_gamma    95.379

_symmetry_space_group_name_H-M    P 1
_symmetry_int_tables_number       1

loop_
  _symmetry_equiv_pos_as_xyz
  'x, y, z'

loop_
  _atom_site_label
  _atom_site_occupancy
  _atom_site_fract_x
  _atom_site_fract_y
  _atom_site_fract_z
  _atom_site_thermal_displace_type
  _atom_site_B_iso_or_equiv
  _atom_site_type_symbol
  Co1      1.0000 0.12712  0.21861  0.23265  Biso   1.000  Co
  Co2      1.0000 0.37288  0.28139  0.73265  Biso   1.000  Co
  Co3      1.0000 0.87288  0.78139  0.76735  Biso   1.000  Co
  Co4      1.0000 0.62712  0.71861  0.26735  Biso   1.000  Co
  H1       1.0000 0.23860  0.06370  0.14710  Biso   1.000  H
  H2       1.0000 0.31300  0.20760  0.34290  Biso   1.000  H
  H3       1.0000 0.44940  0.96980  0.28800  Biso   1.000  H
  H4       1.0000 0.21080  0.91820  0.10650  Biso   1.000  H
  H5       1.0000 0.48680  0.87860  0.18290  Biso   1.000  H
  H6       1.0000 0.35250  0.69860  0.01760  Biso   1.000  H
  H7       1.0000 0.21400  0.78530  0.02300  Biso   1.000  H
  H8       1.0000 0.36800  0.18770  0.46450  Biso   1.000  H
  H9       1.0000 0.62070  0.14320  0.58060  Biso   1.000  H
  H10      1.0000 0.67590  0.06280  0.46940  Biso   1.000  H
  H11      1.0000 0.57840  0.04630  0.35530  Biso   1.000  H
  H12      1.0000 0.20920  0.38730  0.35640  Biso   1.000  H
  H13      1.0000 0.30340  0.56290  0.17800  Biso   1.000  H
  H14      1.0000 0.24010  0.40400  0.12290  Biso   1.000  H
  H15      1.0000 0.35080  0.61690  0.33720  Biso   1.000  H
  H16      1.0000 0.28700  0.55420  0.40120  Biso   1.000  H
  H17      1.0000 0.09500  0.56140  0.39120  Biso   1.000  H
  H18      1.0000 0.97180  0.66590  0.37950  Biso   1.000  H
  H19      1.0000 0.16820  0.86880  0.28290  Biso   1.000  H
  H20      1.0000 0.29120  0.76330  0.29270  Biso   1.000  H
  H21      1.0000 0.91300  0.80820  0.30870  Biso   1.000  H
  H22      1.0000 0.96410  0.87170  0.37840  Biso   1.000  H
  H23      1.0000 0.04210  0.03950  0.34310  Biso   1.000  H
  H24      1.0000 0.02810  0.03630  0.10890  Biso   1.000  H
  H25      1.0000 0.97110  0.87100  0.15540  Biso   1.000  H
  H26      1.0000 0.26140  0.43630  0.64710  Biso   1.000  H
  H27      1.0000 0.18700  0.29240  0.84290  Biso   1.000  H
  H28      1.0000 0.05060  0.53020  0.78800  Biso   1.000  H
  H29      1.0000 0.28920  0.58180  0.60650  Biso   1.000  H
  H30      1.0000 0.01320  0.62140  0.68290  Biso   1.000  H
  H31      1.0000 0.14750  0.80140  0.51760  Biso   1.000  H
  H32      1.0000 0.28600  0.71470  0.52300  Biso   1.000  H
  H33      1.0000 0.13200  0.31230  0.96450  Biso   1.000  H
  H34      1.0000 0.87930  0.35680  0.08060  Biso   1.000  H
  H35      1.0000 0.82410  0.43720  0.96940  Biso   1.000  H
  H36      1.0000 0.92160  0.45370  0.85530  Biso   1.000  H
  H37      1.0000 0.29080  0.11270  0.85640  Biso   1.000  H
  H38      1.0000 0.19660  0.93710  0.67800  Biso   1.000  H
  H39      1.0000 0.25990  0.09600  0.62290  Biso   1.000  H
  H40      1.0000 0.14920  0.88310  0.83720  Biso   1.000  H
  H41      1.0000 0.21300  0.94580  0.90120  Biso   1.000  H
  H42      1.0000 0.40500  0.93860  0.89120  Biso   1.000  H
  H43      1.0000 0.52820  0.83410  0.87950  Biso   1.000  H
  H44      1.0000 0.33180  0.63120  0.78290  Biso   1.000  H
  H45      1.0000 0.20880  0.73670  0.79270  Biso   1.000  H
  H46      1.0000 0.58700  0.69180  0.80870  Biso   1.000  H
  H47      1.0000 0.53590  0.62830  0.87840  Biso   1.000  H
  H48      1.0000 0.45790  0.46050  0.84310  Biso   1.000  H
  H49      1.0000 0.47190  0.46370  0.60890  Biso   1.000  H
  H50      1.0000 0.52890  0.62900  0.65540  Biso   1.000  H
  H51      1.0000 0.76140  0.93630  0.85290  Biso   1.000  H
  H52      1.0000 0.68700  0.79240  0.65710  Biso   1.000  H
  H53      1.0000 0.55060  0.03020  0.71200  Biso   1.000  H
  H54      1.0000 0.78920  0.08180  0.89350  Biso   1.000  H
  H55      1.0000 0.51320  0.12140  0.81710  Biso   1.000  H
  H56      1.0000 0.64750  0.30140  0.98240  Biso   1.000  H
  H57      1.0000 0.78600  0.21470  0.97700  Biso   1.000  H
  H58      1.0000 0.63200  0.81230  0.53550  Biso   1.000  H
  H59      1.0000 0.37930  0.85680  0.41940  Biso   1.000  H
  H60      1.0000 0.32410  0.93720  0.53060  Biso   1.000  H
  H61      1.0000 0.42160  0.95370  0.64470  Biso   1.000  H
  H62      1.0000 0.79080  0.61270  0.64360  Biso   1.000  H
  H63      1.0000 0.69660  0.43710  0.82200  Biso   1.000  H
  H64      1.0000 0.75990  0.59600  0.87710  Biso   1.000  H
  H65      1.0000 0.64920  0.38310  0.66280  Biso   1.000  H
  H66      1.0000 0.71300  0.44580  0.59880  Biso   1.000  H
  H67      1.0000 0.90500  0.43860  0.60880  Biso   1.000  H
  H68      1.0000 0.02820  0.33410  0.62050  Biso   1.000  H
  H69      1.0000 0.83180  0.13120  0.71710  Biso   1.000  H
  H70      1.0000 0.70880  0.23670  0.70730  Biso   1.000  H
  H71      1.0000 0.08700  0.19180  0.69130  Biso   1.000  H
  H72      1.0000 0.03590  0.12830  0.62160  Biso   1.000  H
  H73      1.0000 0.95790  0.96050  0.65690  Biso   1.000  H
  H74      1.0000 0.97190  0.96370  0.89110  Biso   1.000  H
  H75      1.0000 0.02890  0.12900  0.84460  Biso   1.000  H
  H76      1.0000 0.73860  0.56370  0.35290  Biso   1.000  H
  H77      1.0000 0.81300  0.70760  0.15710  Biso   1.000  H
  H78      1.0000 0.94940  0.46980  0.21200  Biso   1.000  H
  H79      1.0000 0.71080  0.41820  0.39350  Biso   1.000  H
  H80      1.0000 0.98680  0.37860  0.31710  Biso   1.000  H
  H81      1.0000 0.85250  0.19860  0.48240  Biso   1.000  H
  H82      1.0000 0.71400  0.28530  0.47700  Biso   1.000  H
  H83      1.0000 0.86800  0.68770  0.03550  Biso   1.000  H
  H84      1.0000 0.12070  0.64320  0.91940  Biso   1.000  H
  H85      1.0000 0.17590  0.56280  0.03060  Biso   1.000  H
  H86      1.0000 0.07840  0.54630  0.14470  Biso   1.000  H
  H87      1.0000 0.70920  0.88730  0.14360  Biso   1.000  H
  H88      1.0000 0.80340  0.06290  0.32200  Biso   1.000  H
  H89      1.0000 0.74010  0.90400  0.37710  Biso   1.000  H
  H90      1.0000 0.85080  0.11690  0.16280  Biso   1.000  H
  H91      1.0000 0.78700  0.05420  0.09880  Biso   1.000  H
  H92      1.0000 0.59500  0.06140  0.10880  Biso   1.000  H
  H93      1.0000 0.47180  0.16590  0.12050  Biso   1.000  H
  H94      1.0000 0.66820  0.36880  0.21710  Biso   1.000  H
  H95      1.0000 0.79120  0.26330  0.20730  Biso   1.000  H
  H96      1.0000 0.41300  0.30820  0.19130  Biso   1.000  H
  H97      1.0000 0.46410  0.37170  0.12160  Biso   1.000  H
  H98      1.0000 0.54210  0.53950  0.15690  Biso   1.000  H
  H99      1.0000 0.52810  0.53630  0.39110  Biso   1.000  H
  H100     1.0000 0.47110  0.37100  0.34460  Biso   1.000  H
  C1       1.0000 0.27620  0.06923  0.19414  Biso   1.000  C
  C2       1.0000 0.32164  0.15543  0.30847  Biso   1.000  C
  C3       1.0000 0.39568  0.09457  0.32668  Biso   1.000  C
  C4       1.0000 0.40340  0.01448  0.27607  Biso   1.000  C
  C5       1.0000 0.34402  0.99992  0.20830  Biso   1.000  C
  C6       1.0000 0.34890  0.91427  0.15368  Biso   1.000  C
  C7       1.0000 0.26740  0.88390  0.10508  Biso   1.000  C
  C8       1.0000 0.43160  0.85999  0.15075  Biso   1.000  C
  C9       1.0000 0.43330  0.77836  0.10061  Biso   1.000  C
  C10      1.0000 0.35160  0.75190  0.05223  Biso   1.000  C
  C11      1.0000 0.26910  0.80420  0.05520  Biso   1.000  C
  C12      1.0000 0.52270  0.71980  0.09720  Biso   1.000  C
  C13      1.0000 0.46096  0.11258  0.39818  Biso   1.000  C
  C14      1.0000 0.42980  0.16229  0.46527  Biso   1.000  C
  C15      1.0000 0.48939  0.17469  0.53337  Biso   1.000  C
  C16      1.0000 0.58110  0.13640  0.53475  Biso   1.000  C
  C17      1.0000 0.61400  0.08810  0.46837  Biso   1.000  C
  C18      1.0000 0.55500  0.07740  0.40036  Biso   1.000  C
  C19      1.0000 0.45190  0.22275  0.60663  Biso   1.000  C
  C20      1.0000 0.22460  0.41070  0.30490  Biso   1.000  C
  C21      1.0000 0.27720  0.50840  0.20710  Biso   1.000  C
  C22      1.0000 0.24160  0.42060  0.17713  Biso   1.000  C
  C23      1.0000 0.28600  0.58160  0.34750  Biso   1.000  C
  C24      1.0000 0.20590  0.65170  0.34230  Biso   1.000  C
  C25      1.0000 0.10980  0.62340  0.36860  Biso   1.000  C
  C26      1.0000 0.03610  0.68590  0.36180  Biso   1.000  C
  C27      1.0000 0.05670  0.77820  0.32892  Biso   1.000  C
  C28      1.0000 0.15290  0.80630  0.30420  Biso   1.000  C
  C29      1.0000 0.22680  0.74330  0.31040  Biso   1.000  C
  C30      1.0000 0.97460  0.84570  0.32510  Biso   1.000  C
  C31      1.0000 0.03140  0.01880  0.29024  Biso   1.000  C
  C32      1.0000 0.02370  0.01640  0.16234  Biso   1.000  C
  C33      1.0000 0.99190  0.92490  0.18740  Biso   1.000  C
  C34      1.0000 0.22380  0.43077  0.69414  Biso   1.000  C
  C35      1.0000 0.17836  0.34457  0.80847  Biso   1.000  C
  C36      1.0000 0.10432  0.40543  0.82668  Biso   1.000  C
  C37      1.0000 0.09660  0.48552  0.77607  Biso   1.000  C
  C38      1.0000 0.15598  0.50008  0.70830  Biso   1.000  C
  C39      1.0000 0.15110  0.58573  0.65368  Biso   1.000  C
  C40      1.0000 0.23260  0.61610  0.60508  Biso   1.000  C
  C41      1.0000 0.06840  0.64001  0.65075  Biso   1.000  C
  C42      1.0000 0.06670  0.72164  0.60061  Biso   1.000  C
  C43      1.0000 0.14840  0.74810  0.55223  Biso   1.000  C
  C44      1.0000 0.23090  0.69580  0.55520  Biso   1.000  C
  C45      1.0000 0.97730  0.78020  0.59720  Biso   1.000  C
  C46      1.0000 0.03904  0.38742  0.89818  Biso   1.000  C
  C47      1.0000 0.07020  0.33771  0.96527  Biso   1.000  C
  C48      1.0000 0.01061  0.32531  0.03337  Biso   1.000  C
  C49      1.0000 0.91890  0.36360  0.03475  Biso   1.000  C
  C50      1.0000 0.88600  0.41190  0.96837  Biso   1.000  C
  C51      1.0000 0.94500  0.42260  0.90036  Biso   1.000  C
  C52      1.0000 0.04810  0.27725  0.10663  Biso   1.000  C
  C53      1.0000 0.27540  0.08930  0.80490  Biso   1.000  C
  C54      1.0000 0.22280  0.99160  0.70710  Biso   1.000  C
  C55      1.0000 0.25840  0.07940  0.67713  Biso   1.000  C
  C56      1.0000 0.21400  0.91840  0.84750  Biso   1.000  C
  C57      1.0000 0.29410  0.84830  0.84230  Biso   1.000  C
  C58      1.0000 0.39020  0.87660  0.86860  Biso   1.000  C
  C59      1.0000 0.46390  0.81410  0.86180  Biso   1.000  C
  C60      1.0000 0.44330  0.72180  0.82892  Biso   1.000  C
  C61      1.0000 0.34710  0.69370  0.80420  Biso   1.000  C
  C62      1.0000 0.27320  0.75670  0.81040  Biso   1.000  C
  C63      1.0000 0.52540  0.65430  0.82510  Biso   1.000  C
  C64      1.0000 0.46860  0.48120  0.79024  Biso   1.000  C
  C65      1.0000 0.47630  0.48360  0.66234  Biso   1.000  C
  C66      1.0000 0.50810  0.57510  0.68740  Biso   1.000  C
  C67      1.0000 0.72380  0.93077  0.80586  Biso   1.000  C
  C68      1.0000 0.67836  0.84457  0.69153  Biso   1.000  C
  C69      1.0000 0.60432  0.90543  0.67332  Biso   1.000  C
  C70      1.0000 0.59660  0.98552  0.72393  Biso   1.000  C
  C71      1.0000 0.65598  0.00008  0.79170  Biso   1.000  C
  C72      1.0000 0.65110  0.08573  0.84632  Biso   1.000  C
  C73      1.0000 0.73260  0.11610  0.89492  Biso   1.000  C
  C74      1.0000 0.56840  0.14001  0.84925  Biso   1.000  C
  C75      1.0000 0.56670  0.22164  0.89939  Biso   1.000  C
  C76      1.0000 0.64840  0.24810  0.94777  Biso   1.000  C
  C77      1.0000 0.73090  0.19580  0.94480  Biso   1.000  C
  C78      1.0000 0.47730  0.28020  0.90280  Biso   1.000  C
  C79      1.0000 0.53904  0.88742  0.60182  Biso   1.000  C
  C80      1.0000 0.57020  0.83771  0.53473  Biso   1.000  C
  C81      1.0000 0.51061  0.82531  0.46663  Biso   1.000  C
  C82      1.0000 0.41890  0.86360  0.46525  Biso   1.000  C
  C83      1.0000 0.38600  0.91190  0.53163  Biso   1.000  C
  C84      1.0000 0.44500  0.92260  0.59964  Biso   1.000  C
  C85      1.0000 0.54810  0.77725  0.39337  Biso   1.000  C
  C86      1.0000 0.77540  0.58930  0.69510  Biso   1.000  C
  C87      1.0000 0.72280  0.49160  0.79290  Biso   1.000  C
  C88      1.0000 0.75840  0.57940  0.82287  Biso   1.000  C
  C89      1.0000 0.71400  0.41840  0.65250  Biso   1.000  C
  C90      1.0000 0.79410  0.34830  0.65770  Biso   1.000  C
  C91      1.0000 0.89020  0.37660  0.63140  Biso   1.000  C
  C92      1.0000 0.96390  0.31410  0.63820  Biso   1.000  C
  C93      1.0000 0.94330  0.22180  0.67108  Biso   1.000  C
  C94      1.0000 0.84710  0.19370  0.69580  Biso   1.000  C
  C95      1.0000 0.77320  0.25670  0.68960  Biso   1.000  C
  C96      1.0000 0.02540  0.15430  0.67490  Biso   1.000  C
  C97      1.0000 0.96860  0.98120  0.70976  Biso   1.000  C
  C98      1.0000 0.97630  0.98360  0.83766  Biso   1.000  C
  C99      1.0000 0.00810  0.07510  0.81260  Biso   1.000  C
  C100     1.0000 0.77620  0.56923  0.30586  Biso   1.000  C
  C101     1.0000 0.82164  0.65543  0.19153  Biso   1.000  C
  C102     1.0000 0.89568  0.59457  0.17332  Biso   1.000  C
  C103     1.0000 0.90340  0.51448  0.22393  Biso   1.000  C
  C104     1.0000 0.84402  0.49992  0.29170  Biso   1.000  C
  C105     1.0000 0.84890  0.41427  0.34632  Biso   1.000  C
  C106     1.0000 0.76740  0.38390  0.39492  Biso   1.000  C
  C107     1.0000 0.93160  0.35999  0.34925  Biso   1.000  C
  C108     1.0000 0.93330  0.27836  0.39939  Biso   1.000  C
  C109     1.0000 0.85160  0.25190  0.44777  Biso   1.000  C
  C110     1.0000 0.76910  0.30420  0.44480  Biso   1.000  C
  C111     1.0000 0.02270  0.21980  0.40280  Biso   1.000  C
  C112     1.0000 0.96096  0.61258  0.10182  Biso   1.000  C
  C113     1.0000 0.92980  0.66229  0.03473  Biso   1.000  C
  C114     1.0000 0.98939  0.67469  0.96663  Biso   1.000  C
  C115     1.0000 0.08110  0.63640  0.96525  Biso   1.000  C
  C116     1.0000 0.11400  0.58810  0.03163  Biso   1.000  C
  C117     1.0000 0.05500  0.57740  0.09964  Biso   1.000  C
  C118     1.0000 0.95190  0.72275  0.89337  Biso   1.000  C
  C119     1.0000 0.72460  0.91070  0.19510  Biso   1.000  C
  C120     1.0000 0.77720  0.00840  0.29290  Biso   1.000  C
  C121     1.0000 0.74160  0.92060  0.32287  Biso   1.000  C
  C122     1.0000 0.78600  0.08160  0.15250  Biso   1.000  C
  C123     1.0000 0.70590  0.15170  0.15770  Biso   1.000  C
  C124     1.0000 0.60980  0.12340  0.13140  Biso   1.000  C
  C125     1.0000 0.53610  0.18590  0.13820  Biso   1.000  C
  C126     1.0000 0.55670  0.27820  0.17108  Biso   1.000  C
  C127     1.0000 0.65290  0.30630  0.19580  Biso   1.000  C
  C128     1.0000 0.72680  0.24330  0.18960  Biso   1.000  C
  C129     1.0000 0.47460  0.34570  0.17490  Biso   1.000  C
  C130     1.0000 0.53140  0.51880  0.20976  Biso   1.000  C
  C131     1.0000 0.52370  0.51640  0.33766  Biso   1.000  C
  C132     1.0000 0.49190  0.42490  0.31260  Biso   1.000  C
  N1       1.0000 0.26222  0.14312  0.24420  Biso   1.000  N
  N2       1.0000 0.20780  0.35920  0.23866  Biso   1.000  N
  N3       1.0000 0.26714  0.50183  0.28853  Biso   1.000  N
  N4       1.0000 0.99653  0.92752  0.26916  Biso   1.000  N
  N5       1.0000 0.04873  0.07582  0.22702  Biso   1.000  N
  N6       1.0000 0.23778  0.35688  0.74420  Biso   1.000  N
  N7       1.0000 0.29220  0.14080  0.73866  Biso   1.000  N
  N8       1.0000 0.23286  0.99817  0.78853  Biso   1.000  N
  N9       1.0000 0.50347  0.57248  0.76916  Biso   1.000  N
  N10      1.0000 0.45127  0.42418  0.72702  Biso   1.000  N
  N11      1.0000 0.73778  0.85688  0.75580  Biso   1.000  N
  N12      1.0000 0.79220  0.64080  0.76134  Biso   1.000  N
  N13      1.0000 0.73286  0.49817  0.71147  Biso   1.000  N
  N14      1.0000 0.00347  0.07248  0.73084  Biso   1.000  N
  N15      1.0000 0.95127  0.92418  0.77298  Biso   1.000  N
  N16      1.0000 0.76222  0.64312  0.25580  Biso   1.000  N
  N17      1.0000 0.70780  0.85920  0.26134  Biso   1.000  N
  N18      1.0000 0.76714  0.00183  0.21147  Biso   1.000  N
  N19      1.0000 0.49653  0.42752  0.23084  Biso   1.000  N
  N20      1.0000 0.54873  0.57582  0.27298  Biso   1.000  N
  O1       1.0000 0.37388  0.26838  0.60250  Biso   1.000  O
  O2       1.0000 0.49564  0.21522  0.67254  Biso   1.000  O
  O3       1.0000 0.52610  0.65915  0.04157  Biso   1.000  O
  O4       1.0000 0.59030  0.73485  0.14985  Biso   1.000  O
  O5       1.0000 0.12612  0.23162  0.10250  Biso   1.000  O
  O6       1.0000 0.00436  0.28478  0.17254  Biso   1.000  O
  O7       1.0000 0.97390  0.84085  0.54157  Biso   1.000  O
  O8       1.0000 0.90970  0.76515  0.64985  Biso   1.000  O
  O9       1.0000 0.62612  0.73162  0.39750  Biso   1.000  O
  O10      1.0000 0.50436  0.78478  0.32746  Biso   1.000  O
  O11      1.0000 0.47390  0.34085  0.95843  Biso   1.000  O
  O12      1.0000 0.40970  0.26515  0.85015  Biso   1.000  O
  O13      1.0000 0.87388  0.76838  0.89750  Biso   1.000  O
  O14      1.0000 0.99564  0.71522  0.82746  Biso   1.000  O
  O15      1.0000 0.02610  0.15915  0.45843  Biso   1.000  O
  O16      1.0000 0.09030  0.23485  0.35015  Biso   1.000  O
