data_image0
_cell_length_a       8.4787
_cell_length_b       15.2456
_cell_length_c       13.3806
_cell_angle_alpha    90
_cell_angle_beta     90
_cell_angle_gamma    90

_symmetry_space_group_name_H-M    "P 1"
_symmetry_int_tables_number       1

loop_
  _symmetry_equiv_pos_as_xyz
  'x, y, z'

loop_
  _atom_site_label
  _atom_site_occupancy
  _atom_site_fract_x
  _atom_site_fract_y
  _atom_site_fract_z
  _atom_site_thermal_displace_type
  _atom_site_B_iso_or_equiv
  _atom_site_type_symbol
  P1       1.0000 0.02482  0.09831  0.88852  Biso   1.000  P
  H1       1.0000 0.15600  0.08760  0.83970  Biso   1.000  H
  P2       1.0000 0.25259  0.36997  0.77111  Biso   1.000  P
  H2       1.0000 0.16300  0.44240  0.75660  Biso   1.000  H
  Be1      1.0000 0.46540  0.41170  0.60950  Biso   1.000  Be
  O1       1.0000 0.93700  0.17426  0.84023  Biso   1.000  O
  O2       1.0000 0.06690  0.12166  0.99505  Biso   1.000  O
  O3       1.0000 0.93190  0.01468  0.87943  Biso   1.000  O
  O4       1.0000 0.14170  0.29540  0.79400  Biso   1.000  O
  O5       1.0000 0.34390  0.35508  0.67627  Biso   1.000  O
  O6       1.0000 0.35280  0.38701  0.86288  Biso   1.000  O
  P3       1.0000 0.47518  0.40169  0.38852  Biso   1.000  P
  H3       1.0000 0.34400  0.41240  0.33970  Biso   1.000  H
  P4       1.0000 0.24741  0.13003  0.27111  Biso   1.000  P
  H4       1.0000 0.33700  0.05760  0.25660  Biso   1.000  H
  Be2      1.0000 0.03460  0.08830  0.10950  Biso   1.000  Be
  O7       1.0000 0.56300  0.32574  0.34023  Biso   1.000  O
  O8       1.0000 0.43310  0.37834  0.49505  Biso   1.000  O
  O9       1.0000 0.56810  0.48532  0.37943  Biso   1.000  O
  O10      1.0000 0.35830  0.20460  0.29400  Biso   1.000  O
  O11      1.0000 0.15610  0.14492  0.17627  Biso   1.000  O
  O12      1.0000 0.14720  0.11299  0.36288  Biso   1.000  O
  P5       1.0000 0.97518  0.09831  0.61148  Biso   1.000  P
  H5       1.0000 0.84400  0.08760  0.66030  Biso   1.000  H
  P6       1.0000 0.74741  0.36997  0.72889  Biso   1.000  P
  H6       1.0000 0.83700  0.44240  0.74340  Biso   1.000  H
  Be3      1.0000 0.53460  0.41170  0.89050  Biso   1.000  Be
  O13      1.0000 0.06300  0.17426  0.65977  Biso   1.000  O
  O14      1.0000 0.93310  0.12166  0.50495  Biso   1.000  O
  O15      1.0000 0.06810  0.01468  0.62057  Biso   1.000  O
  O16      1.0000 0.85830  0.29540  0.70600  Biso   1.000  O
  O17      1.0000 0.65610  0.35508  0.82373  Biso   1.000  O
  O18      1.0000 0.64720  0.38701  0.63712  Biso   1.000  O
  P7       1.0000 0.52482  0.40169  0.11148  Biso   1.000  P
  H7       1.0000 0.65600  0.41240  0.16030  Biso   1.000  H
  P8       1.0000 0.75259  0.13003  0.22889  Biso   1.000  P
  H8       1.0000 0.66300  0.05760  0.24340  Biso   1.000  H
  Be4      1.0000 0.96540  0.08830  0.39050  Biso   1.000  Be
  O19      1.0000 0.43700  0.32574  0.15977  Biso   1.000  O
  O20      1.0000 0.56690  0.37834  0.00495  Biso   1.000  O
  O21      1.0000 0.43190  0.48532  0.12057  Biso   1.000  O
  O22      1.0000 0.64170  0.20460  0.20600  Biso   1.000  O
  O23      1.0000 0.84390  0.14492  0.32373  Biso   1.000  O
  O24      1.0000 0.85280  0.11299  0.13712  Biso   1.000  O
  P9       1.0000 0.97518  0.90169  0.11148  Biso   1.000  P
  H9       1.0000 0.84400  0.91240  0.16030  Biso   1.000  H
  P10      1.0000 0.74741  0.63003  0.22889  Biso   1.000  P
  H10      1.0000 0.83700  0.55760  0.24340  Biso   1.000  H
  Be5      1.0000 0.53460  0.58830  0.39050  Biso   1.000  Be
  O25      1.0000 0.06300  0.82574  0.15977  Biso   1.000  O
  O26      1.0000 0.93310  0.87834  0.00495  Biso   1.000  O
  O27      1.0000 0.06810  0.98532  0.12057  Biso   1.000  O
  O28      1.0000 0.85830  0.70460  0.20600  Biso   1.000  O
  O29      1.0000 0.65610  0.64492  0.32373  Biso   1.000  O
  O30      1.0000 0.64720  0.61299  0.13712  Biso   1.000  O
  P11      1.0000 0.52482  0.59831  0.61148  Biso   1.000  P
  H11      1.0000 0.65600  0.58760  0.66030  Biso   1.000  H
  P12      1.0000 0.75259  0.86997  0.72889  Biso   1.000  P
  H12      1.0000 0.66300  0.94240  0.74340  Biso   1.000  H
  Be6      1.0000 0.96540  0.91170  0.89050  Biso   1.000  Be
  O31      1.0000 0.43700  0.67426  0.65977  Biso   1.000  O
  O32      1.0000 0.56690  0.62166  0.50495  Biso   1.000  O
  O33      1.0000 0.43190  0.51468  0.62057  Biso   1.000  O
  O34      1.0000 0.64170  0.79540  0.70600  Biso   1.000  O
  O35      1.0000 0.84390  0.85508  0.82373  Biso   1.000  O
  O36      1.0000 0.85280  0.88701  0.63712  Biso   1.000  O
  P13      1.0000 0.02482  0.90169  0.38852  Biso   1.000  P
  H13      1.0000 0.15600  0.91240  0.33970  Biso   1.000  H
  P14      1.0000 0.25259  0.63003  0.27111  Biso   1.000  P
  H14      1.0000 0.16300  0.55760  0.25660  Biso   1.000  H
  Be7      1.0000 0.46540  0.58830  0.10950  Biso   1.000  Be
  O37      1.0000 0.93700  0.82574  0.34023  Biso   1.000  O
  O38      1.0000 0.06690  0.87834  0.49505  Biso   1.000  O
  O39      1.0000 0.93190  0.98532  0.37943  Biso   1.000  O
  O40      1.0000 0.14170  0.70460  0.29400  Biso   1.000  O
  O41      1.0000 0.34390  0.64492  0.17627  Biso   1.000  O
  O42      1.0000 0.35280  0.61299  0.36288  Biso   1.000  O
  P15      1.0000 0.47518  0.59831  0.88852  Biso   1.000  P
  H15      1.0000 0.34400  0.58760  0.83970  Biso   1.000  H
  P16      1.0000 0.24741  0.86997  0.77111  Biso   1.000  P
  H16      1.0000 0.33700  0.94240  0.75660  Biso   1.000  H
  Be8      1.0000 0.03460  0.91170  0.60950  Biso   1.000  Be
  O43      1.0000 0.56300  0.67426  0.84023  Biso   1.000  O
  O44      1.0000 0.43310  0.62166  0.99505  Biso   1.000  O
  O45      1.0000 0.56810  0.51468  0.87943  Biso   1.000  O
  O46      1.0000 0.35830  0.79540  0.79400  Biso   1.000  O
  O47      1.0000 0.15610  0.85508  0.67627  Biso   1.000  O
  O48      1.0000 0.14720  0.88701  0.86288  Biso   1.000  O
  Be9      1.0000 0.00000  0.23770  0.75000  Biso   1.000  Be
  Be10     1.0000 0.50000  0.26230  0.25000  Biso   1.000  Be
  Be11     1.0000 0.00000  0.76230  0.25000  Biso   1.000  Be
  Be12     1.0000 0.50000  0.73770  0.75000  Biso   1.000  Be
