data_image0
_cell_length_a       9.2899
_cell_length_b       9.2899
_cell_length_c       49.248
_cell_angle_alpha    90
_cell_angle_beta     90
_cell_angle_gamma    120

_symmetry_space_group_name_H-M    "P 1"
_symmetry_int_tables_number       1

loop_
  _symmetry_equiv_pos_as_xyz
  'x, y, z'

loop_
  _atom_site_label
  _atom_site_occupancy
  _atom_site_fract_x
  _atom_site_fract_y
  _atom_site_fract_z
  _atom_site_thermal_displace_type
  _atom_site_B_iso_or_equiv
  _atom_site_type_symbol
  N1       1.0000 0.79290  0.71020  0.03477  Biso   1.000  N
  C1       1.0000 0.80840  0.64070  0.05131  Biso   1.000  C
  N2       1.0000 0.45957  0.04353  0.36810  Biso   1.000  N
  C2       1.0000 0.47507  0.97403  0.38464  Biso   1.000  C
  N3       1.0000 0.12623  0.37687  0.70144  Biso   1.000  N
  C3       1.0000 0.14173  0.30737  0.71798  Biso   1.000  C
  N4       1.0000 0.28980  0.08270  0.03477  Biso   1.000  N
  C4       1.0000 0.35930  0.16770  0.05131  Biso   1.000  C
  N5       1.0000 0.95647  0.41603  0.36810  Biso   1.000  N
  C5       1.0000 0.02597  0.50103  0.38464  Biso   1.000  C
  N6       1.0000 0.62313  0.74937  0.70144  Biso   1.000  N
  C6       1.0000 0.69263  0.83437  0.71798  Biso   1.000  C
  N7       1.0000 0.91730  0.20710  0.03477  Biso   1.000  N
  C7       1.0000 0.83230  0.19160  0.05131  Biso   1.000  C
  N8       1.0000 0.58397  0.54043  0.36810  Biso   1.000  N
  C8       1.0000 0.49897  0.52493  0.38464  Biso   1.000  C
  N9       1.0000 0.25063  0.87377  0.70144  Biso   1.000  N
  C9       1.0000 0.16563  0.85827  0.71798  Biso   1.000  C
  N10      1.0000 0.71020  0.79290  0.46523  Biso   1.000  N
  C10      1.0000 0.64070  0.80840  0.44869  Biso   1.000  C
  N11      1.0000 0.37687  0.12623  0.79856  Biso   1.000  N
  C11      1.0000 0.30737  0.14173  0.78202  Biso   1.000  C
  N12      1.0000 0.04353  0.45957  0.13190  Biso   1.000  N
  C12      1.0000 0.97403  0.47507  0.11536  Biso   1.000  C
  N13      1.0000 0.08270  0.28980  0.46523  Biso   1.000  N
  C13      1.0000 0.16770  0.35930  0.44869  Biso   1.000  C
  N14      1.0000 0.74937  0.62313  0.79856  Biso   1.000  N
  C14      1.0000 0.83437  0.69263  0.78202  Biso   1.000  C
  N15      1.0000 0.41603  0.95647  0.13190  Biso   1.000  N
  C15      1.0000 0.50103  0.02597  0.11536  Biso   1.000  C
  N16      1.0000 0.20710  0.91730  0.46523  Biso   1.000  N
  C16      1.0000 0.19160  0.83230  0.44869  Biso   1.000  C
  N17      1.0000 0.87377  0.25063  0.79856  Biso   1.000  N
  C17      1.0000 0.85827  0.16563  0.78202  Biso   1.000  C
  N18      1.0000 0.54043  0.58397  0.13190  Biso   1.000  N
  C18      1.0000 0.52493  0.49897  0.11536  Biso   1.000  C
  N19      1.0000 0.20710  0.28980  0.96523  Biso   1.000  N
  C19      1.0000 0.19160  0.35930  0.94869  Biso   1.000  C
  N20      1.0000 0.87377  0.62313  0.29856  Biso   1.000  N
  C20      1.0000 0.85827  0.69263  0.28202  Biso   1.000  C
  N21      1.0000 0.54043  0.95647  0.63190  Biso   1.000  N
  C21      1.0000 0.52493  0.02597  0.61536  Biso   1.000  C
  N22      1.0000 0.71020  0.91730  0.96523  Biso   1.000  N
  C22      1.0000 0.64070  0.83230  0.94869  Biso   1.000  C
  N23      1.0000 0.37687  0.25063  0.29856  Biso   1.000  N
  C23      1.0000 0.30737  0.16563  0.28202  Biso   1.000  C
  N24      1.0000 0.04353  0.58397  0.63190  Biso   1.000  N
  C24      1.0000 0.97403  0.49897  0.61536  Biso   1.000  C
  N25      1.0000 0.08270  0.79290  0.96523  Biso   1.000  N
  C25      1.0000 0.16770  0.80840  0.94869  Biso   1.000  C
  N26      1.0000 0.74937  0.12623  0.29856  Biso   1.000  N
  C26      1.0000 0.83437  0.14173  0.28202  Biso   1.000  C
  N27      1.0000 0.41603  0.45957  0.63190  Biso   1.000  N
  C27      1.0000 0.50103  0.47507  0.61536  Biso   1.000  C
  N28      1.0000 0.28980  0.20710  0.53477  Biso   1.000  N
  C28      1.0000 0.35930  0.19160  0.55131  Biso   1.000  C
  N29      1.0000 0.95647  0.54043  0.86810  Biso   1.000  N
  C29      1.0000 0.02597  0.52493  0.88464  Biso   1.000  C
  N30      1.0000 0.62313  0.87377  0.20144  Biso   1.000  N
  C30      1.0000 0.69263  0.85827  0.21798  Biso   1.000  C
  N31      1.0000 0.91730  0.71020  0.53477  Biso   1.000  N
  C31      1.0000 0.83230  0.64070  0.55131  Biso   1.000  C
  N32      1.0000 0.58397  0.04353  0.86810  Biso   1.000  N
  C32      1.0000 0.49897  0.97403  0.88464  Biso   1.000  C
  N33      1.0000 0.25063  0.37687  0.20144  Biso   1.000  N
  C33      1.0000 0.16563  0.30737  0.21798  Biso   1.000  C
  N34      1.0000 0.79290  0.08270  0.53477  Biso   1.000  N
  C34      1.0000 0.80840  0.16770  0.55131  Biso   1.000  C
  N35      1.0000 0.45957  0.41603  0.86810  Biso   1.000  N
  C35      1.0000 0.47507  0.50103  0.88464  Biso   1.000  C
  N36      1.0000 0.12623  0.74937  0.20144  Biso   1.000  N
  C36      1.0000 0.14173  0.83437  0.21798  Biso   1.000  C
  Ag1      1.0000 0.86559  0.53226  0.08333  Biso   1.000  Ag
  Ag2      1.0000 0.19893  0.19893  0.75000  Biso   1.000  Ag
  Ag3      1.0000 0.46774  0.33333  0.08333  Biso   1.000  Ag
  Ag4      1.0000 0.66667  0.13441  0.08333  Biso   1.000  Ag
  Ag5      1.0000 0.33333  0.46774  0.41667  Biso   1.000  Ag
  Ag6      1.0000 0.53226  0.86559  0.41667  Biso   1.000  Ag
  Ag7      1.0000 0.00000  0.80107  0.75000  Biso   1.000  Ag
  Ag8      1.0000 0.13441  0.66667  0.41667  Biso   1.000  Ag
  Ag9      1.0000 0.80107  0.00000  0.75000  Biso   1.000  Ag
  Ag10     1.0000 0.13441  0.46774  0.91667  Biso   1.000  Ag
  Ag11     1.0000 0.80107  0.80107  0.25000  Biso   1.000  Ag
  Ag12     1.0000 0.53226  0.66667  0.91667  Biso   1.000  Ag
  Ag13     1.0000 0.19893  0.00000  0.25000  Biso   1.000  Ag
  Ag14     1.0000 0.86559  0.33333  0.58333  Biso   1.000  Ag
  Ag15     1.0000 0.33333  0.86559  0.91667  Biso   1.000  Ag
  Ag16     1.0000 0.00000  0.19893  0.25000  Biso   1.000  Ag
  Ag17     1.0000 0.46774  0.13441  0.58333  Biso   1.000  Ag
  Ag18     1.0000 0.66667  0.53226  0.58333  Biso   1.000  Ag
  K1       1.0000 0.00000  0.00000  0.00000  Biso   1.000  K
  K2       1.0000 0.66667  0.33333  0.33333  Biso   1.000  K
  K3       1.0000 0.33333  0.66667  0.66667  Biso   1.000  K
  K4       1.0000 0.00000  0.00000  0.50000  Biso   1.000  K
  K5       1.0000 0.66667  0.33333  0.83333  Biso   1.000  K
  K6       1.0000 0.33333  0.66667  0.16667  Biso   1.000  K
