data_image0
_cell_length_a       8.1984
_cell_length_b       24.094
_cell_length_c       11.307
_cell_angle_alpha    90
_cell_angle_beta     90
_cell_angle_gamma    90

_symmetry_space_group_name_H-M    P 1
_symmetry_int_tables_number       1

loop_
  _symmetry_equiv_pos_as_xyz
  'x, y, z'

loop_
  _atom_site_label
  _atom_site_occupancy
  _atom_site_fract_x
  _atom_site_fract_y
  _atom_site_fract_z
  _atom_site_thermal_displace_type
  _atom_site_B_iso_or_equiv
  _atom_site_type_symbol
  Ni1      1.0000 0.90934  0.81500  0.47060  Biso   1.000  Ni
  Ni2      1.0000 0.09066  0.18500  0.47060  Biso   1.000  Ni
  Ni3      1.0000 0.40934  0.68500  0.52940  Biso   1.000  Ni
  Ni4      1.0000 0.59066  0.31500  0.52940  Biso   1.000  Ni
  H1       1.0000 0.40030  0.81880  0.74290  Biso   1.000  H
  H2       1.0000 0.37640  0.89490  0.86460  Biso   1.000  H
  H3       1.0000 0.65700  0.98210  0.64000  Biso   1.000  H
  H4       1.0000 0.71230  0.77000  0.26220  Biso   1.000  H
  H5       1.0000 0.70780  0.76840  0.06100  Biso   1.000  H
  H6       1.0000 0.09070  0.87140  0.06110  Biso   1.000  H
  H7       1.0000 0.08460  0.86980  0.26320  Biso   1.000  H
  H8       1.0000 0.82090  0.73900  0.88180  Biso   1.000  H
  H9       1.0000 0.83180  0.73790  0.67940  Biso   1.000  H
  H10      1.0000 0.00950  0.88790  0.67340  Biso   1.000  H
  H11      1.0000 0.00130  0.89310  0.87460  Biso   1.000  H
  H12      1.0000 0.20740  0.85780  0.45870  Biso   1.000  H
  H13      1.0000 0.21510  0.80490  0.49770  Biso   1.000  H
  H14      1.0000 0.59970  0.18120  0.74290  Biso   1.000  H
  H15      1.0000 0.62360  0.10510  0.86460  Biso   1.000  H
  H16      1.0000 0.34300  0.01790  0.64000  Biso   1.000  H
  H17      1.0000 0.28770  0.23000  0.26220  Biso   1.000  H
  H18      1.0000 0.29220  0.23160  0.06100  Biso   1.000  H
  H19      1.0000 0.90930  0.12860  0.06110  Biso   1.000  H
  H20      1.0000 0.91540  0.13020  0.26320  Biso   1.000  H
  H21      1.0000 0.17910  0.26100  0.88180  Biso   1.000  H
  H22      1.0000 0.16820  0.26210  0.67940  Biso   1.000  H
  H23      1.0000 0.99050  0.11210  0.67340  Biso   1.000  H
  H24      1.0000 0.99870  0.10690  0.87460  Biso   1.000  H
  H25      1.0000 0.79260  0.14220  0.45870  Biso   1.000  H
  H26      1.0000 0.78490  0.19510  0.49770  Biso   1.000  H
  H27      1.0000 0.90030  0.68120  0.25710  Biso   1.000  H
  H28      1.0000 0.87640  0.60510  0.13540  Biso   1.000  H
  H29      1.0000 0.15700  0.51790  0.36000  Biso   1.000  H
  H30      1.0000 0.21230  0.73000  0.73780  Biso   1.000  H
  H31      1.0000 0.20780  0.73160  0.93900  Biso   1.000  H
  H32      1.0000 0.59070  0.62860  0.93890  Biso   1.000  H
  H33      1.0000 0.58460  0.63020  0.73680  Biso   1.000  H
  H34      1.0000 0.32090  0.76100  0.11820  Biso   1.000  H
  H35      1.0000 0.33180  0.76210  0.32060  Biso   1.000  H
  H36      1.0000 0.50950  0.61210  0.32660  Biso   1.000  H
  H37      1.0000 0.50130  0.60690  0.12540  Biso   1.000  H
  H38      1.0000 0.70740  0.64220  0.54130  Biso   1.000  H
  H39      1.0000 0.71510  0.69510  0.50230  Biso   1.000  H
  H40      1.0000 0.09970  0.31880  0.25710  Biso   1.000  H
  H41      1.0000 0.12360  0.39490  0.13540  Biso   1.000  H
  H42      1.0000 0.84300  0.48210  0.36000  Biso   1.000  H
  H43      1.0000 0.78770  0.27000  0.73780  Biso   1.000  H
  H44      1.0000 0.79220  0.26840  0.93900  Biso   1.000  H
  H45      1.0000 0.40930  0.37140  0.93890  Biso   1.000  H
  H46      1.0000 0.41540  0.36980  0.73680  Biso   1.000  H
  H47      1.0000 0.67910  0.23900  0.11820  Biso   1.000  H
  H48      1.0000 0.66820  0.23790  0.32060  Biso   1.000  H
  H49      1.0000 0.49050  0.38790  0.32660  Biso   1.000  H
  H50      1.0000 0.49870  0.39310  0.12540  Biso   1.000  H
  H51      1.0000 0.29260  0.35780  0.54130  Biso   1.000  H
  H52      1.0000 0.28490  0.30490  0.50230  Biso   1.000  H
  C1       1.0000 0.61870  0.90300  0.58720  Biso   1.000  C
  C2       1.0000 0.54000  0.85384  0.61720  Biso   1.000  C
  C3       1.0000 0.45120  0.85178  0.72170  Biso   1.000  C
  C4       1.0000 0.43620  0.89729  0.79490  Biso   1.000  C
  C5       1.0000 0.51220  0.94724  0.76320  Biso   1.000  C
  C6       1.0000 0.60420  0.94932  0.66040  Biso   1.000  C
  C7       1.0000 0.71030  0.91100  0.47120  Biso   1.000  C
  C8       1.0000 0.54790  0.80254  0.54060  Biso   1.000  C
  C9       1.0000 0.65580  0.00010  0.91930  Biso   1.000  C
  C10      1.0000 0.79030  0.79042  0.22110  Biso   1.000  C
  C11      1.0000 0.78700  0.78903  0.10010  Biso   1.000  C
  C12      1.0000 0.90270  0.81871  0.03560  Biso   1.000  C
  C13      1.0000 0.01320  0.84990  0.09990  Biso   1.000  C
  C14      1.0000 0.00820  0.84890  0.22180  Biso   1.000  C
  C15      1.0000 0.90740  0.81691  0.90410  Biso   1.000  C
  C16      1.0000 0.85850  0.77011  0.84140  Biso   1.000  C
  C17      1.0000 0.86540  0.76965  0.71920  Biso   1.000  C
  C18      1.0000 0.96960  0.85780  0.71590  Biso   1.000  C
  C19      1.0000 0.96520  0.86104  0.83700  Biso   1.000  C
  C20      1.0000 0.38130  0.09700  0.58720  Biso   1.000  C
  C21      1.0000 0.46000  0.14616  0.61720  Biso   1.000  C
  C22      1.0000 0.54880  0.14822  0.72170  Biso   1.000  C
  C23      1.0000 0.56380  0.10271  0.79490  Biso   1.000  C
  C24      1.0000 0.48780  0.05276  0.76320  Biso   1.000  C
  C25      1.0000 0.39580  0.05068  0.66040  Biso   1.000  C
  C26      1.0000 0.28970  0.08900  0.47120  Biso   1.000  C
  C27      1.0000 0.45210  0.19746  0.54060  Biso   1.000  C
  C28      1.0000 0.34420  0.99990  0.91930  Biso   1.000  C
  C29      1.0000 0.20970  0.20958  0.22110  Biso   1.000  C
  C30      1.0000 0.21300  0.21097  0.10010  Biso   1.000  C
  C31      1.0000 0.09730  0.18129  0.03560  Biso   1.000  C
  C32      1.0000 0.98680  0.15010  0.09990  Biso   1.000  C
  C33      1.0000 0.99180  0.15110  0.22180  Biso   1.000  C
  C34      1.0000 0.09260  0.18309  0.90410  Biso   1.000  C
  C35      1.0000 0.14150  0.22989  0.84140  Biso   1.000  C
  C36      1.0000 0.13460  0.23035  0.71920  Biso   1.000  C
  C37      1.0000 0.03040  0.14220  0.71590  Biso   1.000  C
  C38      1.0000 0.03480  0.13896  0.83700  Biso   1.000  C
  C39      1.0000 0.11870  0.59700  0.41280  Biso   1.000  C
  C40      1.0000 0.04000  0.64616  0.38280  Biso   1.000  C
  C41      1.0000 0.95120  0.64822  0.27830  Biso   1.000  C
  C42      1.0000 0.93620  0.60271  0.20510  Biso   1.000  C
  C43      1.0000 0.01220  0.55276  0.23680  Biso   1.000  C
  C44      1.0000 0.10420  0.55068  0.33960  Biso   1.000  C
  C45      1.0000 0.21030  0.58900  0.52880  Biso   1.000  C
  C46      1.0000 0.04790  0.69746  0.45940  Biso   1.000  C
  C47      1.0000 0.15580  0.49990  0.08070  Biso   1.000  C
  C48      1.0000 0.29030  0.70958  0.77890  Biso   1.000  C
  C49      1.0000 0.28700  0.71097  0.89990  Biso   1.000  C
  C50      1.0000 0.40270  0.68129  0.96440  Biso   1.000  C
  C51      1.0000 0.51320  0.65010  0.90010  Biso   1.000  C
  C52      1.0000 0.50820  0.65110  0.77820  Biso   1.000  C
  C53      1.0000 0.40740  0.68309  0.09590  Biso   1.000  C
  C54      1.0000 0.35850  0.72989  0.15860  Biso   1.000  C
  C55      1.0000 0.36540  0.73035  0.28080  Biso   1.000  C
  C56      1.0000 0.46960  0.64220  0.28410  Biso   1.000  C
  C57      1.0000 0.46520  0.63896  0.16300  Biso   1.000  C
  C58      1.0000 0.88130  0.40300  0.41280  Biso   1.000  C
  C59      1.0000 0.96000  0.35384  0.38280  Biso   1.000  C
  C60      1.0000 0.04880  0.35178  0.27830  Biso   1.000  C
  C61      1.0000 0.06380  0.39729  0.20510  Biso   1.000  C
  C62      1.0000 0.98780  0.44724  0.23680  Biso   1.000  C
  C63      1.0000 0.89580  0.44932  0.33960  Biso   1.000  C
  C64      1.0000 0.78970  0.41100  0.52880  Biso   1.000  C
  C65      1.0000 0.95210  0.30254  0.45940  Biso   1.000  C
  C66      1.0000 0.84420  0.50010  0.08070  Biso   1.000  C
  C67      1.0000 0.70970  0.29042  0.77890  Biso   1.000  C
  C68      1.0000 0.71300  0.28903  0.89990  Biso   1.000  C
  C69      1.0000 0.59730  0.31871  0.96440  Biso   1.000  C
  C70      1.0000 0.48680  0.34990  0.90010  Biso   1.000  C
  C71      1.0000 0.49180  0.34890  0.77820  Biso   1.000  C
  C72      1.0000 0.59260  0.31691  0.09590  Biso   1.000  C
  C73      1.0000 0.64150  0.27011  0.15860  Biso   1.000  C
  C74      1.0000 0.63460  0.26965  0.28080  Biso   1.000  C
  C75      1.0000 0.53040  0.35780  0.28410  Biso   1.000  C
  C76      1.0000 0.53480  0.36104  0.16300  Biso   1.000  C
  C77      1.0000 0.50000  0.00000  0.84140  Biso   1.000  C
  C78      1.0000 0.00000  0.50000  0.15860  Biso   1.000  C
  N1       1.0000 0.89920  0.81938  0.28360  Biso   1.000  N
  N2       1.0000 0.91830  0.81271  0.65620  Biso   1.000  N
  N3       1.0000 0.10080  0.18062  0.28360  Biso   1.000  N
  N4       1.0000 0.08170  0.18729  0.65620  Biso   1.000  N
  N5       1.0000 0.39920  0.68062  0.71640  Biso   1.000  N
  N6       1.0000 0.41830  0.68729  0.34380  Biso   1.000  N
  N7       1.0000 0.60080  0.31938  0.71640  Biso   1.000  N
  N8       1.0000 0.58170  0.31271  0.34380  Biso   1.000  N
  O1       1.0000 0.63310  0.93072  0.38810  Biso   1.000  O
  O2       1.0000 0.86210  0.89922  0.47090  Biso   1.000  O
  O3       1.0000 0.66460  0.79484  0.47150  Biso   1.000  O
  O4       1.0000 0.42970  0.76938  0.55180  Biso   1.000  O
  O5       1.0000 0.15550  0.82891  0.46680  Biso   1.000  O
  O6       1.0000 0.36690  0.06928  0.38810  Biso   1.000  O
  O7       1.0000 0.13790  0.10078  0.47090  Biso   1.000  O
  O8       1.0000 0.33540  0.20516  0.47150  Biso   1.000  O
  O9       1.0000 0.57030  0.23062  0.55180  Biso   1.000  O
  O10      1.0000 0.84450  0.17109  0.46680  Biso   1.000  O
  O11      1.0000 0.13310  0.56928  0.61190  Biso   1.000  O
  O12      1.0000 0.36210  0.60078  0.52910  Biso   1.000  O
  O13      1.0000 0.16460  0.70516  0.52850  Biso   1.000  O
  O14      1.0000 0.92970  0.73062  0.44820  Biso   1.000  O
  O15      1.0000 0.65550  0.67109  0.53320  Biso   1.000  O
  O16      1.0000 0.86690  0.43072  0.61190  Biso   1.000  O
  O17      1.0000 0.63790  0.39922  0.52910  Biso   1.000  O
  O18      1.0000 0.83540  0.29484  0.52850  Biso   1.000  O
  O19      1.0000 0.07030  0.26938  0.44820  Biso   1.000  O
  O20      1.0000 0.34450  0.32891  0.53320  Biso   1.000  O
  F1       1.0000 0.67550  0.95036  0.97190  Biso   1.000  F
  F2       1.0000 0.78850  0.01029  0.85690  Biso   1.000  F
  F3       1.0000 0.64960  0.03729  0.00700  Biso   1.000  F
  F4       1.0000 0.32450  0.04964  0.97190  Biso   1.000  F
  F5       1.0000 0.21150  0.98971  0.85690  Biso   1.000  F
  F6       1.0000 0.35040  0.96271  0.00700  Biso   1.000  F
  F7       1.0000 0.17550  0.54964  0.02810  Biso   1.000  F
  F8       1.0000 0.28850  0.48971  0.14310  Biso   1.000  F
  F9       1.0000 0.14960  0.46271  0.99300  Biso   1.000  F
  F10      1.0000 0.82450  0.45036  0.02810  Biso   1.000  F
  F11      1.0000 0.71150  0.51029  0.14310  Biso   1.000  F
  F12      1.0000 0.85040  0.53729  0.99300  Biso   1.000  F
