data_KIYQIU_freeONLY
_audit_creation_date              2015-10-16
_audit_creation_method            'Materials Studio'
_symmetry_space_group_name_H-M    'P1'
_symmetry_Int_Tables_number       1
_symmetry_cell_setting            triclinic
loop_
_symmetry_equiv_pos_as_xyz
  x,y,z
_cell_length_a                    12.1800
_cell_length_b                    14.2107
_cell_length_c                    14.2834
_cell_angle_alpha                 105.0930
_cell_angle_beta                  90.0000
_cell_angle_gamma                 90.0000
loop_
_atom_site_label
_atom_site_type_symbol
_atom_site_fract_x
_atom_site_fract_y
_atom_site_fract_z
_atom_site_U_iso_or_equiv
_atom_site_adp_type
_atom_site_occupancy
Zn1    Zn    0.51550   0.84589   0.15791   0.01267  Uiso   1.00
Zn2    Zn    0.01550   0.65411   0.34209   0.01267  Uiso   1.00
Zn3    Zn    0.75810   0.43801   0.79909   0.01267  Uiso   1.00
Zn4    Zn    0.74190   0.93801   0.29909   0.01267  Uiso   1.00
Zn5    Zn    0.25810   0.06199   0.70091   0.01267  Uiso   1.00
Zn6    Zn    0.24190   0.56199   0.20091   0.01267  Uiso   1.00
Zn7    Zn    0.98450   0.34589   0.65791   0.01267  Uiso   1.00
Zn8    Zn    0.48450   0.15411   0.84209   0.01267  Uiso   1.00
H1     H     0.31950   0.36590   0.73430   0.01267  Uiso   1.00
H2     H     0.94840   0.74470   0.10740   0.01267  Uiso   1.00
H3     H     0.67620   0.54830   0.31570   0.01267  Uiso   1.00
H4     H     0.54580   0.86580   0.50340   0.01267  Uiso   1.00
H5     H     0.42840   0.60540   0.89950   0.01267  Uiso   1.00
H6     H     0.67390   0.61980   0.97820   0.01267  Uiso   1.00
H7     H     0.74600   0.53790   0.22130   0.01267  Uiso   1.00
H8     H     0.53040   0.40740   0.71850   0.01267  Uiso   1.00
H9     H     0.82610   0.11980   0.47820   0.01267  Uiso   1.00
H10    H     0.18050   0.86590   0.23430   0.01267  Uiso   1.00
H11    H     0.46960   0.59260   0.28150   0.01267  Uiso   1.00
H12    H     0.18370   0.05340   0.40640   0.01267  Uiso   1.00
H13    H     0.18700   0.82700   0.86740   0.01267  Uiso   1.00
H14    H     0.68050   0.63410   0.26570   0.01267  Uiso   1.00
H15    H     0.44840   0.75530   0.39260   0.01267  Uiso   1.00
H16    H     0.24600   0.96210   0.27870   0.01267  Uiso   1.00
H17    H     0.31590   0.22060   0.46660   0.01267  Uiso   1.00
H18    H     0.92840   0.89460   0.60050   0.01267  Uiso   1.00
H19    H     0.93640   0.53480   0.47880   0.01267  Uiso   1.00
H20    H     0.05160   0.25530   0.89260   0.01267  Uiso   1.00
H21    H     0.07660   0.01860   0.44830   0.01267  Uiso   1.00
H22    H     0.68410   0.77940   0.53340   0.01267  Uiso   1.00
H23    H     0.81630   0.94660   0.59360   0.01267  Uiso   1.00
H24    H     0.31630   0.55340   0.90640   0.01267  Uiso   1.00
H25    H     0.55160   0.24470   0.60740   0.01267  Uiso   1.00
H26    H     0.18410   0.72060   0.96660   0.01267  Uiso   1.00
H27    H     0.81590   0.27940   0.03340   0.01267  Uiso   1.00
H28    H     0.81300   0.17300   0.13260   0.01267  Uiso   1.00
H29    H     0.04580   0.63420   0.99660   0.01267  Uiso   1.00
H30    H     0.03040   0.09260   0.78150   0.01267  Uiso   1.00
H31    H     0.42340   0.51860   0.94830   0.01267  Uiso   1.00
H32    H     0.57660   0.48140   0.05170   0.01267  Uiso   1.00
H33    H     0.75400   0.03790   0.72130   0.01267  Uiso   1.00
H34    H     0.17620   0.95170   0.18430   0.01267  Uiso   1.00
H35    H     0.96960   0.90740   0.21850   0.01267  Uiso   1.00
H36    H     0.06360   0.46520   0.52120   0.01267  Uiso   1.00
H37    H     0.81950   0.13410   0.76570   0.01267  Uiso   1.00
H38    H     0.31300   0.32700   0.36740   0.01267  Uiso   1.00
H39    H     0.68370   0.44660   0.09360   0.01267  Uiso   1.00
H40    H     0.95420   0.36580   0.00340   0.01267  Uiso   1.00
H41    H     0.45420   0.13420   0.49660   0.01267  Uiso   1.00
H42    H     0.82380   0.04830   0.81570   0.01267  Uiso   1.00
H43    H     0.43640   0.96520   0.02120   0.01267  Uiso   1.00
H44    H     0.07160   0.10540   0.39950   0.01267  Uiso   1.00
H45    H     0.25400   0.46210   0.77870   0.01267  Uiso   1.00
H46    H     0.57160   0.39460   0.10050   0.01267  Uiso   1.00
H47    H     0.17390   0.88020   0.52180   0.01267  Uiso   1.00
H48    H     0.68700   0.67300   0.63260   0.01267  Uiso   1.00
H49    H     0.92340   0.98140   0.55170   0.01267  Uiso   1.00
H50    H     0.56360   0.03480   0.97880   0.01267  Uiso   1.00
H51    H     0.32380   0.45170   0.68430   0.01267  Uiso   1.00
H52    H     0.32610   0.38020   0.02180   0.01267  Uiso   1.00
C1     C     0.46960   0.86690   0.50750   0.01267  Uiso   1.00
C2     C     0.58720   0.19830   0.55880   0.01267  Uiso   1.00
C3     C     0.82350   0.52730   0.63340   0.01267  Uiso   1.00
C4     C     0.75000   0.12390   0.48100   0.01267  Uiso   1.00
C5     C     0.03040   0.36690   0.00750   0.01267  Uiso   1.00
C6     C     0.07780   0.43410   0.07970   0.01267  Uiso   1.00
C7     C     0.75000   0.62390   0.98100   0.01267  Uiso   1.00
C8     C     0.98390   0.95260   0.27720   0.01267  Uiso   1.00
C9     C     0.68510   0.09430   0.06990   0.01267  Uiso   1.00
C10    C     0.76470   0.22920   0.02350   0.01267  Uiso   1.00
C11    C     0.61400   0.08570   0.99130   0.01267  Uiso   1.00
C12    C     0.89410   0.95590   0.60250   0.01267  Uiso   1.00
C13    C     0.42220   0.93410   0.57970   0.01267  Uiso   1.00
C14    C     0.73530   0.72920   0.52350   0.01267  Uiso   1.00
C15    C     0.73830   0.66610   0.58300   0.01267  Uiso   1.00
C16    C     0.32350   0.97270   0.86660   0.01267  Uiso   1.00
C17    C     0.17650   0.47270   0.36660   0.01267  Uiso   1.00
C18    C     0.70100   0.19490   0.55320   0.01267  Uiso   1.00
C19    C     0.25000   0.37610   0.01900   0.01267  Uiso   1.00
C20    C     0.23350   0.73180   0.37570   0.01267  Uiso   1.00
C21    C     0.31490   0.90570   0.93010   0.01267  Uiso   1.00
C22    C     0.23830   0.83390   0.91700   0.01267  Uiso   1.00
C23    C     0.01610   0.04740   0.72280   0.01267  Uiso   1.00
C24    C     0.41280   0.80170   0.44120   0.01267  Uiso   1.00
C25    C     0.51330   0.99100   0.34310   0.01267  Uiso   1.00
C26    C     0.26650   0.23180   0.87570   0.01267  Uiso   1.00
C27    C     0.76650   0.26820   0.62430   0.01267  Uiso   1.00
C28    C     0.67960   0.27960   0.88310   0.01267  Uiso   1.00
C29    C     0.26170   0.33390   0.41700   0.01267  Uiso   1.00
C30    C     0.68990   0.21490   0.94980   0.01267  Uiso   1.00
C31    C     0.20100   0.30510   0.94680   0.01267  Uiso   1.00
C32    C     0.60590   0.45590   0.10250   0.01267  Uiso   1.00
C33    C     0.57780   0.06590   0.42030   0.01267  Uiso   1.00
C34    C     0.31010   0.78510   0.05020   0.01267  Uiso   1.00
C35    C     0.98670   0.49100   0.84310   0.01267  Uiso   1.00
C36    C     0.81490   0.59430   0.56990   0.01267  Uiso   1.00
C37    C     0.39410   0.54410   0.89750   0.01267  Uiso   1.00
C38    C     0.18010   0.93540   0.24530   0.01267  Uiso   1.00
C39    C     0.10590   0.04410   0.39750   0.01267  Uiso   1.00
C40    C     0.17960   0.22040   0.61690   0.01267  Uiso   1.00
C41    C     0.73350   0.76820   0.12430   0.01267  Uiso   1.00
C42    C     0.51610   0.45260   0.77720   0.01267  Uiso   1.00
C43    C     0.81010   0.71490   0.44980   0.01267  Uiso   1.00
C44    C     0.79900   0.69490   0.05320   0.01267  Uiso   1.00
C45    C     0.91280   0.69830   0.05880   0.01267  Uiso   1.00
C46    C     0.29900   0.80510   0.44680   0.01267  Uiso   1.00
C47    C     0.88600   0.58570   0.49130   0.01267  Uiso   1.00
C48    C     0.08720   0.30170   0.94120   0.01267  Uiso   1.00
C49    C     0.96960   0.63310   0.99250   0.01267  Uiso   1.00
C50    C     0.23530   0.77080   0.97650   0.01267  Uiso   1.00
C51    C     0.82040   0.77960   0.38310   0.01267  Uiso   1.00
C52    C     0.68010   0.56460   0.25470   0.01267  Uiso   1.00
C53    C     0.48670   0.00900   0.65690   0.01267  Uiso   1.00
C54    C     0.01330   0.50900   0.15690   0.01267  Uiso   1.00
C55    C     0.11400   0.41430   0.50870   0.01267  Uiso   1.00
C56    C     0.53040   0.13310   0.49250   0.01267  Uiso   1.00
C57    C     0.81990   0.06460   0.75470   0.01267  Uiso   1.00
C58    C     0.18510   0.40570   0.43010   0.01267  Uiso   1.00
C59    C     0.32040   0.72040   0.11690   0.01267  Uiso   1.00
C60    C     0.76170   0.16610   0.08300   0.01267  Uiso   1.00
C61    C     0.38600   0.91430   0.00870   0.01267  Uiso   1.00
C62    C     0.18990   0.28510   0.55020   0.01267  Uiso   1.00
C63    C     0.31990   0.43540   0.74530   0.01267  Uiso   1.00
C64    C     0.26470   0.27080   0.47650   0.01267  Uiso   1.00
C65    C     0.48390   0.54740   0.22280   0.01267  Uiso   1.00
C66    C     0.92220   0.56590   0.92030   0.01267  Uiso   1.00
C67    C     0.25000   0.87610   0.51900   0.01267  Uiso   1.00
C68    C     0.67650   0.02730   0.13340   0.01267  Uiso   1.00
N1     N     0.68830   0.05870   0.41290   0.01267  Uiso   1.00
N2     N     0.41530   0.47590   0.80430   0.01267  Uiso   1.00
N3     N     0.18830   0.44130   0.08710   0.01267  Uiso   1.00
N4     N     0.88680   0.64310   0.43480   0.01267  Uiso   1.00
N5     N     0.58470   0.52410   0.19570   0.01267  Uiso   1.00
N6     N     0.91530   0.02410   0.69570   0.01267  Uiso   1.00
N7     N     0.08470   0.97590   0.30430   0.01267  Uiso   1.00
N8     N     0.38680   0.85690   0.06520   0.01267  Uiso   1.00
N9     N     0.11320   0.35690   0.56520   0.01267  Uiso   1.00
N10    N     0.61320   0.14310   0.93480   0.01267  Uiso   1.00
N11    N     0.31170   0.94130   0.58710   0.01267  Uiso   1.00
N12    N     0.81170   0.55870   0.91290   0.01267  Uiso   1.00
O1     O     0.25360   0.65650   0.11630   0.01267  Uiso   1.00
O2     O     0.60250   0.96380   0.10620   0.01267  Uiso   1.00
O3     O     0.09630   0.23690   0.67220   0.01267  Uiso   1.00
O4     O     0.26690   0.96510   0.79430   0.01267  Uiso   1.00
O5     O     0.40670   0.50840   0.16910   0.01267  Uiso   1.00
O6     O     0.27770   0.66470   0.31380   0.01267  Uiso   1.00
O7     O     0.22230   0.16470   0.81380   0.01267  Uiso   1.00
O8     O     0.59330   0.49160   0.83090   0.01267  Uiso   1.00
O9     O     0.89750   0.46380   0.60620   0.01267  Uiso   1.00
O10    O     0.74640   0.34350   0.88370   0.01267  Uiso   1.00
O11    O     0.73310   0.03490   0.20570   0.01267  Uiso   1.00
O12    O     0.41480   0.00200   0.32300   0.01267  Uiso   1.00
O13    O     0.40370   0.73690   0.17220   0.01267  Uiso   1.00
O14    O     0.39750   0.03620   0.89380   0.01267  Uiso   1.00
O15    O     0.07050   0.58170   0.19940   0.01267  Uiso   1.00
O16    O     0.76690   0.53490   0.70570   0.01267  Uiso   1.00
O17    O     0.12940   0.74560   0.38160   0.01267  Uiso   1.00
O18    O     0.90670   0.99160   0.33090   0.01267  Uiso   1.00
O19    O     0.58520   0.99800   0.67700   0.01267  Uiso   1.00
O20    O     0.90370   0.76310   0.32780   0.01267  Uiso   1.00
O21    O     0.42950   0.08170   0.69940   0.01267  Uiso   1.00
O22    O     0.91480   0.49800   0.17700   0.01267  Uiso   1.00
O23    O     0.72230   0.33530   0.68620   0.01267  Uiso   1.00
O24    O     0.77770   0.83530   0.18620   0.01267  Uiso   1.00
O25    O     0.09330   0.00840   0.66910   0.01267  Uiso   1.00
O26    O     0.92950   0.41830   0.80060   0.01267  Uiso   1.00
O27    O     0.62940   0.75440   0.11840   0.01267  Uiso   1.00
O28    O     0.08520   0.50200   0.82300   0.01267  Uiso   1.00
O29    O     0.37060   0.24560   0.88160   0.01267  Uiso   1.00
O30    O     0.10250   0.53620   0.39380   0.01267  Uiso   1.00
O31    O     0.57050   0.91830   0.30060   0.01267  Uiso   1.00
O32    O     0.59630   0.26310   0.82780   0.01267  Uiso   1.00
O33    O     0.75360   0.84350   0.38370   0.01267  Uiso   1.00
O34    O     0.87060   0.25440   0.61840   0.01267  Uiso   1.00
O35    O     0.24640   0.15650   0.61630   0.01267  Uiso   1.00
O36    O     0.23310   0.46510   0.29430   0.01267  Uiso   1.00
