data_image0
_cell_length_a       7.868
_cell_length_b       11.132
_cell_length_c       22.3
_cell_angle_alpha    90
_cell_angle_beta     90
_cell_angle_gamma    99.158

_symmetry_space_group_name_H-M    P 1
_symmetry_int_tables_number       1

loop_
  _symmetry_equiv_pos_as_xyz
  'x, y, z'

loop_
  _atom_site_label
  _atom_site_occupancy
  _atom_site_fract_x
  _atom_site_fract_y
  _atom_site_fract_z
  _atom_site_thermal_displace_type
  _atom_site_B_iso_or_equiv
  _atom_site_type_symbol
  Ce1      1.0000 0.37958  0.72337  0.72064  Biso   1.000  Ce
  Ce2      1.0000 0.12042  0.27663  0.22064  Biso   1.000  Ce
  Ce3      1.0000 0.62042  0.27663  0.27936  Biso   1.000  Ce
  Ce4      1.0000 0.87958  0.72337  0.77936  Biso   1.000  Ce
  H1       1.0000 0.23670  0.19920  0.69200  Biso   1.000  H
  H2       1.0000 0.26210  0.11500  0.63740  Biso   1.000  H
  H3       1.0000 0.99370  0.99120  0.67610  Biso   1.000  H
  H4       1.0000 0.04830  0.05870  0.73630  Biso   1.000  H
  H5       1.0000 0.78360  0.21730  0.46180  Biso   1.000  H
  H6       1.0000 0.91040  0.12200  0.46530  Biso   1.000  H
  H7       1.0000 0.03570  0.37300  0.45120  Biso   1.000  H
  H8       1.0000 0.14300  0.26690  0.44220  Biso   1.000  H
  H9       1.0000 0.88200  0.48130  0.68640  Biso   1.000  H
  H10      1.0000 0.80100  0.51070  0.62500  Biso   1.000  H
  H11      1.0000 0.57460  0.36400  0.64660  Biso   1.000  H
  H12      1.0000 0.65350  0.35530  0.71060  Biso   1.000  H
  H13      1.0000 0.26330  0.80080  0.19200  Biso   1.000  H
  H14      1.0000 0.23790  0.88500  0.13740  Biso   1.000  H
  H15      1.0000 0.50630  0.00880  0.17610  Biso   1.000  H
  H16      1.0000 0.45170  0.94130  0.23630  Biso   1.000  H
  H17      1.0000 0.71640  0.78270  0.96180  Biso   1.000  H
  H18      1.0000 0.58960  0.87800  0.96530  Biso   1.000  H
  H19      1.0000 0.46430  0.62700  0.95120  Biso   1.000  H
  H20      1.0000 0.35700  0.73310  0.94220  Biso   1.000  H
  H21      1.0000 0.61800  0.51870  0.18640  Biso   1.000  H
  H22      1.0000 0.69900  0.48930  0.12500  Biso   1.000  H
  H23      1.0000 0.92540  0.63600  0.14660  Biso   1.000  H
  H24      1.0000 0.84650  0.64470  0.21060  Biso   1.000  H
  H25      1.0000 0.76330  0.80080  0.30800  Biso   1.000  H
  H26      1.0000 0.73790  0.88500  0.36260  Biso   1.000  H
  H27      1.0000 0.00630  0.00880  0.32390  Biso   1.000  H
  H28      1.0000 0.95170  0.94130  0.26370  Biso   1.000  H
  H29      1.0000 0.21640  0.78270  0.53820  Biso   1.000  H
  H30      1.0000 0.08960  0.87800  0.53470  Biso   1.000  H
  H31      1.0000 0.96430  0.62700  0.54880  Biso   1.000  H
  H32      1.0000 0.85700  0.73310  0.55780  Biso   1.000  H
  H33      1.0000 0.11800  0.51870  0.31360  Biso   1.000  H
  H34      1.0000 0.19900  0.48930  0.37500  Biso   1.000  H
  H35      1.0000 0.42540  0.63600  0.35340  Biso   1.000  H
  H36      1.0000 0.34650  0.64470  0.28940  Biso   1.000  H
  H37      1.0000 0.73670  0.19920  0.80800  Biso   1.000  H
  H38      1.0000 0.76210  0.11500  0.86260  Biso   1.000  H
  H39      1.0000 0.49370  0.99120  0.82390  Biso   1.000  H
  H40      1.0000 0.54830  0.05870  0.76370  Biso   1.000  H
  H41      1.0000 0.28360  0.21730  0.03820  Biso   1.000  H
  H42      1.0000 0.41040  0.12200  0.03470  Biso   1.000  H
  H43      1.0000 0.53570  0.37300  0.04880  Biso   1.000  H
  H44      1.0000 0.64300  0.26690  0.05780  Biso   1.000  H
  H45      1.0000 0.38200  0.48130  0.81360  Biso   1.000  H
  H46      1.0000 0.30100  0.51070  0.87500  Biso   1.000  H
  H47      1.0000 0.07460  0.36400  0.85340  Biso   1.000  H
  H48      1.0000 0.15350  0.35530  0.78940  Biso   1.000  H
  C1       1.0000 0.03640  0.17230  0.56890  Biso   1.000  C
  C2       1.0000 0.84270  0.31810  0.56380  Biso   1.000  C
  C3       1.0000 0.95700  0.26740  0.65980  Biso   1.000  C
  C4       1.0000 0.17710  0.13970  0.66430  Biso   1.000  C
  C5       1.0000 0.09170  0.03090  0.69890  Biso   1.000  C
  C6       1.0000 0.20660  0.93900  0.71290  Biso   1.000  C
  C7       1.0000 0.89860  0.20590  0.47360  Biso   1.000  C
  C8       1.0000 0.03020  0.29020  0.43690  Biso   1.000  C
  C9       1.0000 0.98360  0.28450  0.37110  Biso   1.000  C
  C10      1.0000 0.80630  0.44700  0.65430  Biso   1.000  C
  C11      1.0000 0.64400  0.41010  0.67730  Biso   1.000  C
  C12      1.0000 0.55090  0.50970  0.69880  Biso   1.000  C
  C13      1.0000 0.46360  0.82770  0.06890  Biso   1.000  C
  C14      1.0000 0.65730  0.68190  0.06380  Biso   1.000  C
  C15      1.0000 0.54300  0.73260  0.15980  Biso   1.000  C
  C16      1.0000 0.32290  0.86030  0.16430  Biso   1.000  C
  C17      1.0000 0.40830  0.96910  0.19890  Biso   1.000  C
  C18      1.0000 0.29340  0.06100  0.21290  Biso   1.000  C
  C19      1.0000 0.60140  0.79410  0.97360  Biso   1.000  C
  C20      1.0000 0.46980  0.70980  0.93690  Biso   1.000  C
  C21      1.0000 0.51640  0.71550  0.87110  Biso   1.000  C
  C22      1.0000 0.69370  0.55300  0.15430  Biso   1.000  C
  C23      1.0000 0.85600  0.58990  0.17730  Biso   1.000  C
  C24      1.0000 0.94910  0.49030  0.19880  Biso   1.000  C
  C25      1.0000 0.96360  0.82770  0.43110  Biso   1.000  C
  C26      1.0000 0.15730  0.68190  0.43620  Biso   1.000  C
  C27      1.0000 0.04300  0.73260  0.34020  Biso   1.000  C
  C28      1.0000 0.82290  0.86030  0.33570  Biso   1.000  C
  C29      1.0000 0.90830  0.96910  0.30110  Biso   1.000  C
  C30      1.0000 0.79340  0.06100  0.28710  Biso   1.000  C
  C31      1.0000 0.10140  0.79410  0.52640  Biso   1.000  C
  C32      1.0000 0.96980  0.70980  0.56310  Biso   1.000  C
  C33      1.0000 0.01640  0.71550  0.62890  Biso   1.000  C
  C34      1.0000 0.19370  0.55300  0.34570  Biso   1.000  C
  C35      1.0000 0.35600  0.58990  0.32270  Biso   1.000  C
  C36      1.0000 0.44910  0.49030  0.30120  Biso   1.000  C
  C37      1.0000 0.53640  0.17230  0.93110  Biso   1.000  C
  C38      1.0000 0.34270  0.31810  0.93620  Biso   1.000  C
  C39      1.0000 0.45700  0.26740  0.84020  Biso   1.000  C
  C40      1.0000 0.67710  0.13970  0.83570  Biso   1.000  C
  C41      1.0000 0.59170  0.03090  0.80110  Biso   1.000  C
  C42      1.0000 0.70660  0.93900  0.78710  Biso   1.000  C
  C43      1.0000 0.39860  0.20590  0.02640  Biso   1.000  C
  C44      1.0000 0.53020  0.29020  0.06310  Biso   1.000  C
  C45      1.0000 0.48360  0.28450  0.12890  Biso   1.000  C
  C46      1.0000 0.30630  0.44700  0.84570  Biso   1.000  C
  C47      1.0000 0.14400  0.41010  0.82270  Biso   1.000  C
  C48      1.0000 0.05090  0.50970  0.80120  Biso   1.000  C
  N1       1.0000 0.05330  0.19590  0.62950  Biso   1.000  N
  N2       1.0000 0.92120  0.22950  0.53830  Biso   1.000  N
  N3       1.0000 0.88160  0.34540  0.62500  Biso   1.000  N
  N4       1.0000 0.44670  0.80410  0.12950  Biso   1.000  N
  N5       1.0000 0.57880  0.77050  0.03830  Biso   1.000  N
  N6       1.0000 0.61840  0.65460  0.12500  Biso   1.000  N
  N7       1.0000 0.94670  0.80410  0.37050  Biso   1.000  N
  N8       1.0000 0.07880  0.77050  0.46170  Biso   1.000  N
  N9       1.0000 0.11840  0.65460  0.37500  Biso   1.000  N
  N10      1.0000 0.55330  0.19590  0.87050  Biso   1.000  N
  N11      1.0000 0.42120  0.22950  0.96170  Biso   1.000  N
  N12      1.0000 0.38160  0.34540  0.87500  Biso   1.000  N
  O1       1.0000 0.76150  0.38050  0.53400  Biso   1.000  O
  O2       1.0000 0.96000  0.27660  0.71380  Biso   1.000  O
  O3       1.0000 0.11950  0.10500  0.54350  Biso   1.000  O
  O4       1.0000 0.34530  0.93940  0.68550  Biso   1.000  O
  O5       1.0000 0.15510  0.85670  0.75210  Biso   1.000  O
  O6       1.0000 0.09920  0.26660  0.33434  Biso   1.000  O
  O7       1.0000 0.83420  0.30140  0.35750  Biso   1.000  O
  O8       1.0000 0.62270  0.59350  0.73390  Biso   1.000  O
  O9       1.0000 0.40130  0.50890  0.68210  Biso   1.000  O
  O10      1.0000 0.56990  0.75530  0.62890  Biso   1.000  O
  O11      1.0000 0.73850  0.61950  0.03400  Biso   1.000  O
  O12      1.0000 0.54000  0.72340  0.21380  Biso   1.000  O
  O13      1.0000 0.38050  0.89500  0.04350  Biso   1.000  O
  O14      1.0000 0.15470  0.06060  0.18550  Biso   1.000  O
  O15      1.0000 0.34490  0.14330  0.25210  Biso   1.000  O
  O16      1.0000 0.40080  0.73340  0.83434  Biso   1.000  O
  O17      1.0000 0.66580  0.69860  0.85750  Biso   1.000  O
  O18      1.0000 0.87730  0.40650  0.23390  Biso   1.000  O
  O19      1.0000 0.09870  0.49110  0.18210  Biso   1.000  O
  O20      1.0000 0.93010  0.24470  0.12890  Biso   1.000  O
  O21      1.0000 0.23850  0.61950  0.46600  Biso   1.000  O
  O22      1.0000 0.04000  0.72340  0.28620  Biso   1.000  O
  O23      1.0000 0.88050  0.89500  0.45650  Biso   1.000  O
  O24      1.0000 0.65470  0.06060  0.31450  Biso   1.000  O
  O25      1.0000 0.84490  0.14330  0.24790  Biso   1.000  O
  O26      1.0000 0.90080  0.73340  0.66566  Biso   1.000  O
  O27      1.0000 0.16580  0.69860  0.64250  Biso   1.000  O
  O28      1.0000 0.37730  0.40650  0.26610  Biso   1.000  O
  O29      1.0000 0.59870  0.49110  0.31790  Biso   1.000  O
  O30      1.0000 0.43010  0.24470  0.37110  Biso   1.000  O
  O31      1.0000 0.26150  0.38050  0.96600  Biso   1.000  O
  O32      1.0000 0.46000  0.27660  0.78620  Biso   1.000  O
  O33      1.0000 0.61950  0.10500  0.95650  Biso   1.000  O
  O34      1.0000 0.84530  0.93940  0.81450  Biso   1.000  O
  O35      1.0000 0.65510  0.85670  0.74790  Biso   1.000  O
  O36      1.0000 0.59920  0.26660  0.16566  Biso   1.000  O
  O37      1.0000 0.33420  0.30140  0.14250  Biso   1.000  O
  O38      1.0000 0.12270  0.59350  0.76610  Biso   1.000  O
  O39      1.0000 0.90130  0.50890  0.81790  Biso   1.000  O
  O40      1.0000 0.06990  0.75530  0.87110  Biso   1.000  O
