data_image0
_cell_length_a       12.6261
_cell_length_b       12.6261
_cell_length_c       42.559
_cell_angle_alpha    90
_cell_angle_beta     90
_cell_angle_gamma    90

_symmetry_space_group_name_H-M    P 1
_symmetry_int_tables_number       1

loop_
  _symmetry_equiv_pos_as_xyz
  'x, y, z'

loop_
  _atom_site_label
  _atom_site_occupancy
  _atom_site_fract_x
  _atom_site_fract_y
  _atom_site_fract_z
  _atom_site_thermal_displace_type
  _atom_site_B_iso_or_equiv
  _atom_site_type_symbol
  Mn1      1.0000 0.25253  0.70921  0.88890  Biso   1.000  Mn
  Mn2      1.0000 0.15222  0.92006  0.83109  Biso   1.000  Mn
  Mn3      1.0000 0.34781  0.42013  0.91896  Biso   1.000  Mn
  Mn4      1.0000 0.24756  0.20932  0.86101  Biso   1.000  Mn
  Mn5      1.0000 0.74747  0.29079  0.38890  Biso   1.000  Mn
  Mn6      1.0000 0.84778  0.07994  0.33109  Biso   1.000  Mn
  Mn7      1.0000 0.65219  0.57987  0.41896  Biso   1.000  Mn
  Mn8      1.0000 0.75244  0.79068  0.36101  Biso   1.000  Mn
  Mn9      1.0000 0.70921  0.25253  0.61110  Biso   1.000  Mn
  Mn10     1.0000 0.92006  0.15222  0.66891  Biso   1.000  Mn
  Mn11     1.0000 0.42013  0.34781  0.58104  Biso   1.000  Mn
  Mn12     1.0000 0.20932  0.24756  0.63899  Biso   1.000  Mn
  Mn13     1.0000 0.29079  0.74747  0.11110  Biso   1.000  Mn
  Mn14     1.0000 0.07994  0.84778  0.16891  Biso   1.000  Mn
  Mn15     1.0000 0.57987  0.65219  0.08104  Biso   1.000  Mn
  Mn16     1.0000 0.79068  0.75244  0.13899  Biso   1.000  Mn
  H1       1.0000 0.57040  0.80300  0.88110  Biso   1.000  H
  H2       1.0000 0.92770  0.30510  0.86640  Biso   1.000  H
  H3       1.0000 0.82800  0.54780  0.89290  Biso   1.000  H
  H4       1.0000 0.74400  0.84120  0.87000  Biso   1.000  H
  H5       1.0000 0.65520  0.50800  0.90540  Biso   1.000  H
  H6       1.0000 0.01540  0.24640  0.76090  Biso   1.000  H
  H7       1.0000 0.43590  0.80830  0.94080  Biso   1.000  H
  H8       1.0000 0.26660  0.92640  0.02970  Biso   1.000  H
  H9       1.0000 0.84620  0.00620  0.84580  Biso   1.000  H
  H10      1.0000 0.22720  0.99920  0.98070  Biso   1.000  H
  H11      1.0000 0.67100  0.04800  0.85550  Biso   1.000  H
  H12      1.0000 0.06330  0.30970  0.80870  Biso   1.000  H
  H13      1.0000 0.48110  0.74390  0.98990  Biso   1.000  H
  H14      1.0000 0.27800  0.49560  0.76880  Biso   1.000  H
  H15      1.0000 0.23690  0.42390  0.72150  Biso   1.000  H
  H16      1.0000 0.75640  0.34300  0.87930  Biso   1.000  H
  H17      1.0000 0.03770  0.87710  0.78100  Biso   1.000  H
  H18      1.0000 0.42880  0.48200  0.98400  Biso   1.000  H
  H19      1.0000 0.41150  0.19130  0.94690  Biso   1.000  H
  H20      1.0000 0.44930  0.11670  0.99510  Biso   1.000  H
  H21      1.0000 0.46770  0.41190  0.03270  Biso   1.000  H
  H22      1.0000 0.48070  0.22190  0.04230  Biso   1.000  H
  H23      1.0000 0.42960  0.19700  0.38110  Biso   1.000  H
  H24      1.0000 0.07230  0.69490  0.36640  Biso   1.000  H
  H25      1.0000 0.17200  0.45220  0.39290  Biso   1.000  H
  H26      1.0000 0.25600  0.15880  0.37000  Biso   1.000  H
  H27      1.0000 0.34480  0.49200  0.40540  Biso   1.000  H
  H28      1.0000 0.98460  0.75360  0.26090  Biso   1.000  H
  H29      1.0000 0.56410  0.19170  0.44080  Biso   1.000  H
  H30      1.0000 0.73340  0.07360  0.52970  Biso   1.000  H
  H31      1.0000 0.15380  0.99380  0.34580  Biso   1.000  H
  H32      1.0000 0.77280  0.00080  0.48070  Biso   1.000  H
  H33      1.0000 0.32900  0.95200  0.35550  Biso   1.000  H
  H34      1.0000 0.93670  0.69030  0.30870  Biso   1.000  H
  H35      1.0000 0.51890  0.25610  0.48990  Biso   1.000  H
  H36      1.0000 0.72200  0.50440  0.26880  Biso   1.000  H
  H37      1.0000 0.76310  0.57610  0.22150  Biso   1.000  H
  H38      1.0000 0.24360  0.65700  0.37930  Biso   1.000  H
  H39      1.0000 0.96230  0.12290  0.28100  Biso   1.000  H
  H40      1.0000 0.57120  0.51800  0.48400  Biso   1.000  H
  H41      1.0000 0.58850  0.80870  0.44690  Biso   1.000  H
  H42      1.0000 0.55070  0.88330  0.49510  Biso   1.000  H
  H43      1.0000 0.53230  0.58810  0.53270  Biso   1.000  H
  H44      1.0000 0.51930  0.77810  0.54230  Biso   1.000  H
  H45      1.0000 0.80300  0.57040  0.61890  Biso   1.000  H
  H46      1.0000 0.30510  0.92770  0.63360  Biso   1.000  H
  H47      1.0000 0.54780  0.82800  0.60710  Biso   1.000  H
  H48      1.0000 0.84120  0.74400  0.63000  Biso   1.000  H
  H49      1.0000 0.50800  0.65520  0.59460  Biso   1.000  H
  H50      1.0000 0.24640  0.01540  0.73910  Biso   1.000  H
  H51      1.0000 0.80830  0.43590  0.55920  Biso   1.000  H
  H52      1.0000 0.92640  0.26660  0.47030  Biso   1.000  H
  H53      1.0000 0.00620  0.84620  0.65420  Biso   1.000  H
  H54      1.0000 0.99920  0.22720  0.51930  Biso   1.000  H
  H55      1.0000 0.04800  0.67100  0.64450  Biso   1.000  H
  H56      1.0000 0.30970  0.06330  0.69130  Biso   1.000  H
  H57      1.0000 0.74390  0.48110  0.51010  Biso   1.000  H
  H58      1.0000 0.49560  0.27800  0.73120  Biso   1.000  H
  H59      1.0000 0.42390  0.23690  0.77850  Biso   1.000  H
  H60      1.0000 0.34300  0.75640  0.62070  Biso   1.000  H
  H61      1.0000 0.87710  0.03770  0.71900  Biso   1.000  H
  H62      1.0000 0.48200  0.42880  0.51600  Biso   1.000  H
  H63      1.0000 0.19130  0.41150  0.55310  Biso   1.000  H
  H64      1.0000 0.11670  0.44930  0.50490  Biso   1.000  H
  H65      1.0000 0.41190  0.46770  0.46730  Biso   1.000  H
  H66      1.0000 0.22190  0.48070  0.45770  Biso   1.000  H
  H67      1.0000 0.19700  0.42960  0.11890  Biso   1.000  H
  H68      1.0000 0.69490  0.07230  0.13360  Biso   1.000  H
  H69      1.0000 0.45220  0.17200  0.10710  Biso   1.000  H
  H70      1.0000 0.15880  0.25600  0.13000  Biso   1.000  H
  H71      1.0000 0.49200  0.34480  0.09460  Biso   1.000  H
  H72      1.0000 0.75360  0.98460  0.23910  Biso   1.000  H
  H73      1.0000 0.19170  0.56410  0.05920  Biso   1.000  H
  H74      1.0000 0.07360  0.73340  0.97030  Biso   1.000  H
  H75      1.0000 0.99380  0.15380  0.15420  Biso   1.000  H
  H76      1.0000 0.00080  0.77280  0.01930  Biso   1.000  H
  H77      1.0000 0.95200  0.32900  0.14450  Biso   1.000  H
  H78      1.0000 0.69030  0.93670  0.19130  Biso   1.000  H
  H79      1.0000 0.25610  0.51890  0.01010  Biso   1.000  H
  H80      1.0000 0.50440  0.72200  0.23120  Biso   1.000  H
  H81      1.0000 0.57610  0.76310  0.27850  Biso   1.000  H
  H82      1.0000 0.65700  0.24360  0.12070  Biso   1.000  H
  H83      1.0000 0.12290  0.96230  0.21900  Biso   1.000  H
  H84      1.0000 0.51800  0.57120  0.01600  Biso   1.000  H
  H85      1.0000 0.80870  0.58850  0.05310  Biso   1.000  H
  H86      1.0000 0.88330  0.55070  0.00490  Biso   1.000  H
  H87      1.0000 0.58810  0.53230  0.96730  Biso   1.000  H
  H88      1.0000 0.77810  0.51930  0.95770  Biso   1.000  H
  C1       1.0000 0.01810  0.12510  0.84950  Biso   1.000  C
  C2       1.0000 0.48030  0.62530  0.90029  Biso   1.000  C
  C3       1.0000 0.62250  0.75170  0.88380  Biso   1.000  C
  C4       1.0000 0.90570  0.14970  0.85540  Biso   1.000  C
  C5       1.0000 0.59550  0.65010  0.89460  Biso   1.000  C
  C6       1.0000 0.87640  0.25260  0.86490  Biso   1.000  C
  C7       1.0000 0.77650  0.60010  0.89110  Biso   1.000  C
  C8       1.0000 0.72640  0.77420  0.87740  Biso   1.000  C
  C9       1.0000 0.67260  0.57540  0.89820  Biso   1.000  C
  C10      1.0000 0.08980  0.28780  0.70345  Biso   1.000  C
  C11      1.0000 0.20760  0.44660  0.82564  Biso   1.000  C
  C12      1.0000 0.12080  0.32980  0.73580  Biso   1.000  C
  C13      1.0000 0.29230  0.94610  0.92448  Biso   1.000  C
  C14      1.0000 0.06990  0.29570  0.76250  Biso   1.000  C
  C15      1.0000 0.91520  0.72720  0.87520  Biso   1.000  C
  C16      1.0000 0.38030  0.83130  0.01417  Biso   1.000  C
  C17      1.0000 0.32280  0.90520  0.95536  Biso   1.000  C
  C18      1.0000 0.58500  0.22880  0.87340  Biso   1.000  C
  C19      1.0000 0.17760  0.40440  0.79398  Biso   1.000  C
  C20      1.0000 0.69310  0.19890  0.86800  Biso   1.000  C
  C21      1.0000 0.40060  0.83300  0.95850  Biso   1.000  C
  C22      1.0000 0.80600  0.69980  0.88160  Biso   1.000  C
  C23      1.0000 0.30260  0.90360  0.01190  Biso   1.000  C
  C24      1.0000 0.82820  0.07440  0.85210  Biso   1.000  C
  C25      1.0000 0.27650  0.94470  0.98230  Biso   1.000  C
  C26      1.0000 0.72260  0.09960  0.85820  Biso   1.000  C
  C27      1.0000 0.09870  0.33330  0.79090  Biso   1.000  C
  C28      1.0000 0.42840  0.79500  0.98815  Biso   1.000  C
  C29      1.0000 0.41050  0.78870  0.04617  Biso   1.000  C
  C30      1.0000 0.22700  0.44260  0.76730  Biso   1.000  C
  C31      1.0000 0.20000  0.40200  0.73930  Biso   1.000  C
  C32      1.0000 0.77380  0.27600  0.87190  Biso   1.000  C
  C33      1.0000 0.43320  0.40900  0.98650  Biso   1.000  C
  C34      1.0000 0.42260  0.23440  0.96430  Biso   1.000  C
  C35      1.0000 0.44590  0.19010  0.99370  Biso   1.000  C
  C36      1.0000 0.45670  0.36530  0.01610  Biso   1.000  C
  C37      1.0000 0.46530  0.25110  0.02270  Biso   1.000  C
  C38      1.0000 0.98190  0.87490  0.34950  Biso   1.000  C
  C39      1.0000 0.51970  0.37470  0.40029  Biso   1.000  C
  C40      1.0000 0.37750  0.24830  0.38380  Biso   1.000  C
  C41      1.0000 0.09430  0.85030  0.35540  Biso   1.000  C
  C42      1.0000 0.40450  0.34990  0.39460  Biso   1.000  C
  C43      1.0000 0.12360  0.74740  0.36490  Biso   1.000  C
  C44      1.0000 0.22350  0.39990  0.39110  Biso   1.000  C
  C45      1.0000 0.27360  0.22580  0.37740  Biso   1.000  C
  C46      1.0000 0.32740  0.42460  0.39820  Biso   1.000  C
  C47      1.0000 0.91020  0.71220  0.20345  Biso   1.000  C
  C48      1.0000 0.79240  0.55340  0.32564  Biso   1.000  C
  C49      1.0000 0.87920  0.67020  0.23580  Biso   1.000  C
  C50      1.0000 0.70770  0.05390  0.42448  Biso   1.000  C
  C51      1.0000 0.93010  0.70430  0.26250  Biso   1.000  C
  C52      1.0000 0.08480  0.27280  0.37520  Biso   1.000  C
  C53      1.0000 0.61970  0.16870  0.51417  Biso   1.000  C
  C54      1.0000 0.67720  0.09480  0.45536  Biso   1.000  C
  C55      1.0000 0.41500  0.77120  0.37340  Biso   1.000  C
  C56      1.0000 0.82240  0.59560  0.29398  Biso   1.000  C
  C57      1.0000 0.30690  0.80110  0.36800  Biso   1.000  C
  C58      1.0000 0.59940  0.16700  0.45850  Biso   1.000  C
  C59      1.0000 0.19400  0.30020  0.38160  Biso   1.000  C
  C60      1.0000 0.69740  0.09640  0.51190  Biso   1.000  C
  C61      1.0000 0.17180  0.92560  0.35210  Biso   1.000  C
  C62      1.0000 0.72350  0.05530  0.48230  Biso   1.000  C
  C63      1.0000 0.27740  0.90040  0.35820  Biso   1.000  C
  C64      1.0000 0.90130  0.66670  0.29090  Biso   1.000  C
  C65      1.0000 0.57160  0.20500  0.48815  Biso   1.000  C
  C66      1.0000 0.58950  0.21130  0.54617  Biso   1.000  C
  C67      1.0000 0.77300  0.55740  0.26730  Biso   1.000  C
  C68      1.0000 0.80000  0.59800  0.23930  Biso   1.000  C
  C69      1.0000 0.22620  0.72400  0.37190  Biso   1.000  C
  C70      1.0000 0.56680  0.59100  0.48650  Biso   1.000  C
  C71      1.0000 0.57740  0.76560  0.46430  Biso   1.000  C
  C72      1.0000 0.55410  0.80990  0.49370  Biso   1.000  C
  C73      1.0000 0.54330  0.63470  0.51610  Biso   1.000  C
  C74      1.0000 0.53470  0.74890  0.52270  Biso   1.000  C
  C75      1.0000 0.12510  0.01810  0.65050  Biso   1.000  C
  C76      1.0000 0.62530  0.48030  0.59971  Biso   1.000  C
  C77      1.0000 0.75170  0.62250  0.61620  Biso   1.000  C
  C78      1.0000 0.14970  0.90570  0.64460  Biso   1.000  C
  C79      1.0000 0.65010  0.59550  0.60540  Biso   1.000  C
  C80      1.0000 0.25260  0.87640  0.63510  Biso   1.000  C
  C81      1.0000 0.60010  0.77650  0.60890  Biso   1.000  C
  C82      1.0000 0.77420  0.72640  0.62260  Biso   1.000  C
  C83      1.0000 0.57540  0.67260  0.60180  Biso   1.000  C
  C84      1.0000 0.28780  0.08980  0.79655  Biso   1.000  C
  C85      1.0000 0.44660  0.20760  0.67436  Biso   1.000  C
  C86      1.0000 0.32980  0.12080  0.76420  Biso   1.000  C
  C87      1.0000 0.94610  0.29230  0.57552  Biso   1.000  C
  C88      1.0000 0.29570  0.06990  0.73750  Biso   1.000  C
  C89      1.0000 0.72720  0.91520  0.62480  Biso   1.000  C
  C90      1.0000 0.83130  0.38030  0.48583  Biso   1.000  C
  C91      1.0000 0.90520  0.32280  0.54464  Biso   1.000  C
  C92      1.0000 0.22880  0.58500  0.62660  Biso   1.000  C
  C93      1.0000 0.40440  0.17760  0.70602  Biso   1.000  C
  C94      1.0000 0.19890  0.69310  0.63200  Biso   1.000  C
  C95      1.0000 0.83300  0.40060  0.54150  Biso   1.000  C
  C96      1.0000 0.69980  0.80600  0.61840  Biso   1.000  C
  C97      1.0000 0.90360  0.30260  0.48810  Biso   1.000  C
  C98      1.0000 0.07440  0.82820  0.64790  Biso   1.000  C
  C99      1.0000 0.94470  0.27650  0.51770  Biso   1.000  C
  C100     1.0000 0.09960  0.72260  0.64180  Biso   1.000  C
  C101     1.0000 0.33330  0.09870  0.70910  Biso   1.000  C
  C102     1.0000 0.79500  0.42840  0.51185  Biso   1.000  C
  C103     1.0000 0.78870  0.41050  0.45383  Biso   1.000  C
  C104     1.0000 0.44260  0.22700  0.73270  Biso   1.000  C
  C105     1.0000 0.40200  0.20000  0.76070  Biso   1.000  C
  C106     1.0000 0.27600  0.77380  0.62810  Biso   1.000  C
  C107     1.0000 0.40900  0.43320  0.51350  Biso   1.000  C
  C108     1.0000 0.23440  0.42260  0.53570  Biso   1.000  C
  C109     1.0000 0.19010  0.44590  0.50630  Biso   1.000  C
  C110     1.0000 0.36530  0.45670  0.48390  Biso   1.000  C
  C111     1.0000 0.25110  0.46530  0.47730  Biso   1.000  C
  C112     1.0000 0.87490  0.98190  0.15050  Biso   1.000  C
  C113     1.0000 0.37470  0.51970  0.09971  Biso   1.000  C
  C114     1.0000 0.24830  0.37750  0.11620  Biso   1.000  C
  C115     1.0000 0.85030  0.09430  0.14460  Biso   1.000  C
  C116     1.0000 0.34990  0.40450  0.10540  Biso   1.000  C
  C117     1.0000 0.74740  0.12360  0.13510  Biso   1.000  C
  C118     1.0000 0.39990  0.22350  0.10890  Biso   1.000  C
  C119     1.0000 0.22580  0.27360  0.12260  Biso   1.000  C
  C120     1.0000 0.42460  0.32740  0.10180  Biso   1.000  C
  C121     1.0000 0.71220  0.91020  0.29655  Biso   1.000  C
  C122     1.0000 0.55340  0.79240  0.17436  Biso   1.000  C
  C123     1.0000 0.67020  0.87920  0.26420  Biso   1.000  C
  C124     1.0000 0.05390  0.70770  0.07552  Biso   1.000  C
  C125     1.0000 0.70430  0.93010  0.23750  Biso   1.000  C
  C126     1.0000 0.27280  0.08480  0.12480  Biso   1.000  C
  C127     1.0000 0.16870  0.61970  0.98583  Biso   1.000  C
  C128     1.0000 0.09480  0.67720  0.04464  Biso   1.000  C
  C129     1.0000 0.77120  0.41500  0.12660  Biso   1.000  C
  C130     1.0000 0.59560  0.82240  0.20602  Biso   1.000  C
  C131     1.0000 0.80110  0.30690  0.13200  Biso   1.000  C
  C132     1.0000 0.16700  0.59940  0.04150  Biso   1.000  C
  C133     1.0000 0.30020  0.19400  0.11840  Biso   1.000  C
  C134     1.0000 0.09640  0.69740  0.98810  Biso   1.000  C
  C135     1.0000 0.92560  0.17180  0.14790  Biso   1.000  C
  C136     1.0000 0.05530  0.72350  0.01770  Biso   1.000  C
  C137     1.0000 0.90040  0.27740  0.14180  Biso   1.000  C
  C138     1.0000 0.66670  0.90130  0.20910  Biso   1.000  C
  C139     1.0000 0.20500  0.57160  0.01185  Biso   1.000  C
  C140     1.0000 0.21130  0.58950  0.95383  Biso   1.000  C
  C141     1.0000 0.55740  0.77300  0.23270  Biso   1.000  C
  C142     1.0000 0.59800  0.80000  0.26070  Biso   1.000  C
  C143     1.0000 0.72400  0.22620  0.12810  Biso   1.000  C
  C144     1.0000 0.59100  0.56680  0.01350  Biso   1.000  C
  C145     1.0000 0.76560  0.57740  0.03570  Biso   1.000  C
  C146     1.0000 0.80990  0.55410  0.00630  Biso   1.000  C
  C147     1.0000 0.63470  0.54330  0.98390  Biso   1.000  C
  C148     1.0000 0.74890  0.53470  0.97730  Biso   1.000  C
  N1       1.0000 0.26500  0.88740  0.89986  Biso   1.000  N
  N2       1.0000 0.41670  0.23130  0.87377  Biso   1.000  N
  N3       1.0000 0.08230  0.73150  0.87602  Biso   1.000  N
  N4       1.0000 0.24040  0.95740  0.87708  Biso   1.000  N
  N5       1.0000 0.45150  0.31150  0.89117  Biso   1.000  N
  N6       1.0000 0.25480  0.05360  0.88758  Biso   1.000  N
  N7       1.0000 0.04950  0.81010  0.85900  Biso   1.000  N
  N8       1.0000 0.23440  0.38840  0.85007  Biso   1.000  N
  N9       1.0000 0.25930  0.45710  0.87309  Biso   1.000  N
  N10      1.0000 0.28560  0.05000  0.91769  Biso   1.000  N
  N11      1.0000 0.21490  0.55030  0.83237  Biso   1.000  N
  N12      1.0000 0.00000  0.67760  0.88710  Biso   1.000  N
  N13      1.0000 0.94350  0.80990  0.85810  Biso   1.000  N
  N14      1.0000 0.24540  0.55300  0.86157  Biso   1.000  N
  N15      1.0000 0.50030  0.17690  0.86290  Biso   1.000  N
  N16      1.0000 0.55600  0.31020  0.89200  Biso   1.000  N
  N17      1.0000 0.41670  0.34250  0.96160  Biso   1.000  N
  N18      1.0000 0.73500  0.11260  0.39986  Biso   1.000  N
  N19      1.0000 0.58330  0.76870  0.37377  Biso   1.000  N
  N20      1.0000 0.91770  0.26850  0.37602  Biso   1.000  N
  N21      1.0000 0.75960  0.04260  0.37708  Biso   1.000  N
  N22      1.0000 0.54850  0.68850  0.39117  Biso   1.000  N
  N23      1.0000 0.74520  0.94640  0.38758  Biso   1.000  N
  N24      1.0000 0.95050  0.18990  0.35900  Biso   1.000  N
  N25      1.0000 0.76560  0.61160  0.35007  Biso   1.000  N
  N26      1.0000 0.74070  0.54290  0.37309  Biso   1.000  N
  N27      1.0000 0.71440  0.95000  0.41769  Biso   1.000  N
  N28      1.0000 0.78510  0.44970  0.33237  Biso   1.000  N
  N29      1.0000 0.00000  0.32240  0.38710  Biso   1.000  N
  N30      1.0000 0.05650  0.19010  0.35810  Biso   1.000  N
  N31      1.0000 0.75460  0.44700  0.36157  Biso   1.000  N
  N32      1.0000 0.49970  0.82310  0.36290  Biso   1.000  N
  N33      1.0000 0.44400  0.68980  0.39200  Biso   1.000  N
  N34      1.0000 0.58330  0.65750  0.46160  Biso   1.000  N
  N35      1.0000 0.88740  0.26500  0.60014  Biso   1.000  N
  N36      1.0000 0.23130  0.41670  0.62623  Biso   1.000  N
  N37      1.0000 0.73150  0.08230  0.62398  Biso   1.000  N
  N38      1.0000 0.95740  0.24040  0.62292  Biso   1.000  N
  N39      1.0000 0.31150  0.45150  0.60883  Biso   1.000  N
  N40      1.0000 0.05360  0.25480  0.61242  Biso   1.000  N
  N41      1.0000 0.81010  0.04950  0.64100  Biso   1.000  N
  N42      1.0000 0.38840  0.23440  0.64993  Biso   1.000  N
  N43      1.0000 0.45710  0.25930  0.62691  Biso   1.000  N
  N44      1.0000 0.05000  0.28560  0.58231  Biso   1.000  N
  N45      1.0000 0.55030  0.21490  0.66763  Biso   1.000  N
  N46      1.0000 0.67760  0.00000  0.61290  Biso   1.000  N
  N47      1.0000 0.80990  0.94350  0.64190  Biso   1.000  N
  N48      1.0000 0.55300  0.24540  0.63843  Biso   1.000  N
  N49      1.0000 0.17690  0.50030  0.63710  Biso   1.000  N
  N50      1.0000 0.31020  0.55600  0.60800  Biso   1.000  N
  N51      1.0000 0.34250  0.41670  0.53840  Biso   1.000  N
  N52      1.0000 0.11260  0.73500  0.10014  Biso   1.000  N
  N53      1.0000 0.76870  0.58330  0.12623  Biso   1.000  N
  N54      1.0000 0.26850  0.91770  0.12398  Biso   1.000  N
  N55      1.0000 0.04260  0.75960  0.12292  Biso   1.000  N
  N56      1.0000 0.68850  0.54850  0.10883  Biso   1.000  N
  N57      1.0000 0.94640  0.74520  0.11242  Biso   1.000  N
  N58      1.0000 0.18990  0.95050  0.14100  Biso   1.000  N
  N59      1.0000 0.61160  0.76560  0.14993  Biso   1.000  N
  N60      1.0000 0.54290  0.74070  0.12691  Biso   1.000  N
  N61      1.0000 0.95000  0.71440  0.08231  Biso   1.000  N
  N62      1.0000 0.44970  0.78510  0.16763  Biso   1.000  N
  N63      1.0000 0.32240  0.00000  0.11290  Biso   1.000  N
  N64      1.0000 0.19010  0.05650  0.14190  Biso   1.000  N
  N65      1.0000 0.44700  0.75460  0.13843  Biso   1.000  N
  N66      1.0000 0.82310  0.49970  0.13710  Biso   1.000  N
  N67      1.0000 0.68980  0.44400  0.10800  Biso   1.000  N
  N68      1.0000 0.65750  0.58330  0.03840  Biso   1.000  N
  O1       1.0000 0.41540  0.69400  0.89141  Biso   1.000  O
  O2       1.0000 0.08570  0.19290  0.85838  Biso   1.000  O
  O3       1.0000 0.04020  0.04120  0.83675  Biso   1.000  O
  O4       1.0000 0.45950  0.54030  0.91335  Biso   1.000  O
  O5       1.0000 0.15840  0.29460  0.68288  Biso   1.000  O
  O6       1.0000 0.99870  0.25130  0.70028  Biso   1.000  O
  O7       1.0000 0.34100  0.79480  0.06721  Biso   1.000  O
  O8       1.0000 0.50120  0.75060  0.04924  Biso   1.000  O
  O9       1.0000 0.08600  0.84100  0.78818  Biso   1.000  O
  O10      1.0000 0.58460  0.30600  0.39141  Biso   1.000  O
  O11      1.0000 0.91430  0.80710  0.35838  Biso   1.000  O
  O12      1.0000 0.95980  0.95880  0.33675  Biso   1.000  O
  O13      1.0000 0.54050  0.45970  0.41335  Biso   1.000  O
  O14      1.0000 0.84160  0.70540  0.18288  Biso   1.000  O
  O15      1.0000 0.00130  0.74870  0.20028  Biso   1.000  O
  O16      1.0000 0.65900  0.20520  0.56721  Biso   1.000  O
  O17      1.0000 0.49880  0.24940  0.54924  Biso   1.000  O
  O18      1.0000 0.91400  0.15900  0.28818  Biso   1.000  O
  O19      1.0000 0.69400  0.41540  0.60859  Biso   1.000  O
  O20      1.0000 0.19290  0.08570  0.64162  Biso   1.000  O
  O21      1.0000 0.04120  0.04020  0.66325  Biso   1.000  O
  O22      1.0000 0.54030  0.45950  0.58665  Biso   1.000  O
  O23      1.0000 0.29460  0.15840  0.81712  Biso   1.000  O
  O24      1.0000 0.25130  0.99870  0.79972  Biso   1.000  O
  O25      1.0000 0.79480  0.34100  0.43279  Biso   1.000  O
  O26      1.0000 0.75060  0.50120  0.45076  Biso   1.000  O
  O27      1.0000 0.84100  0.08600  0.71182  Biso   1.000  O
  O28      1.0000 0.30600  0.58460  0.10859  Biso   1.000  O
  O29      1.0000 0.80710  0.91430  0.14162  Biso   1.000  O
  O30      1.0000 0.95880  0.95980  0.16325  Biso   1.000  O
  O31      1.0000 0.45970  0.54050  0.08665  Biso   1.000  O
  O32      1.0000 0.70540  0.84160  0.31712  Biso   1.000  O
  O33      1.0000 0.74870  0.00130  0.29972  Biso   1.000  O
  O34      1.0000 0.20520  0.65900  0.93279  Biso   1.000  O
  O35      1.0000 0.24940  0.49880  0.95076  Biso   1.000  O
  O36      1.0000 0.15900  0.91400  0.21182  Biso   1.000  O
