data_image0
_cell_length_a       5.5225
_cell_length_b       10.3642
_cell_length_c       29.725
_cell_angle_alpha    90
_cell_angle_beta     90
_cell_angle_gamma    90

_symmetry_space_group_name_H-M    "P 1"
_symmetry_int_tables_number       1

loop_
  _symmetry_equiv_pos_as_xyz
  'x, y, z'

loop_
  _atom_site_label
  _atom_site_occupancy
  _atom_site_fract_x
  _atom_site_fract_y
  _atom_site_fract_z
  _atom_site_thermal_displace_type
  _atom_site_B_iso_or_equiv
  _atom_site_type_symbol
  Zn1      1.0000 0.17423  0.52068  0.24086  Biso   1.000  Zn
  S1       1.0000 0.67417  0.32507  0.22007  Biso   1.000  S
  S2       1.0000 0.32650  0.44685  0.49000  Biso   1.000  S
  O1       1.0000 0.52640  0.42520  0.24255  Biso   1.000  O
  O2       1.0000 0.63150  0.19980  0.24294  Biso   1.000  O
  O3       1.0000 0.61990  0.31660  0.17265  Biso   1.000  O
  O4       1.0000 0.93580  0.35960  0.22615  Biso   1.000  O
  O5       1.0000 0.86910  0.63770  0.24099  Biso   1.000  O
  N1       1.0000 0.16270  0.47060  0.31018  Biso   1.000  N
  N2       1.0000 0.89890  0.37820  0.46939  Biso   1.000  N
  N3       1.0000 0.90840  0.37480  0.51575  Biso   1.000  N
  N4       1.0000 0.26780  0.44120  0.67159  Biso   1.000  N
  C1       1.0000 0.33920  0.50710  0.33791  Biso   1.000  C
  H1       1.0000 0.47440  0.54750  0.32570  Biso   1.000  H
  C2       1.0000 0.33230  0.48830  0.38383  Biso   1.000  C
  H2       1.0000 0.46110  0.51440  0.40180  Biso   1.000  H
  C3       1.0000 0.13240  0.43050  0.40270  Biso   1.000  C
  C4       1.0000 0.95020  0.38890  0.37395  Biso   1.000  C
  H3       1.0000 0.81590  0.34560  0.38530  Biso   1.000  H
  C5       1.0000 0.97000  0.41200  0.32883  Biso   1.000  C
  H4       1.0000 0.84420  0.38590  0.31010  Biso   1.000  H
  C6       1.0000 0.10240  0.41520  0.45187  Biso   1.000  C
  C7       1.0000 0.12090  0.40730  0.53135  Biso   1.000  C
  C8       1.0000 0.17590  0.41520  0.57946  Biso   1.000  C
  C9       1.0000 0.39110  0.46700  0.59510  Biso   1.000  C
  H5       1.0000 0.51000  0.49290  0.57490  Biso   1.000  H
  C10      1.0000 0.42900  0.47990  0.64077  Biso   1.000  C
  H6       1.0000 0.57280  0.51710  0.65060  Biso   1.000  H
  C11      1.0000 0.06300  0.38570  0.65618  Biso   1.000  C
  H7       1.0000 0.95100  0.35540  0.67700  Biso   1.000  H
  C12      1.0000 0.01200  0.37200  0.61145  Biso   1.000  C
  H8       1.0000 0.86760  0.33380  0.60250  Biso   1.000  H
  H9       1.0000 0.71520  0.63370  0.24050  Biso   1.000  H
  H10      1.0000 0.89600  0.69970  0.25890  Biso   1.000  H
  Zn2      1.0000 0.32577  0.47932  0.74086  Biso   1.000  Zn
  S3       1.0000 0.82583  0.67493  0.72007  Biso   1.000  S
  S4       1.0000 0.17350  0.55315  0.99000  Biso   1.000  S
  O6       1.0000 0.97360  0.57480  0.74255  Biso   1.000  O
  O7       1.0000 0.86850  0.80020  0.74294  Biso   1.000  O
  O8       1.0000 0.88010  0.68340  0.67265  Biso   1.000  O
  O9       1.0000 0.56420  0.64040  0.72615  Biso   1.000  O
  O10      1.0000 0.63090  0.36230  0.74099  Biso   1.000  O
  N5       1.0000 0.33730  0.52940  0.81018  Biso   1.000  N
  N6       1.0000 0.60110  0.62180  0.96939  Biso   1.000  N
  N7       1.0000 0.59160  0.62520  0.01575  Biso   1.000  N
  N8       1.0000 0.23220  0.55880  0.17159  Biso   1.000  N
  C13      1.0000 0.16080  0.49290  0.83791  Biso   1.000  C
  H11      1.0000 0.02560  0.45250  0.82570  Biso   1.000  H
  C14      1.0000 0.16770  0.51170  0.88383  Biso   1.000  C
  H12      1.0000 0.03890  0.48560  0.90180  Biso   1.000  H
  C15      1.0000 0.36760  0.56950  0.90270  Biso   1.000  C
  C16      1.0000 0.54980  0.61110  0.87395  Biso   1.000  C
  H13      1.0000 0.68410  0.65440  0.88530  Biso   1.000  H
  C17      1.0000 0.53000  0.58800  0.82883  Biso   1.000  C
  H14      1.0000 0.65580  0.61410  0.81010  Biso   1.000  H
  C18      1.0000 0.39760  0.58480  0.95187  Biso   1.000  C
  C19      1.0000 0.37910  0.59270  0.03135  Biso   1.000  C
  C20      1.0000 0.32410  0.58480  0.07946  Biso   1.000  C
  C21      1.0000 0.10890  0.53300  0.09510  Biso   1.000  C
  H15      1.0000 0.99000  0.50710  0.07490  Biso   1.000  H
  C22      1.0000 0.07100  0.52010  0.14077  Biso   1.000  C
  H16      1.0000 0.92720  0.48290  0.15060  Biso   1.000  H
  C23      1.0000 0.43700  0.61430  0.15618  Biso   1.000  C
  H17      1.0000 0.54900  0.64460  0.17700  Biso   1.000  H
  C24      1.0000 0.48800  0.62800  0.11145  Biso   1.000  C
  H18      1.0000 0.63240  0.66620  0.10250  Biso   1.000  H
  H19      1.0000 0.78480  0.36630  0.74050  Biso   1.000  H
  H20      1.0000 0.60400  0.30030  0.75890  Biso   1.000  H
  Zn3      1.0000 0.82577  0.02068  0.25914  Biso   1.000  Zn
  S5       1.0000 0.32583  0.82507  0.27993  Biso   1.000  S
  S6       1.0000 0.67350  0.94685  0.01000  Biso   1.000  S
  O11      1.0000 0.47360  0.92520  0.25745  Biso   1.000  O
  O12      1.0000 0.36850  0.69980  0.25706  Biso   1.000  O
  O13      1.0000 0.38010  0.81660  0.32735  Biso   1.000  O
  O14      1.0000 0.06420  0.85960  0.27385  Biso   1.000  O
  O15      1.0000 0.13090  0.13770  0.25901  Biso   1.000  O
  N9       1.0000 0.83730  0.97060  0.18982  Biso   1.000  N
  N10      1.0000 0.10110  0.87820  0.03061  Biso   1.000  N
  N11      1.0000 0.09160  0.87480  0.98425  Biso   1.000  N
  N12      1.0000 0.73220  0.94120  0.82841  Biso   1.000  N
  C25      1.0000 0.66080  0.00710  0.16209  Biso   1.000  C
  H21      1.0000 0.52560  0.04750  0.17430  Biso   1.000  H
  C26      1.0000 0.66770  0.98830  0.11617  Biso   1.000  C
  H22      1.0000 0.53890  0.01440  0.09820  Biso   1.000  H
  C27      1.0000 0.86760  0.93050  0.09730  Biso   1.000  C
  C28      1.0000 0.04980  0.88890  0.12605  Biso   1.000  C
  H23      1.0000 0.18410  0.84560  0.11470  Biso   1.000  H
  C29      1.0000 0.03000  0.91200  0.17117  Biso   1.000  C
  H24      1.0000 0.15580  0.88590  0.18990  Biso   1.000  H
  C30      1.0000 0.89760  0.91520  0.04813  Biso   1.000  C
  C31      1.0000 0.87910  0.90730  0.96865  Biso   1.000  C
  C32      1.0000 0.82410  0.91520  0.92054  Biso   1.000  C
  C33      1.0000 0.60890  0.96700  0.90490  Biso   1.000  C
  H25      1.0000 0.49000  0.99290  0.92510  Biso   1.000  H
  C34      1.0000 0.57100  0.97990  0.85923  Biso   1.000  C
  H26      1.0000 0.42720  0.01710  0.84940  Biso   1.000  H
  C35      1.0000 0.93700  0.88570  0.84382  Biso   1.000  C
  H27      1.0000 0.04900  0.85540  0.82300  Biso   1.000  H
  C36      1.0000 0.98800  0.87200  0.88855  Biso   1.000  C
  H28      1.0000 0.13240  0.83380  0.89750  Biso   1.000  H
  H29      1.0000 0.28480  0.13370  0.25950  Biso   1.000  H
  H30      1.0000 0.10400  0.19970  0.24110  Biso   1.000  H
  Zn4      1.0000 0.67423  0.97932  0.75914  Biso   1.000  Zn
  S7       1.0000 0.17417  0.17493  0.77993  Biso   1.000  S
  S8       1.0000 0.82650  0.05315  0.51000  Biso   1.000  S
  O16      1.0000 0.02640  0.07480  0.75745  Biso   1.000  O
  O17      1.0000 0.13150  0.30020  0.75706  Biso   1.000  O
  O18      1.0000 0.11990  0.18340  0.82735  Biso   1.000  O
  O19      1.0000 0.43580  0.14040  0.77385  Biso   1.000  O
  O20      1.0000 0.36910  0.86230  0.75901  Biso   1.000  O
  N13      1.0000 0.66270  0.02940  0.68982  Biso   1.000  N
  N14      1.0000 0.39890  0.12180  0.53061  Biso   1.000  N
  N15      1.0000 0.40840  0.12520  0.48425  Biso   1.000  N
  N16      1.0000 0.76780  0.05880  0.32841  Biso   1.000  N
  C37      1.0000 0.83920  0.99290  0.66209  Biso   1.000  C
  H31      1.0000 0.97440  0.95250  0.67430  Biso   1.000  H
  C38      1.0000 0.83230  0.01170  0.61617  Biso   1.000  C
  H32      1.0000 0.96110  0.98560  0.59820  Biso   1.000  H
  C39      1.0000 0.63240  0.06950  0.59730  Biso   1.000  C
  C40      1.0000 0.45020  0.11110  0.62605  Biso   1.000  C
  H33      1.0000 0.31590  0.15440  0.61470  Biso   1.000  H
  C41      1.0000 0.47000  0.08800  0.67117  Biso   1.000  C
  H34      1.0000 0.34420  0.11410  0.68990  Biso   1.000  H
  C42      1.0000 0.60240  0.08480  0.54813  Biso   1.000  C
  C43      1.0000 0.62090  0.09270  0.46865  Biso   1.000  C
  C44      1.0000 0.67590  0.08480  0.42054  Biso   1.000  C
  C45      1.0000 0.89110  0.03300  0.40490  Biso   1.000  C
  H35      1.0000 0.01000  0.00710  0.42510  Biso   1.000  H
  C46      1.0000 0.92900  0.02010  0.35923  Biso   1.000  C
  H36      1.0000 0.07280  0.98290  0.34940  Biso   1.000  H
  C47      1.0000 0.56300  0.11430  0.34382  Biso   1.000  C
  H37      1.0000 0.45100  0.14460  0.32300  Biso   1.000  H
  C48      1.0000 0.51200  0.12800  0.38855  Biso   1.000  C
  H38      1.0000 0.36760  0.16620  0.39750  Biso   1.000  H
  H39      1.0000 0.21520  0.86630  0.75950  Biso   1.000  H
  H40      1.0000 0.39600  0.80030  0.74110  Biso   1.000  H
