data_image0
_cell_length_a       15.9325
_cell_length_b       15.9325
_cell_length_c       25.3047
_cell_angle_alpha    90
_cell_angle_beta     90
_cell_angle_gamma    90

_symmetry_space_group_name_H-M    "P 1"
_symmetry_int_tables_number       1

loop_
  _symmetry_equiv_pos_as_xyz
  'x, y, z'

loop_
  _atom_site_label
  _atom_site_occupancy
  _atom_site_fract_x
  _atom_site_fract_y
  _atom_site_fract_z
  _atom_site_thermal_displace_type
  _atom_site_B_iso_or_equiv
  _atom_site_type_symbol
  H1       1.0000 0.75160  0.11040  0.02530  Biso   1.000  H
  N1       1.0000 0.01455  0.13960  0.05063  Biso   1.000  N
  C1       1.0000 0.82689  0.02068  0.00055  Biso   1.000  C
  H2       1.0000 0.82650  0.98450  0.96970  Biso   1.000  H
  H3       1.0000 0.82580  0.98510  0.03170  Biso   1.000  H
  C2       1.0000 0.94293  0.09527  0.04803  Biso   1.000  C
  H4       1.0000 0.91670  0.07980  0.07940  Biso   1.000  H
  C3       1.0000 0.90655  0.07163  0.00070  Biso   1.000  C
  C4       1.0000 0.94628  0.09388  0.95438  Biso   1.000  C
  H5       1.0000 0.92340  0.07870  0.92200  Biso   1.000  H
  C5       1.0000 0.02031  0.13889  0.95646  Biso   1.000  C
  H6       1.0000 0.04820  0.15410  0.92560  Biso   1.000  H
  C6       1.0000 0.05179  0.16073  0.00513  Biso   1.000  C
  H7       1.0000 0.10130  0.19160  0.00650  Biso   1.000  H
  H8       1.0000 0.25160  0.61040  0.52530  Biso   1.000  H
  N2       1.0000 0.51455  0.63960  0.55063  Biso   1.000  N
  C7       1.0000 0.32689  0.52068  0.50055  Biso   1.000  C
  H9       1.0000 0.32650  0.48450  0.46970  Biso   1.000  H
  H10      1.0000 0.32580  0.48510  0.53170  Biso   1.000  H
  C8       1.0000 0.44293  0.59527  0.54803  Biso   1.000  C
  H11      1.0000 0.41670  0.57980  0.57940  Biso   1.000  H
  C9       1.0000 0.40655  0.57163  0.50070  Biso   1.000  C
  C10      1.0000 0.44628  0.59388  0.45438  Biso   1.000  C
  H12      1.0000 0.42340  0.57870  0.42200  Biso   1.000  H
  C11      1.0000 0.52031  0.63889  0.45646  Biso   1.000  C
  H13      1.0000 0.54820  0.65410  0.42560  Biso   1.000  H
  C12      1.0000 0.55179  0.66073  0.50513  Biso   1.000  C
  H14      1.0000 0.60130  0.69160  0.50650  Biso   1.000  H
  H15      1.0000 0.74840  0.88960  0.52530  Biso   1.000  H
  N3       1.0000 0.48545  0.86040  0.55063  Biso   1.000  N
  C13      1.0000 0.67311  0.97932  0.50055  Biso   1.000  C
  H16      1.0000 0.67350  0.01550  0.46970  Biso   1.000  H
  H17      1.0000 0.67420  0.01490  0.53170  Biso   1.000  H
  C14      1.0000 0.55707  0.90473  0.54803  Biso   1.000  C
  H18      1.0000 0.58330  0.92020  0.57940  Biso   1.000  H
  C15      1.0000 0.59345  0.92837  0.50070  Biso   1.000  C
  C16      1.0000 0.55372  0.90612  0.45438  Biso   1.000  C
  H19      1.0000 0.57660  0.92130  0.42200  Biso   1.000  H
  C17      1.0000 0.47969  0.86111  0.45646  Biso   1.000  C
  H20      1.0000 0.45180  0.84590  0.42560  Biso   1.000  H
  C18      1.0000 0.44821  0.83927  0.50513  Biso   1.000  C
  H21      1.0000 0.39870  0.80840  0.50650  Biso   1.000  H
  H22      1.0000 0.24840  0.38960  0.02530  Biso   1.000  H
  N4       1.0000 0.98545  0.36040  0.05063  Biso   1.000  N
  C19      1.0000 0.17311  0.47932  0.00055  Biso   1.000  C
  H23      1.0000 0.17350  0.51550  0.96970  Biso   1.000  H
  H24      1.0000 0.17420  0.51490  0.03170  Biso   1.000  H
  C20      1.0000 0.05707  0.40473  0.04803  Biso   1.000  C
  H25      1.0000 0.08330  0.42020  0.07940  Biso   1.000  H
  C21      1.0000 0.09345  0.42837  0.00070  Biso   1.000  C
  C22      1.0000 0.05372  0.40612  0.95438  Biso   1.000  C
  H26      1.0000 0.07660  0.42130  0.92200  Biso   1.000  H
  C23      1.0000 0.97969  0.36111  0.95646  Biso   1.000  C
  H27      1.0000 0.95180  0.34590  0.92560  Biso   1.000  H
  C24      1.0000 0.94821  0.33927  0.00513  Biso   1.000  C
  H28      1.0000 0.89870  0.30840  0.00650  Biso   1.000  H
  H29      1.0000 0.13960  0.50160  0.27530  Biso   1.000  H
  N5       1.0000 0.11040  0.76455  0.30063  Biso   1.000  N
  C25      1.0000 0.22932  0.57689  0.25055  Biso   1.000  C
  H30      1.0000 0.26550  0.57650  0.21970  Biso   1.000  H
  H31      1.0000 0.26490  0.57580  0.28170  Biso   1.000  H
  C26      1.0000 0.15473  0.69293  0.29803  Biso   1.000  C
  H32      1.0000 0.17020  0.66670  0.32940  Biso   1.000  H
  C27      1.0000 0.17837  0.65655  0.25070  Biso   1.000  C
  C28      1.0000 0.15612  0.69628  0.20438  Biso   1.000  C
  H33      1.0000 0.17130  0.67340  0.17200  Biso   1.000  H
  C29      1.0000 0.11111  0.77031  0.20646  Biso   1.000  C
  H34      1.0000 0.09590  0.79820  0.17560  Biso   1.000  H
  C30      1.0000 0.08927  0.80179  0.25513  Biso   1.000  C
  H35      1.0000 0.05840  0.85130  0.25650  Biso   1.000  H
  H36      1.0000 0.63960  0.00160  0.77530  Biso   1.000  H
  N6       1.0000 0.61040  0.26455  0.80063  Biso   1.000  N
  C31      1.0000 0.72932  0.07689  0.75055  Biso   1.000  C
  H37      1.0000 0.76550  0.07650  0.71970  Biso   1.000  H
  H38      1.0000 0.76490  0.07580  0.78170  Biso   1.000  H
  C32      1.0000 0.65473  0.19293  0.79803  Biso   1.000  C
  H39      1.0000 0.67020  0.16670  0.82940  Biso   1.000  H
  C33      1.0000 0.67837  0.15655  0.75070  Biso   1.000  C
  C34      1.0000 0.65612  0.19628  0.70438  Biso   1.000  C
  H40      1.0000 0.67130  0.17340  0.67200  Biso   1.000  H
  C35      1.0000 0.61111  0.27031  0.70646  Biso   1.000  C
  H41      1.0000 0.59590  0.29820  0.67560  Biso   1.000  H
  C36      1.0000 0.58927  0.30179  0.75513  Biso   1.000  C
  H42      1.0000 0.55840  0.35130  0.75650  Biso   1.000  H
  H43      1.0000 0.36040  0.49840  0.77530  Biso   1.000  H
  N7       1.0000 0.38960  0.23545  0.80063  Biso   1.000  N
  C37      1.0000 0.27068  0.42311  0.75055  Biso   1.000  C
  H44      1.0000 0.23450  0.42350  0.71970  Biso   1.000  H
  H45      1.0000 0.23510  0.42420  0.78170  Biso   1.000  H
  C38      1.0000 0.34527  0.30707  0.79803  Biso   1.000  C
  H46      1.0000 0.32980  0.33330  0.82940  Biso   1.000  H
  C39      1.0000 0.32163  0.34345  0.75070  Biso   1.000  C
  C40      1.0000 0.34388  0.30372  0.70438  Biso   1.000  C
  H47      1.0000 0.32870  0.32660  0.67200  Biso   1.000  H
  C41      1.0000 0.38889  0.22969  0.70646  Biso   1.000  C
  H48      1.0000 0.40410  0.20180  0.67560  Biso   1.000  H
  C42      1.0000 0.41073  0.19821  0.75513  Biso   1.000  C
  H49      1.0000 0.44160  0.14870  0.75650  Biso   1.000  H
  H50      1.0000 0.86040  0.99840  0.27530  Biso   1.000  H
  N8       1.0000 0.88960  0.73545  0.30063  Biso   1.000  N
  C43      1.0000 0.77068  0.92311  0.25055  Biso   1.000  C
  H51      1.0000 0.73450  0.92350  0.21970  Biso   1.000  H
  H52      1.0000 0.73510  0.92420  0.28170  Biso   1.000  H
  C44      1.0000 0.84527  0.80707  0.29803  Biso   1.000  C
  H53      1.0000 0.82980  0.83330  0.32940  Biso   1.000  H
  C45      1.0000 0.82163  0.84345  0.25070  Biso   1.000  C
  C46      1.0000 0.84388  0.80372  0.20438  Biso   1.000  C
  H54      1.0000 0.82870  0.82660  0.17200  Biso   1.000  H
  C47      1.0000 0.88889  0.72969  0.20646  Biso   1.000  C
  H55      1.0000 0.90410  0.70180  0.17560  Biso   1.000  H
  C48      1.0000 0.91073  0.69821  0.25513  Biso   1.000  C
  H56      1.0000 0.94160  0.64870  0.25650  Biso   1.000  H
  H57      1.0000 0.74840  0.11040  0.97470  Biso   1.000  H
  N9       1.0000 0.48545  0.13960  0.94937  Biso   1.000  N
  C49      1.0000 0.67311  0.02068  0.99945  Biso   1.000  C
  H58      1.0000 0.67350  0.98450  0.03030  Biso   1.000  H
  H59      1.0000 0.67420  0.98510  0.96830  Biso   1.000  H
  C50      1.0000 0.55707  0.09527  0.95197  Biso   1.000  C
  H60      1.0000 0.58330  0.07980  0.92060  Biso   1.000  H
  C51      1.0000 0.59345  0.07163  0.99930  Biso   1.000  C
  C52      1.0000 0.55372  0.09388  0.04562  Biso   1.000  C
  H61      1.0000 0.57660  0.07870  0.07800  Biso   1.000  H
  C53      1.0000 0.47969  0.13889  0.04354  Biso   1.000  C
  H62      1.0000 0.45180  0.15410  0.07440  Biso   1.000  H
  C54      1.0000 0.44821  0.16073  0.99487  Biso   1.000  C
  H63      1.0000 0.39870  0.19160  0.99350  Biso   1.000  H
  H64      1.0000 0.24840  0.61040  0.47470  Biso   1.000  H
  N10      1.0000 0.98545  0.63960  0.44937  Biso   1.000  N
  C55      1.0000 0.17311  0.52068  0.49945  Biso   1.000  C
  H65      1.0000 0.17350  0.48450  0.53030  Biso   1.000  H
  H66      1.0000 0.17420  0.48510  0.46830  Biso   1.000  H
  C56      1.0000 0.05707  0.59527  0.45197  Biso   1.000  C
  H67      1.0000 0.08330  0.57980  0.42060  Biso   1.000  H
  C57      1.0000 0.09345  0.57163  0.49930  Biso   1.000  C
  C58      1.0000 0.05372  0.59388  0.54562  Biso   1.000  C
  H68      1.0000 0.07660  0.57870  0.57800  Biso   1.000  H
  C59      1.0000 0.97969  0.63889  0.54354  Biso   1.000  C
  H69      1.0000 0.95180  0.65410  0.57440  Biso   1.000  H
  C60      1.0000 0.94821  0.66073  0.49487  Biso   1.000  C
  H70      1.0000 0.89870  0.69160  0.49350  Biso   1.000  H
  H71      1.0000 0.75160  0.88960  0.47470  Biso   1.000  H
  N11      1.0000 0.01455  0.86040  0.44937  Biso   1.000  N
  C61      1.0000 0.82689  0.97932  0.49945  Biso   1.000  C
  H72      1.0000 0.82650  0.01550  0.53030  Biso   1.000  H
  H73      1.0000 0.82580  0.01490  0.46830  Biso   1.000  H
  C62      1.0000 0.94293  0.90473  0.45197  Biso   1.000  C
  H74      1.0000 0.91670  0.92020  0.42060  Biso   1.000  H
  C63      1.0000 0.90655  0.92837  0.49930  Biso   1.000  C
  C64      1.0000 0.94628  0.90612  0.54562  Biso   1.000  C
  H75      1.0000 0.92340  0.92130  0.57800  Biso   1.000  H
  C65      1.0000 0.02031  0.86111  0.54354  Biso   1.000  C
  H76      1.0000 0.04820  0.84590  0.57440  Biso   1.000  H
  C66      1.0000 0.05179  0.83927  0.49487  Biso   1.000  C
  H77      1.0000 0.10130  0.80840  0.49350  Biso   1.000  H
  H78      1.0000 0.25160  0.38960  0.97470  Biso   1.000  H
  N12      1.0000 0.51455  0.36040  0.94937  Biso   1.000  N
  C67      1.0000 0.32689  0.47932  0.99945  Biso   1.000  C
  H79      1.0000 0.32650  0.51550  0.03030  Biso   1.000  H
  H80      1.0000 0.32580  0.51490  0.96830  Biso   1.000  H
  C68      1.0000 0.44293  0.40473  0.95197  Biso   1.000  C
  H81      1.0000 0.41670  0.42020  0.92060  Biso   1.000  H
  C69      1.0000 0.40655  0.42837  0.99930  Biso   1.000  C
  C70      1.0000 0.44628  0.40612  0.04562  Biso   1.000  C
  H82      1.0000 0.42340  0.42130  0.07800  Biso   1.000  H
  C71      1.0000 0.52031  0.36111  0.04354  Biso   1.000  C
  H83      1.0000 0.54820  0.34590  0.07440  Biso   1.000  H
  C72      1.0000 0.55179  0.33927  0.99487  Biso   1.000  C
  H84      1.0000 0.60130  0.30840  0.99350  Biso   1.000  H
  H85      1.0000 0.36040  0.50160  0.72470  Biso   1.000  H
  N13      1.0000 0.38960  0.76455  0.69937  Biso   1.000  N
  C73      1.0000 0.27068  0.57689  0.74945  Biso   1.000  C
  H86      1.0000 0.23450  0.57650  0.78030  Biso   1.000  H
  H87      1.0000 0.23510  0.57580  0.71830  Biso   1.000  H
  C74      1.0000 0.34527  0.69293  0.70197  Biso   1.000  C
  H88      1.0000 0.32980  0.66670  0.67060  Biso   1.000  H
  C75      1.0000 0.32163  0.65655  0.74930  Biso   1.000  C
  C76      1.0000 0.34388  0.69628  0.79562  Biso   1.000  C
  H89      1.0000 0.32870  0.67340  0.82800  Biso   1.000  H
  C77      1.0000 0.38889  0.77031  0.79354  Biso   1.000  C
  H90      1.0000 0.40410  0.79820  0.82440  Biso   1.000  H
  C78      1.0000 0.41073  0.80179  0.74487  Biso   1.000  C
  H91      1.0000 0.44160  0.85130  0.74350  Biso   1.000  H
  H92      1.0000 0.86040  0.00160  0.22470  Biso   1.000  H
  N14      1.0000 0.88960  0.26455  0.19937  Biso   1.000  N
  C79      1.0000 0.77068  0.07689  0.24945  Biso   1.000  C
  H93      1.0000 0.73450  0.07650  0.28030  Biso   1.000  H
  H94      1.0000 0.73510  0.07580  0.21830  Biso   1.000  H
  C80      1.0000 0.84527  0.19293  0.20197  Biso   1.000  C
  H95      1.0000 0.82980  0.16670  0.17060  Biso   1.000  H
  C81      1.0000 0.82163  0.15655  0.24930  Biso   1.000  C
  C82      1.0000 0.84388  0.19628  0.29562  Biso   1.000  C
  H96      1.0000 0.82870  0.17340  0.32800  Biso   1.000  H
  C83      1.0000 0.88889  0.27031  0.29354  Biso   1.000  C
  H97      1.0000 0.90410  0.29820  0.32440  Biso   1.000  H
  C84      1.0000 0.91073  0.30179  0.24487  Biso   1.000  C
  H98      1.0000 0.94160  0.35130  0.24350  Biso   1.000  H
  H99      1.0000 0.13960  0.49840  0.22470  Biso   1.000  H
  N15      1.0000 0.11040  0.23545  0.19937  Biso   1.000  N
  C85      1.0000 0.22932  0.42311  0.24945  Biso   1.000  C
  H100     1.0000 0.26550  0.42350  0.28030  Biso   1.000  H
  H101     1.0000 0.26490  0.42420  0.21830  Biso   1.000  H
  C86      1.0000 0.15473  0.30707  0.20197  Biso   1.000  C
  H102     1.0000 0.17020  0.33330  0.17060  Biso   1.000  H
  C87      1.0000 0.17837  0.34345  0.24930  Biso   1.000  C
  C88      1.0000 0.15612  0.30372  0.29562  Biso   1.000  C
  H103     1.0000 0.17130  0.32660  0.32800  Biso   1.000  H
  C89      1.0000 0.11111  0.22969  0.29354  Biso   1.000  C
  H104     1.0000 0.09590  0.20180  0.32440  Biso   1.000  H
  C90      1.0000 0.08927  0.19821  0.24487  Biso   1.000  C
  H105     1.0000 0.05840  0.14870  0.24350  Biso   1.000  H
  H106     1.0000 0.63960  0.99840  0.72470  Biso   1.000  H
  N16      1.0000 0.61040  0.73545  0.69937  Biso   1.000  N
  C91      1.0000 0.72932  0.92311  0.74945  Biso   1.000  C
  H107     1.0000 0.76550  0.92350  0.78030  Biso   1.000  H
  H108     1.0000 0.76490  0.92420  0.71830  Biso   1.000  H
  C92      1.0000 0.65473  0.80707  0.70197  Biso   1.000  C
  H109     1.0000 0.67020  0.83330  0.67060  Biso   1.000  H
  C93      1.0000 0.67837  0.84345  0.74930  Biso   1.000  C
  C94      1.0000 0.65612  0.80372  0.79562  Biso   1.000  C
  H110     1.0000 0.67130  0.82660  0.82800  Biso   1.000  H
  C95      1.0000 0.61111  0.72969  0.79354  Biso   1.000  C
  H111     1.0000 0.59590  0.70180  0.82440  Biso   1.000  H
  C96      1.0000 0.58927  0.69821  0.74487  Biso   1.000  C
  H112     1.0000 0.55840  0.64870  0.74350  Biso   1.000  H
  Ag1      1.0000 0.06808  0.18192  0.12500  Biso   1.000  Ag
  Ag2      1.0000 0.56808  0.68192  0.62500  Biso   1.000  Ag
  Ag3      1.0000 0.43192  0.81808  0.62500  Biso   1.000  Ag
  Ag4      1.0000 0.93192  0.31808  0.12500  Biso   1.000  Ag
  Ag5      1.0000 0.06808  0.81808  0.37500  Biso   1.000  Ag
  Ag6      1.0000 0.56808  0.31808  0.87500  Biso   1.000  Ag
  Ag7      1.0000 0.43192  0.18192  0.87500  Biso   1.000  Ag
  Ag8      1.0000 0.93192  0.68192  0.37500  Biso   1.000  Ag
  N17      1.0000 0.75000  0.07426  0.00000  Biso   1.000  N
  N18      1.0000 0.25000  0.57426  0.50000  Biso   1.000  N
  N19      1.0000 0.75000  0.92574  0.50000  Biso   1.000  N
  N20      1.0000 0.25000  0.42574  0.00000  Biso   1.000  N
  N21      1.0000 0.17574  0.50000  0.25000  Biso   1.000  N
  N22      1.0000 0.67574  0.00000  0.75000  Biso   1.000  N
  N23      1.0000 0.32426  0.50000  0.75000  Biso   1.000  N
  N24      1.0000 0.82426  0.00000  0.25000  Biso   1.000  N
  H113     1.0000 0.24840  0.88960  0.97470  Biso   1.000  H
  N25      1.0000 0.98545  0.86040  0.94937  Biso   1.000  N
  C97      1.0000 0.17311  0.97932  0.99945  Biso   1.000  C
  H114     1.0000 0.17350  0.01550  0.03030  Biso   1.000  H
  H115     1.0000 0.17420  0.01490  0.96830  Biso   1.000  H
  C98      1.0000 0.05707  0.90473  0.95197  Biso   1.000  C
  H116     1.0000 0.08330  0.92020  0.92060  Biso   1.000  H
  C99      1.0000 0.09345  0.92837  0.99930  Biso   1.000  C
  C100     1.0000 0.05372  0.90612  0.04562  Biso   1.000  C
  H117     1.0000 0.07660  0.92130  0.07800  Biso   1.000  H
  C101     1.0000 0.97969  0.86111  0.04354  Biso   1.000  C
  H118     1.0000 0.95180  0.84590  0.07440  Biso   1.000  H
  C102     1.0000 0.94821  0.83927  0.99487  Biso   1.000  C
  H119     1.0000 0.89870  0.80840  0.99350  Biso   1.000  H
  H120     1.0000 0.74840  0.38960  0.47470  Biso   1.000  H
  N26      1.0000 0.48545  0.36040  0.44937  Biso   1.000  N
  C103     1.0000 0.67311  0.47932  0.49945  Biso   1.000  C
  H121     1.0000 0.67350  0.51550  0.53030  Biso   1.000  H
  H122     1.0000 0.67420  0.51490  0.46830  Biso   1.000  H
  C104     1.0000 0.55707  0.40473  0.45197  Biso   1.000  C
  H123     1.0000 0.58330  0.42020  0.42060  Biso   1.000  H
  C105     1.0000 0.59345  0.42837  0.49930  Biso   1.000  C
  C106     1.0000 0.55372  0.40612  0.54562  Biso   1.000  C
  H124     1.0000 0.57660  0.42130  0.57800  Biso   1.000  H
  C107     1.0000 0.47969  0.36111  0.54354  Biso   1.000  C
  H125     1.0000 0.45180  0.34590  0.57440  Biso   1.000  H
  C108     1.0000 0.44821  0.33927  0.49487  Biso   1.000  C
  H126     1.0000 0.39870  0.30840  0.49350  Biso   1.000  H
  H127     1.0000 0.25160  0.11040  0.47470  Biso   1.000  H
  N27      1.0000 0.51455  0.13960  0.44937  Biso   1.000  N
  C109     1.0000 0.32689  0.02068  0.49945  Biso   1.000  C
  H128     1.0000 0.32650  0.98450  0.53030  Biso   1.000  H
  H129     1.0000 0.32580  0.98510  0.46830  Biso   1.000  H
  C110     1.0000 0.44293  0.09527  0.45197  Biso   1.000  C
  H130     1.0000 0.41670  0.07980  0.42060  Biso   1.000  H
  C111     1.0000 0.40655  0.07163  0.49930  Biso   1.000  C
  C112     1.0000 0.44628  0.09388  0.54562  Biso   1.000  C
  H131     1.0000 0.42340  0.07870  0.57800  Biso   1.000  H
  C113     1.0000 0.52031  0.13889  0.54354  Biso   1.000  C
  H132     1.0000 0.54820  0.15410  0.57440  Biso   1.000  H
  C114     1.0000 0.55179  0.16073  0.49487  Biso   1.000  C
  H133     1.0000 0.60130  0.19160  0.49350  Biso   1.000  H
  H134     1.0000 0.75160  0.61040  0.97470  Biso   1.000  H
  N28      1.0000 0.01455  0.63960  0.94937  Biso   1.000  N
  C115     1.0000 0.82689  0.52068  0.99945  Biso   1.000  C
  H135     1.0000 0.82650  0.48450  0.03030  Biso   1.000  H
  H136     1.0000 0.82580  0.48510  0.96830  Biso   1.000  H
  C116     1.0000 0.94293  0.59527  0.95197  Biso   1.000  C
  H137     1.0000 0.91670  0.57980  0.92060  Biso   1.000  H
  C117     1.0000 0.90655  0.57163  0.99930  Biso   1.000  C
  C118     1.0000 0.94628  0.59388  0.04562  Biso   1.000  C
  H138     1.0000 0.92340  0.57870  0.07800  Biso   1.000  H
  C119     1.0000 0.02031  0.63889  0.04354  Biso   1.000  C
  H139     1.0000 0.04820  0.65410  0.07440  Biso   1.000  H
  C120     1.0000 0.05179  0.66073  0.99487  Biso   1.000  C
  H140     1.0000 0.10130  0.69160  0.99350  Biso   1.000  H
  H141     1.0000 0.86040  0.49840  0.72470  Biso   1.000  H
  N29      1.0000 0.88960  0.23545  0.69937  Biso   1.000  N
  C121     1.0000 0.77068  0.42311  0.74945  Biso   1.000  C
  H142     1.0000 0.73450  0.42350  0.78030  Biso   1.000  H
  H143     1.0000 0.73510  0.42420  0.71830  Biso   1.000  H
  C122     1.0000 0.84527  0.30707  0.70197  Biso   1.000  C
  H144     1.0000 0.82980  0.33330  0.67060  Biso   1.000  H
  C123     1.0000 0.82163  0.34345  0.74930  Biso   1.000  C
  C124     1.0000 0.84388  0.30372  0.79562  Biso   1.000  C
  H145     1.0000 0.82870  0.32660  0.82800  Biso   1.000  H
  C125     1.0000 0.88889  0.22969  0.79354  Biso   1.000  C
  H146     1.0000 0.90410  0.20180  0.82440  Biso   1.000  H
  C126     1.0000 0.91073  0.19821  0.74487  Biso   1.000  C
  H147     1.0000 0.94160  0.14870  0.74350  Biso   1.000  H
  H148     1.0000 0.36040  0.99840  0.22470  Biso   1.000  H
  N30      1.0000 0.38960  0.73545  0.19937  Biso   1.000  N
  C127     1.0000 0.27068  0.92311  0.24945  Biso   1.000  C
  H149     1.0000 0.23450  0.92350  0.28030  Biso   1.000  H
  H150     1.0000 0.23510  0.92420  0.21830  Biso   1.000  H
  C128     1.0000 0.34527  0.80707  0.20197  Biso   1.000  C
  H151     1.0000 0.32980  0.83330  0.17060  Biso   1.000  H
  C129     1.0000 0.32163  0.84345  0.24930  Biso   1.000  C
  C130     1.0000 0.34388  0.80372  0.29562  Biso   1.000  C
  H152     1.0000 0.32870  0.82660  0.32800  Biso   1.000  H
  C131     1.0000 0.38889  0.72969  0.29354  Biso   1.000  C
  H153     1.0000 0.40410  0.70180  0.32440  Biso   1.000  H
  C132     1.0000 0.41073  0.69821  0.24487  Biso   1.000  C
  H154     1.0000 0.44160  0.64870  0.24350  Biso   1.000  H
  H155     1.0000 0.63960  0.50160  0.22470  Biso   1.000  H
  N31      1.0000 0.61040  0.76455  0.19937  Biso   1.000  N
  C133     1.0000 0.72932  0.57689  0.24945  Biso   1.000  C
  H156     1.0000 0.76550  0.57650  0.28030  Biso   1.000  H
  H157     1.0000 0.76490  0.57580  0.21830  Biso   1.000  H
  C134     1.0000 0.65473  0.69293  0.20197  Biso   1.000  C
  H158     1.0000 0.67020  0.66670  0.17060  Biso   1.000  H
  C135     1.0000 0.67837  0.65655  0.24930  Biso   1.000  C
  C136     1.0000 0.65612  0.69628  0.29562  Biso   1.000  C
  H159     1.0000 0.67130  0.67340  0.32800  Biso   1.000  H
  C137     1.0000 0.61111  0.77031  0.29354  Biso   1.000  C
  H160     1.0000 0.59590  0.79820  0.32440  Biso   1.000  H
  C138     1.0000 0.58927  0.80179  0.24487  Biso   1.000  C
  H161     1.0000 0.55840  0.85130  0.24350  Biso   1.000  H
  H162     1.0000 0.13960  0.00160  0.72470  Biso   1.000  H
  N32      1.0000 0.11040  0.26455  0.69937  Biso   1.000  N
  C139     1.0000 0.22932  0.07689  0.74945  Biso   1.000  C
  H163     1.0000 0.26550  0.07650  0.78030  Biso   1.000  H
  H164     1.0000 0.26490  0.07580  0.71830  Biso   1.000  H
  C140     1.0000 0.15473  0.19293  0.70197  Biso   1.000  C
  H165     1.0000 0.17020  0.16670  0.67060  Biso   1.000  H
  C141     1.0000 0.17837  0.15655  0.74930  Biso   1.000  C
  C142     1.0000 0.15612  0.19628  0.79562  Biso   1.000  C
  H166     1.0000 0.17130  0.17340  0.82800  Biso   1.000  H
  C143     1.0000 0.11111  0.27031  0.79354  Biso   1.000  C
  H167     1.0000 0.09590  0.29820  0.82440  Biso   1.000  H
  C144     1.0000 0.08927  0.30179  0.74487  Biso   1.000  C
  H168     1.0000 0.05840  0.35130  0.74350  Biso   1.000  H
  H169     1.0000 0.25160  0.88960  0.02530  Biso   1.000  H
  N33      1.0000 0.51455  0.86040  0.05063  Biso   1.000  N
  C145     1.0000 0.32689  0.97932  0.00055  Biso   1.000  C
  H170     1.0000 0.32650  0.01550  0.96970  Biso   1.000  H
  H171     1.0000 0.32580  0.01490  0.03170  Biso   1.000  H
  C146     1.0000 0.44293  0.90473  0.04803  Biso   1.000  C
  H172     1.0000 0.41670  0.92020  0.07940  Biso   1.000  H
  C147     1.0000 0.40655  0.92837  0.00070  Biso   1.000  C
  C148     1.0000 0.44628  0.90612  0.95438  Biso   1.000  C
  H173     1.0000 0.42340  0.92130  0.92200  Biso   1.000  H
  C149     1.0000 0.52031  0.86111  0.95646  Biso   1.000  C
  H174     1.0000 0.54820  0.84590  0.92560  Biso   1.000  H
  C150     1.0000 0.55179  0.83927  0.00513  Biso   1.000  C
  H175     1.0000 0.60130  0.80840  0.00650  Biso   1.000  H
  H176     1.0000 0.75160  0.38960  0.52530  Biso   1.000  H
  N34      1.0000 0.01455  0.36040  0.55063  Biso   1.000  N
  C151     1.0000 0.82689  0.47932  0.50055  Biso   1.000  C
  H177     1.0000 0.82650  0.51550  0.46970  Biso   1.000  H
  H178     1.0000 0.82580  0.51490  0.53170  Biso   1.000  H
  C152     1.0000 0.94293  0.40473  0.54803  Biso   1.000  C
  H179     1.0000 0.91670  0.42020  0.57940  Biso   1.000  H
  C153     1.0000 0.90655  0.42837  0.50070  Biso   1.000  C
  C154     1.0000 0.94628  0.40612  0.45438  Biso   1.000  C
  H180     1.0000 0.92340  0.42130  0.42200  Biso   1.000  H
  C155     1.0000 0.02031  0.36111  0.45646  Biso   1.000  C
  H181     1.0000 0.04820  0.34590  0.42560  Biso   1.000  H
  C156     1.0000 0.05179  0.33927  0.50513  Biso   1.000  C
  H182     1.0000 0.10130  0.30840  0.50650  Biso   1.000  H
  H183     1.0000 0.24840  0.11040  0.52530  Biso   1.000  H
  N35      1.0000 0.98545  0.13960  0.55063  Biso   1.000  N
  C157     1.0000 0.17311  0.02068  0.50055  Biso   1.000  C
  H184     1.0000 0.17350  0.98450  0.46970  Biso   1.000  H
  H185     1.0000 0.17420  0.98510  0.53170  Biso   1.000  H
  C158     1.0000 0.05707  0.09527  0.54803  Biso   1.000  C
  H186     1.0000 0.08330  0.07980  0.57940  Biso   1.000  H
  C159     1.0000 0.09345  0.07163  0.50070  Biso   1.000  C
  C160     1.0000 0.05372  0.09388  0.45438  Biso   1.000  C
  H187     1.0000 0.07660  0.07870  0.42200  Biso   1.000  H
  C161     1.0000 0.97969  0.13889  0.45646  Biso   1.000  C
  H188     1.0000 0.95180  0.15410  0.42560  Biso   1.000  H
  C162     1.0000 0.94821  0.16073  0.50513  Biso   1.000  C
  H189     1.0000 0.89870  0.19160  0.50650  Biso   1.000  H
  H190     1.0000 0.74840  0.61040  0.02530  Biso   1.000  H
  N36      1.0000 0.48545  0.63960  0.05063  Biso   1.000  N
  C163     1.0000 0.67311  0.52068  0.00055  Biso   1.000  C
  H191     1.0000 0.67350  0.48450  0.96970  Biso   1.000  H
  H192     1.0000 0.67420  0.48510  0.03170  Biso   1.000  H
  C164     1.0000 0.55707  0.59527  0.04803  Biso   1.000  C
  H193     1.0000 0.58330  0.57980  0.07940  Biso   1.000  H
  C165     1.0000 0.59345  0.57163  0.00070  Biso   1.000  C
  C166     1.0000 0.55372  0.59388  0.95438  Biso   1.000  C
  H194     1.0000 0.57660  0.57870  0.92200  Biso   1.000  H
  C167     1.0000 0.47969  0.63889  0.95646  Biso   1.000  C
  H195     1.0000 0.45180  0.65410  0.92560  Biso   1.000  H
  C168     1.0000 0.44821  0.66073  0.00513  Biso   1.000  C
  H196     1.0000 0.39870  0.69160  0.00650  Biso   1.000  H
  H197     1.0000 0.63960  0.49840  0.27530  Biso   1.000  H
  N37      1.0000 0.61040  0.23545  0.30063  Biso   1.000  N
  C169     1.0000 0.72932  0.42311  0.25055  Biso   1.000  C
  H198     1.0000 0.76550  0.42350  0.21970  Biso   1.000  H
  H199     1.0000 0.76490  0.42420  0.28170  Biso   1.000  H
  C170     1.0000 0.65473  0.30707  0.29803  Biso   1.000  C
  H200     1.0000 0.67020  0.33330  0.32940  Biso   1.000  H
  C171     1.0000 0.67837  0.34345  0.25070  Biso   1.000  C
  C172     1.0000 0.65612  0.30372  0.20438  Biso   1.000  C
  H201     1.0000 0.67130  0.32660  0.17200  Biso   1.000  H
  C173     1.0000 0.61111  0.22969  0.20646  Biso   1.000  C
  H202     1.0000 0.59590  0.20180  0.17560  Biso   1.000  H
  C174     1.0000 0.58927  0.19821  0.25513  Biso   1.000  C
  H203     1.0000 0.55840  0.14870  0.25650  Biso   1.000  H
  H204     1.0000 0.13960  0.99840  0.77530  Biso   1.000  H
  N38      1.0000 0.11040  0.73545  0.80063  Biso   1.000  N
  C175     1.0000 0.22932  0.92311  0.75055  Biso   1.000  C
  H205     1.0000 0.26550  0.92350  0.71970  Biso   1.000  H
  H206     1.0000 0.26490  0.92420  0.78170  Biso   1.000  H
  C176     1.0000 0.15473  0.80707  0.79803  Biso   1.000  C
  H207     1.0000 0.17020  0.83330  0.82940  Biso   1.000  H
  C177     1.0000 0.17837  0.84345  0.75070  Biso   1.000  C
  C178     1.0000 0.15612  0.80372  0.70438  Biso   1.000  C
  H208     1.0000 0.17130  0.82660  0.67200  Biso   1.000  H
  C179     1.0000 0.11111  0.72969  0.70646  Biso   1.000  C
  H209     1.0000 0.09590  0.70180  0.67560  Biso   1.000  H
  C180     1.0000 0.08927  0.69821  0.75513  Biso   1.000  C
  H210     1.0000 0.05840  0.64870  0.75650  Biso   1.000  H
  H211     1.0000 0.86040  0.50160  0.77530  Biso   1.000  H
  N39      1.0000 0.88960  0.76455  0.80063  Biso   1.000  N
  C181     1.0000 0.77068  0.57689  0.75055  Biso   1.000  C
  H212     1.0000 0.73450  0.57650  0.71970  Biso   1.000  H
  H213     1.0000 0.73510  0.57580  0.78170  Biso   1.000  H
  C182     1.0000 0.84527  0.69293  0.79803  Biso   1.000  C
  H214     1.0000 0.82980  0.66670  0.82940  Biso   1.000  H
  C183     1.0000 0.82163  0.65655  0.75070  Biso   1.000  C
  C184     1.0000 0.84388  0.69628  0.70438  Biso   1.000  C
  H215     1.0000 0.82870  0.67340  0.67200  Biso   1.000  H
  C185     1.0000 0.88889  0.77031  0.70646  Biso   1.000  C
  H216     1.0000 0.90410  0.79820  0.67560  Biso   1.000  H
  C186     1.0000 0.91073  0.80179  0.75513  Biso   1.000  C
  H217     1.0000 0.94160  0.85130  0.75650  Biso   1.000  H
  H218     1.0000 0.36040  0.00160  0.27530  Biso   1.000  H
  N40      1.0000 0.38960  0.26455  0.30063  Biso   1.000  N
  C187     1.0000 0.27068  0.07689  0.25055  Biso   1.000  C
  H219     1.0000 0.23450  0.07650  0.21970  Biso   1.000  H
  H220     1.0000 0.23510  0.07580  0.28170  Biso   1.000  H
  C188     1.0000 0.34527  0.19293  0.29803  Biso   1.000  C
  H221     1.0000 0.32980  0.16670  0.32940  Biso   1.000  H
  C189     1.0000 0.32163  0.15655  0.25070  Biso   1.000  C
  C190     1.0000 0.34388  0.19628  0.20438  Biso   1.000  C
  H222     1.0000 0.32870  0.17340  0.17200  Biso   1.000  H
  C191     1.0000 0.38889  0.27031  0.20646  Biso   1.000  C
  H223     1.0000 0.40410  0.29820  0.17560  Biso   1.000  H
  C192     1.0000 0.41073  0.30179  0.25513  Biso   1.000  C
  H224     1.0000 0.44160  0.35130  0.25650  Biso   1.000  H
  Ag9      1.0000 0.93192  0.81808  0.87500  Biso   1.000  Ag
  Ag10     1.0000 0.43192  0.31808  0.37500  Biso   1.000  Ag
  Ag11     1.0000 0.56808  0.18192  0.37500  Biso   1.000  Ag
  Ag12     1.0000 0.06808  0.68192  0.87500  Biso   1.000  Ag
  Ag13     1.0000 0.93192  0.18192  0.62500  Biso   1.000  Ag
  Ag14     1.0000 0.43192  0.68192  0.12500  Biso   1.000  Ag
  Ag15     1.0000 0.56808  0.81808  0.12500  Biso   1.000  Ag
  Ag16     1.0000 0.06808  0.31808  0.62500  Biso   1.000  Ag
  N41      1.0000 0.25000  0.92574  0.00000  Biso   1.000  N
  N42      1.0000 0.75000  0.42574  0.50000  Biso   1.000  N
  N43      1.0000 0.25000  0.07426  0.50000  Biso   1.000  N
  N44      1.0000 0.75000  0.57426  0.00000  Biso   1.000  N
  N45      1.0000 0.82426  0.50000  0.75000  Biso   1.000  N
  N46      1.0000 0.32426  0.00000  0.25000  Biso   1.000  N
  N47      1.0000 0.67574  0.50000  0.25000  Biso   1.000  N
  N48      1.0000 0.17574  0.00000  0.75000  Biso   1.000  N
