data_image0
_cell_length_a       13.5156
_cell_length_b       13.5156
_cell_length_c       14.872
_cell_angle_alpha    90
_cell_angle_beta     90
_cell_angle_gamma    120

_symmetry_space_group_name_H-M    P 1
_symmetry_int_tables_number       1

loop_
  _symmetry_equiv_pos_as_xyz
  'x, y, z'

loop_
  _atom_site_label
  _atom_site_occupancy
  _atom_site_fract_x
  _atom_site_fract_y
  _atom_site_fract_z
  _atom_site_thermal_displace_type
  _atom_site_B_iso_or_equiv
  _atom_site_type_symbol
  La1      1.0000 0.66667  0.33334  0.33177  Biso   1.000  La
  La2      1.0000 0.33333  0.66666  0.16823  Biso   1.000  La
  La3      1.0000 0.33333  0.66666  0.66823  Biso   1.000  La
  La4      1.0000 0.66667  0.33334  0.83177  Biso   1.000  La
  Cu1      1.0000 0.50000  0.00000  0.50000  Biso   1.000  Cu
  Cu2      1.0000 0.50000  0.50000  0.50000  Biso   1.000  Cu
  Cu3      1.0000 0.00000  0.50000  0.50000  Biso   1.000  Cu
  Cu4      1.0000 0.50000  0.00000  0.00000  Biso   1.000  Cu
  Cu5      1.0000 0.00000  0.50000  0.00000  Biso   1.000  Cu
  Cu6      1.0000 0.50000  0.50000  0.00000  Biso   1.000  Cu
  H1       1.0000 0.75620  0.04390  0.45720  Biso   1.000  H
  H2       1.0000 0.64780  0.97810  0.57600  Biso   1.000  H
  H3       1.0000 0.79760  0.14330  0.53550  Biso   1.000  H
  H4       1.0000 0.72470  0.18770  0.61950  Biso   1.000  H
  H5       1.0000 0.66980  0.06730  0.68520  Biso   1.000  H
  H6       1.0000 0.28770  0.24380  0.45720  Biso   1.000  H
  H7       1.0000 0.33030  0.35220  0.57600  Biso   1.000  H
  H8       1.0000 0.34570  0.20240  0.53550  Biso   1.000  H
  H9       1.0000 0.46300  0.27530  0.61950  Biso   1.000  H
  H10      1.0000 0.39750  0.33020  0.68520  Biso   1.000  H
  H11      1.0000 0.95610  0.71230  0.45720  Biso   1.000  H
  H12      1.0000 0.02190  0.66970  0.57600  Biso   1.000  H
  H13      1.0000 0.85670  0.65430  0.53550  Biso   1.000  H
  H14      1.0000 0.81230  0.53700  0.61950  Biso   1.000  H
  H15      1.0000 0.93270  0.60250  0.68520  Biso   1.000  H
  H16      1.0000 0.71230  0.95610  0.04280  Biso   1.000  H
  H17      1.0000 0.66970  0.02190  0.92400  Biso   1.000  H
  H18      1.0000 0.65430  0.85670  0.96450  Biso   1.000  H
  H19      1.0000 0.53700  0.81230  0.88050  Biso   1.000  H
  H20      1.0000 0.60250  0.93270  0.81480  Biso   1.000  H
  H21      1.0000 0.04390  0.75620  0.04280  Biso   1.000  H
  H22      1.0000 0.97810  0.64780  0.92400  Biso   1.000  H
  H23      1.0000 0.14330  0.79760  0.96450  Biso   1.000  H
  H24      1.0000 0.18770  0.72470  0.88050  Biso   1.000  H
  H25      1.0000 0.06730  0.66980  0.81480  Biso   1.000  H
  H26      1.0000 0.24380  0.28770  0.04280  Biso   1.000  H
  H27      1.0000 0.35220  0.33030  0.92400  Biso   1.000  H
  H28      1.0000 0.20240  0.34570  0.96450  Biso   1.000  H
  H29      1.0000 0.27530  0.46300  0.88050  Biso   1.000  H
  H30      1.0000 0.33020  0.39750  0.81480  Biso   1.000  H
  H31      1.0000 0.24380  0.95610  0.54280  Biso   1.000  H
  H32      1.0000 0.35220  0.02190  0.42400  Biso   1.000  H
  H33      1.0000 0.20240  0.85670  0.46450  Biso   1.000  H
  H34      1.0000 0.27530  0.81230  0.38050  Biso   1.000  H
  H35      1.0000 0.33020  0.93270  0.31480  Biso   1.000  H
  H36      1.0000 0.71230  0.75620  0.54280  Biso   1.000  H
  H37      1.0000 0.66970  0.64780  0.42400  Biso   1.000  H
  H38      1.0000 0.65430  0.79760  0.46450  Biso   1.000  H
  H39      1.0000 0.53700  0.72470  0.38050  Biso   1.000  H
  H40      1.0000 0.60250  0.66980  0.31480  Biso   1.000  H
  H41      1.0000 0.04390  0.28770  0.54280  Biso   1.000  H
  H42      1.0000 0.97810  0.33030  0.42400  Biso   1.000  H
  H43      1.0000 0.14330  0.34570  0.46450  Biso   1.000  H
  H44      1.0000 0.18770  0.46300  0.38050  Biso   1.000  H
  H45      1.0000 0.06730  0.39750  0.31480  Biso   1.000  H
  H46      1.0000 0.28770  0.04390  0.95720  Biso   1.000  H
  H47      1.0000 0.33030  0.97810  0.07600  Biso   1.000  H
  H48      1.0000 0.34570  0.14330  0.03550  Biso   1.000  H
  H49      1.0000 0.46300  0.18770  0.11950  Biso   1.000  H
  H50      1.0000 0.39750  0.06730  0.18520  Biso   1.000  H
  H51      1.0000 0.95610  0.24380  0.95720  Biso   1.000  H
  H52      1.0000 0.02190  0.35220  0.07600  Biso   1.000  H
  H53      1.0000 0.85670  0.20240  0.03550  Biso   1.000  H
  H54      1.0000 0.81230  0.27530  0.11950  Biso   1.000  H
  H55      1.0000 0.93270  0.33020  0.18520  Biso   1.000  H
  H56      1.0000 0.75620  0.71230  0.95720  Biso   1.000  H
  H57      1.0000 0.64780  0.66970  0.07600  Biso   1.000  H
  H58      1.0000 0.79760  0.65430  0.03550  Biso   1.000  H
  H59      1.0000 0.72470  0.53700  0.11950  Biso   1.000  H
  H60      1.0000 0.66980  0.60250  0.18520  Biso   1.000  H
  C1       1.0000 0.72750  0.18010  0.43410  Biso   1.000  C
  C2       1.0000 0.74350  0.09640  0.49110  Biso   1.000  C
  C3       1.0000 0.66650  0.11240  0.63660  Biso   1.000  C
  C4       1.0000 0.55990  0.12110  0.65660  Biso   1.000  C
  C5       1.0000 0.45260  0.27250  0.43410  Biso   1.000  C
  C6       1.0000 0.35290  0.25650  0.49110  Biso   1.000  C
  C7       1.0000 0.44590  0.33350  0.63660  Biso   1.000  C
  C8       1.0000 0.56120  0.44010  0.65660  Biso   1.000  C
  C9       1.0000 0.81990  0.54740  0.43410  Biso   1.000  C
  C10      1.0000 0.90360  0.64710  0.49110  Biso   1.000  C
  C11      1.0000 0.88760  0.55410  0.63660  Biso   1.000  C
  C12      1.0000 0.87890  0.43880  0.65660  Biso   1.000  C
  C13      1.0000 0.54740  0.81990  0.06590  Biso   1.000  C
  C14      1.0000 0.64710  0.90360  0.00890  Biso   1.000  C
  C15      1.0000 0.55410  0.88760  0.86340  Biso   1.000  C
  C16      1.0000 0.43880  0.87890  0.84340  Biso   1.000  C
  C17      1.0000 0.18010  0.72750  0.06590  Biso   1.000  C
  C18      1.0000 0.09640  0.74350  0.00890  Biso   1.000  C
  C19      1.0000 0.11240  0.66650  0.86340  Biso   1.000  C
  C20      1.0000 0.12110  0.55990  0.84340  Biso   1.000  C
  C21      1.0000 0.27250  0.45260  0.06590  Biso   1.000  C
  C22      1.0000 0.25650  0.35290  0.00890  Biso   1.000  C
  C23      1.0000 0.33350  0.44590  0.86340  Biso   1.000  C
  C24      1.0000 0.44010  0.56120  0.84340  Biso   1.000  C
  C25      1.0000 0.27250  0.81990  0.56590  Biso   1.000  C
  C26      1.0000 0.25650  0.90360  0.50890  Biso   1.000  C
  C27      1.0000 0.33350  0.88760  0.36340  Biso   1.000  C
  C28      1.0000 0.44010  0.87890  0.34340  Biso   1.000  C
  C29      1.0000 0.54740  0.72750  0.56590  Biso   1.000  C
  C30      1.0000 0.64710  0.74350  0.50890  Biso   1.000  C
  C31      1.0000 0.55410  0.66650  0.36340  Biso   1.000  C
  C32      1.0000 0.43880  0.55990  0.34340  Biso   1.000  C
  C33      1.0000 0.18010  0.45260  0.56590  Biso   1.000  C
  C34      1.0000 0.09640  0.35290  0.50890  Biso   1.000  C
  C35      1.0000 0.11240  0.44590  0.36340  Biso   1.000  C
  C36      1.0000 0.12110  0.56120  0.34340  Biso   1.000  C
  C37      1.0000 0.45260  0.18010  0.93410  Biso   1.000  C
  C38      1.0000 0.35290  0.09640  0.99110  Biso   1.000  C
  C39      1.0000 0.44590  0.11240  0.13660  Biso   1.000  C
  C40      1.0000 0.56120  0.12110  0.15660  Biso   1.000  C
  C41      1.0000 0.81990  0.27250  0.93410  Biso   1.000  C
  C42      1.0000 0.90360  0.25650  0.99110  Biso   1.000  C
  C43      1.0000 0.88760  0.33350  0.13660  Biso   1.000  C
  C44      1.0000 0.87890  0.44010  0.15660  Biso   1.000  C
  C45      1.0000 0.72750  0.54740  0.93410  Biso   1.000  C
  C46      1.0000 0.74350  0.64710  0.99110  Biso   1.000  C
  C47      1.0000 0.66650  0.55410  0.13660  Biso   1.000  C
  C48      1.0000 0.55990  0.43880  0.15660  Biso   1.000  C
  N1       1.0000 0.65090  0.04150  0.55700  Biso   1.000  N
  N2       1.0000 0.39060  0.34910  0.55700  Biso   1.000  N
  N3       1.0000 0.95850  0.60940  0.55700  Biso   1.000  N
  N4       1.0000 0.60940  0.95850  0.94300  Biso   1.000  N
  N5       1.0000 0.04150  0.65090  0.94300  Biso   1.000  N
  N6       1.0000 0.34910  0.39060  0.94300  Biso   1.000  N
  N7       1.0000 0.34910  0.95850  0.44300  Biso   1.000  N
  N8       1.0000 0.60940  0.65090  0.44300  Biso   1.000  N
  N9       1.0000 0.04150  0.39060  0.44300  Biso   1.000  N
  N10      1.0000 0.39060  0.04150  0.05700  Biso   1.000  N
  N11      1.0000 0.95850  0.34910  0.05700  Biso   1.000  N
  N12      1.0000 0.65090  0.60940  0.05700  Biso   1.000  N
  O1       1.0000 0.63500  0.18280  0.44500  Biso   1.000  O
  O2       1.0000 0.80090  0.24110  0.37790  Biso   1.000  O
  O3       1.0000 0.47540  0.07250  0.60560  Biso   1.000  O
  O4       1.0000 0.56320  0.17700  0.72480  Biso   1.000  O
  O5       1.0000 0.54780  0.36500  0.44500  Biso   1.000  O
  O6       1.0000 0.44020  0.19910  0.37790  Biso   1.000  O
  O7       1.0000 0.59710  0.52460  0.60560  Biso   1.000  O
  O8       1.0000 0.61380  0.43680  0.72480  Biso   1.000  O
  O9       1.0000 0.81720  0.45220  0.44500  Biso   1.000  O
  O10      1.0000 0.75890  0.55980  0.37790  Biso   1.000  O
  O11      1.0000 0.92750  0.40290  0.60560  Biso   1.000  O
  O12      1.0000 0.82300  0.38620  0.72480  Biso   1.000  O
  O13      1.0000 0.45220  0.81720  0.05500  Biso   1.000  O
  O14      1.0000 0.55980  0.75890  0.12210  Biso   1.000  O
  O15      1.0000 0.40290  0.92750  0.89440  Biso   1.000  O
  O16      1.0000 0.38620  0.82300  0.77520  Biso   1.000  O
  O17      1.0000 0.18280  0.63500  0.05500  Biso   1.000  O
  O18      1.0000 0.24110  0.80090  0.12210  Biso   1.000  O
  O19      1.0000 0.07250  0.47540  0.89440  Biso   1.000  O
  O20      1.0000 0.17700  0.56320  0.77520  Biso   1.000  O
  O21      1.0000 0.36500  0.54780  0.05500  Biso   1.000  O
  O22      1.0000 0.19910  0.44020  0.12210  Biso   1.000  O
  O23      1.0000 0.52460  0.59710  0.89440  Biso   1.000  O
  O24      1.0000 0.43680  0.61380  0.77520  Biso   1.000  O
  O25      1.0000 0.36500  0.81720  0.55500  Biso   1.000  O
  O26      1.0000 0.19910  0.75890  0.62210  Biso   1.000  O
  O27      1.0000 0.52460  0.92750  0.39440  Biso   1.000  O
  O28      1.0000 0.43680  0.82300  0.27520  Biso   1.000  O
  O29      1.0000 0.45220  0.63500  0.55500  Biso   1.000  O
  O30      1.0000 0.55980  0.80090  0.62210  Biso   1.000  O
  O31      1.0000 0.40290  0.47540  0.39440  Biso   1.000  O
  O32      1.0000 0.38620  0.56320  0.27520  Biso   1.000  O
  O33      1.0000 0.18280  0.54780  0.55500  Biso   1.000  O
  O34      1.0000 0.24110  0.44020  0.62210  Biso   1.000  O
  O35      1.0000 0.07250  0.59710  0.39440  Biso   1.000  O
  O36      1.0000 0.17700  0.61380  0.27520  Biso   1.000  O
  O37      1.0000 0.54780  0.18280  0.94500  Biso   1.000  O
  O38      1.0000 0.44020  0.24110  0.87790  Biso   1.000  O
  O39      1.0000 0.59710  0.07250  0.10560  Biso   1.000  O
  O40      1.0000 0.61380  0.17700  0.22480  Biso   1.000  O
  O41      1.0000 0.81720  0.36500  0.94500  Biso   1.000  O
  O42      1.0000 0.75890  0.19910  0.87790  Biso   1.000  O
  O43      1.0000 0.92750  0.52460  0.10560  Biso   1.000  O
  O44      1.0000 0.82300  0.43680  0.22480  Biso   1.000  O
  O45      1.0000 0.63500  0.45220  0.94500  Biso   1.000  O
  O46      1.0000 0.80090  0.55980  0.87790  Biso   1.000  O
  O47      1.0000 0.47540  0.40290  0.10560  Biso   1.000  O
  O48      1.0000 0.56320  0.38620  0.22480  Biso   1.000  O
