data_image0
_cell_length_a       13.3819
_cell_length_b       13.3819
_cell_length_c       14.933
_cell_angle_alpha    90
_cell_angle_beta     90
_cell_angle_gamma    120

_symmetry_space_group_name_H-M    P 1
_symmetry_int_tables_number       1

loop_
  _symmetry_equiv_pos_as_xyz
  'x, y, z'

loop_
  _atom_site_label
  _atom_site_occupancy
  _atom_site_fract_x
  _atom_site_fract_y
  _atom_site_fract_z
  _atom_site_thermal_displace_type
  _atom_site_B_iso_or_equiv
  _atom_site_type_symbol
  La1      1.0000 0.33333  0.66666  0.67018  Biso   1.000  La
  La2      1.0000 0.66667  0.33334  0.82982  Biso   1.000  La
  La3      1.0000 0.66667  0.33334  0.32982  Biso   1.000  La
  La4      1.0000 0.33333  0.66666  0.17018  Biso   1.000  La
  Cu1      1.0000 0.50000  0.50000  0.50000  Biso   1.000  Cu
  Cu2      1.0000 0.00000  0.50000  0.50000  Biso   1.000  Cu
  Cu3      1.0000 0.50000  0.00000  0.50000  Biso   1.000  Cu
  Cu4      1.0000 0.00000  0.50000  0.00000  Biso   1.000  Cu
  Cu5      1.0000 0.50000  0.50000  0.00000  Biso   1.000  Cu
  Cu6      1.0000 0.50000  0.00000  0.00000  Biso   1.000  Cu
  H1       1.0000 0.19960  0.34600  0.46380  Biso   1.000  H
  H2       1.0000 0.24170  0.28360  0.54260  Biso   1.000  H
  H3       1.0000 0.27220  0.45930  0.37980  Biso   1.000  H
  H4       1.0000 0.32950  0.39480  0.31580  Biso   1.000  H
  H5       1.0000 0.35310  0.32700  0.42460  Biso   1.000  H
  H6       1.0000 0.14640  0.80040  0.46380  Biso   1.000  H
  H7       1.0000 0.04190  0.75830  0.54260  Biso   1.000  H
  H8       1.0000 0.18710  0.72780  0.37980  Biso   1.000  H
  H9       1.0000 0.06530  0.67050  0.31580  Biso   1.000  H
  H10      1.0000 0.97390  0.64690  0.42460  Biso   1.000  H
  H11      1.0000 0.65400  0.85360  0.46380  Biso   1.000  H
  H12      1.0000 0.71640  0.95810  0.54260  Biso   1.000  H
  H13      1.0000 0.54070  0.81290  0.37980  Biso   1.000  H
  H14      1.0000 0.60520  0.93470  0.31580  Biso   1.000  H
  H15      1.0000 0.67300  0.02610  0.42460  Biso   1.000  H
  H16      1.0000 0.85360  0.65400  0.03620  Biso   1.000  H
  H17      1.0000 0.95810  0.71640  0.95740  Biso   1.000  H
  H18      1.0000 0.81290  0.54070  0.12020  Biso   1.000  H
  H19      1.0000 0.93470  0.60520  0.18420  Biso   1.000  H
  H20      1.0000 0.02610  0.67300  0.07540  Biso   1.000  H
  H21      1.0000 0.34600  0.19960  0.03620  Biso   1.000  H
  H22      1.0000 0.28360  0.24170  0.95740  Biso   1.000  H
  H23      1.0000 0.45930  0.27220  0.12020  Biso   1.000  H
  H24      1.0000 0.39480  0.32950  0.18420  Biso   1.000  H
  H25      1.0000 0.32700  0.35310  0.07540  Biso   1.000  H
  H26      1.0000 0.80040  0.14640  0.03620  Biso   1.000  H
  H27      1.0000 0.75830  0.04190  0.95740  Biso   1.000  H
  H28      1.0000 0.72780  0.18710  0.12020  Biso   1.000  H
  H29      1.0000 0.67050  0.06530  0.18420  Biso   1.000  H
  H30      1.0000 0.64690  0.97390  0.07540  Biso   1.000  H
  H31      1.0000 0.80040  0.65400  0.53620  Biso   1.000  H
  H32      1.0000 0.75830  0.71640  0.45740  Biso   1.000  H
  H33      1.0000 0.72780  0.54070  0.62020  Biso   1.000  H
  H34      1.0000 0.67050  0.60520  0.68420  Biso   1.000  H
  H35      1.0000 0.64690  0.67300  0.57540  Biso   1.000  H
  H36      1.0000 0.85360  0.19960  0.53620  Biso   1.000  H
  H37      1.0000 0.95810  0.24170  0.45740  Biso   1.000  H
  H38      1.0000 0.81290  0.27220  0.62020  Biso   1.000  H
  H39      1.0000 0.93470  0.32950  0.68420  Biso   1.000  H
  H40      1.0000 0.02610  0.35310  0.57540  Biso   1.000  H
  H41      1.0000 0.34600  0.14640  0.53620  Biso   1.000  H
  H42      1.0000 0.28360  0.04190  0.45740  Biso   1.000  H
  H43      1.0000 0.45930  0.18710  0.62020  Biso   1.000  H
  H44      1.0000 0.39480  0.06530  0.68420  Biso   1.000  H
  H45      1.0000 0.32700  0.97390  0.57540  Biso   1.000  H
  H46      1.0000 0.14640  0.34600  0.96380  Biso   1.000  H
  H47      1.0000 0.04190  0.28360  0.04260  Biso   1.000  H
  H48      1.0000 0.18710  0.45930  0.87980  Biso   1.000  H
  H49      1.0000 0.06530  0.39480  0.81580  Biso   1.000  H
  H50      1.0000 0.97390  0.32700  0.92460  Biso   1.000  H
  H51      1.0000 0.65400  0.80040  0.96380  Biso   1.000  H
  H52      1.0000 0.71640  0.75830  0.04260  Biso   1.000  H
  H53      1.0000 0.54070  0.72780  0.87980  Biso   1.000  H
  H54      1.0000 0.60520  0.67050  0.81580  Biso   1.000  H
  H55      1.0000 0.67300  0.64690  0.92460  Biso   1.000  H
  H56      1.0000 0.19960  0.85360  0.96380  Biso   1.000  H
  H57      1.0000 0.24170  0.95810  0.04260  Biso   1.000  H
  H58      1.0000 0.27220  0.81290  0.87980  Biso   1.000  H
  H59      1.0000 0.32950  0.93470  0.81580  Biso   1.000  H
  H60      1.0000 0.35310  0.02610  0.92460  Biso   1.000  H
  C1       1.0000 0.27010  0.45000  0.56710  Biso   1.000  C
  C2       1.0000 0.25350  0.34930  0.50820  Biso   1.000  C
  C3       1.0000 0.33280  0.44440  0.36330  Biso   1.000  C
  C4       1.0000 0.43860  0.56000  0.34370  Biso   1.000  C
  C5       1.0000 0.17990  0.72990  0.56710  Biso   1.000  C
  C6       1.0000 0.09580  0.74650  0.50820  Biso   1.000  C
  C7       1.0000 0.11160  0.66720  0.36330  Biso   1.000  C
  C8       1.0000 0.12140  0.56140  0.34370  Biso   1.000  C
  C9       1.0000 0.55000  0.82010  0.56710  Biso   1.000  C
  C10      1.0000 0.65070  0.90420  0.50820  Biso   1.000  C
  C11      1.0000 0.55560  0.88840  0.36330  Biso   1.000  C
  C12      1.0000 0.44000  0.87860  0.34370  Biso   1.000  C
  C13      1.0000 0.82010  0.55000  0.93290  Biso   1.000  C
  C14      1.0000 0.90420  0.65070  0.99180  Biso   1.000  C
  C15      1.0000 0.88840  0.55560  0.13670  Biso   1.000  C
  C16      1.0000 0.87860  0.44000  0.15630  Biso   1.000  C
  C17      1.0000 0.45000  0.27010  0.93290  Biso   1.000  C
  C18      1.0000 0.34930  0.25350  0.99180  Biso   1.000  C
  C19      1.0000 0.44440  0.33280  0.13670  Biso   1.000  C
  C20      1.0000 0.56000  0.43860  0.15630  Biso   1.000  C
  C21      1.0000 0.72990  0.17990  0.93290  Biso   1.000  C
  C22      1.0000 0.74650  0.09580  0.99180  Biso   1.000  C
  C23      1.0000 0.66720  0.11160  0.13670  Biso   1.000  C
  C24      1.0000 0.56140  0.12140  0.15630  Biso   1.000  C
  C25      1.0000 0.72990  0.55000  0.43290  Biso   1.000  C
  C26      1.0000 0.74650  0.65070  0.49180  Biso   1.000  C
  C27      1.0000 0.66720  0.55560  0.63670  Biso   1.000  C
  C28      1.0000 0.56140  0.44000  0.65630  Biso   1.000  C
  C29      1.0000 0.82010  0.27010  0.43290  Biso   1.000  C
  C30      1.0000 0.90420  0.25350  0.49180  Biso   1.000  C
  C31      1.0000 0.88840  0.33280  0.63670  Biso   1.000  C
  C32      1.0000 0.87860  0.43860  0.65630  Biso   1.000  C
  C33      1.0000 0.45000  0.17990  0.43290  Biso   1.000  C
  C34      1.0000 0.34930  0.09580  0.49180  Biso   1.000  C
  C35      1.0000 0.44440  0.11160  0.63670  Biso   1.000  C
  C36      1.0000 0.56000  0.12140  0.65630  Biso   1.000  C
  C37      1.0000 0.17990  0.45000  0.06710  Biso   1.000  C
  C38      1.0000 0.09580  0.34930  0.00820  Biso   1.000  C
  C39      1.0000 0.11160  0.44440  0.86330  Biso   1.000  C
  C40      1.0000 0.12140  0.56000  0.84370  Biso   1.000  C
  C41      1.0000 0.55000  0.72990  0.06710  Biso   1.000  C
  C42      1.0000 0.65070  0.74650  0.00820  Biso   1.000  C
  C43      1.0000 0.55560  0.66720  0.86330  Biso   1.000  C
  C44      1.0000 0.44000  0.56140  0.84370  Biso   1.000  C
  C45      1.0000 0.27010  0.82010  0.06710  Biso   1.000  C
  C46      1.0000 0.25350  0.90420  0.00820  Biso   1.000  C
  C47      1.0000 0.33280  0.88840  0.86330  Biso   1.000  C
  C48      1.0000 0.43860  0.87860  0.84370  Biso   1.000  C
  N1       1.0000 0.34890  0.38760  0.44300  Biso   1.000  N
  N2       1.0000 0.03870  0.65110  0.44300  Biso   1.000  N
  N3       1.0000 0.61240  0.96130  0.44300  Biso   1.000  N
  N4       1.0000 0.96130  0.61240  0.05700  Biso   1.000  N
  N5       1.0000 0.38760  0.34890  0.05700  Biso   1.000  N
  N6       1.0000 0.65110  0.03870  0.05700  Biso   1.000  N
  N7       1.0000 0.65110  0.61240  0.55700  Biso   1.000  N
  N8       1.0000 0.96130  0.34890  0.55700  Biso   1.000  N
  N9       1.0000 0.38760  0.03870  0.55700  Biso   1.000  N
  N10      1.0000 0.03870  0.38760  0.94300  Biso   1.000  N
  N11      1.0000 0.61240  0.65110  0.94300  Biso   1.000  N
  N12      1.0000 0.34890  0.96130  0.94300  Biso   1.000  N
  O1       1.0000 0.36230  0.54450  0.55780  Biso   1.000  O
  O2       1.0000 0.19450  0.43440  0.62300  Biso   1.000  O
  O3       1.0000 0.52250  0.59830  0.39640  Biso   1.000  O
  O4       1.0000 0.43720  0.61290  0.27590  Biso   1.000  O
  O5       1.0000 0.18220  0.63770  0.55780  Biso   1.000  O
  O6       1.0000 0.23990  0.80550  0.62300  Biso   1.000  O
  O7       1.0000 0.07580  0.47750  0.39640  Biso   1.000  O
  O8       1.0000 0.17570  0.56280  0.27590  Biso   1.000  O
  O9       1.0000 0.45550  0.81780  0.55780  Biso   1.000  O
  O10      1.0000 0.56560  0.76010  0.62300  Biso   1.000  O
  O11      1.0000 0.40170  0.92420  0.39640  Biso   1.000  O
  O12      1.0000 0.38710  0.82430  0.27590  Biso   1.000  O
  O13      1.0000 0.81780  0.45550  0.94220  Biso   1.000  O
  O14      1.0000 0.76010  0.56560  0.87700  Biso   1.000  O
  O15      1.0000 0.92420  0.40170  0.10360  Biso   1.000  O
  O16      1.0000 0.82430  0.38710  0.22410  Biso   1.000  O
  O17      1.0000 0.54450  0.36230  0.94220  Biso   1.000  O
  O18      1.0000 0.43440  0.19450  0.87700  Biso   1.000  O
  O19      1.0000 0.59830  0.52250  0.10360  Biso   1.000  O
  O20      1.0000 0.61290  0.43720  0.22410  Biso   1.000  O
  O21      1.0000 0.63770  0.18220  0.94220  Biso   1.000  O
  O22      1.0000 0.80550  0.23990  0.87700  Biso   1.000  O
  O23      1.0000 0.47750  0.07580  0.10360  Biso   1.000  O
  O24      1.0000 0.56280  0.17570  0.22410  Biso   1.000  O
  O25      1.0000 0.63770  0.45550  0.44220  Biso   1.000  O
  O26      1.0000 0.80550  0.56560  0.37700  Biso   1.000  O
  O27      1.0000 0.47750  0.40170  0.60360  Biso   1.000  O
  O28      1.0000 0.56280  0.38710  0.72410  Biso   1.000  O
  O29      1.0000 0.81780  0.36230  0.44220  Biso   1.000  O
  O30      1.0000 0.76010  0.19450  0.37700  Biso   1.000  O
  O31      1.0000 0.92420  0.52250  0.60360  Biso   1.000  O
  O32      1.0000 0.82430  0.43720  0.72410  Biso   1.000  O
  O33      1.0000 0.54450  0.18220  0.44220  Biso   1.000  O
  O34      1.0000 0.43440  0.23990  0.37700  Biso   1.000  O
  O35      1.0000 0.59830  0.07580  0.60360  Biso   1.000  O
  O36      1.0000 0.61290  0.17570  0.72410  Biso   1.000  O
  O37      1.0000 0.18220  0.54450  0.05780  Biso   1.000  O
  O38      1.0000 0.23990  0.43440  0.12300  Biso   1.000  O
  O39      1.0000 0.07580  0.59830  0.89640  Biso   1.000  O
  O40      1.0000 0.17570  0.61290  0.77590  Biso   1.000  O
  O41      1.0000 0.45550  0.63770  0.05780  Biso   1.000  O
  O42      1.0000 0.56560  0.80550  0.12300  Biso   1.000  O
  O43      1.0000 0.40170  0.47750  0.89640  Biso   1.000  O
  O44      1.0000 0.38710  0.56280  0.77590  Biso   1.000  O
  O45      1.0000 0.36230  0.81780  0.05780  Biso   1.000  O
  O46      1.0000 0.19450  0.76010  0.12300  Biso   1.000  O
  O47      1.0000 0.52250  0.92420  0.89640  Biso   1.000  O
  O48      1.0000 0.43720  0.82430  0.77590  Biso   1.000  O
