data_image0
_cell_length_a       13.5136
_cell_length_b       13.5136
_cell_length_c       14.795
_cell_angle_alpha    90
_cell_angle_beta     90
_cell_angle_gamma    120

_symmetry_space_group_name_H-M    P 1
_symmetry_int_tables_number       1

loop_
  _symmetry_equiv_pos_as_xyz
  'x, y, z'

loop_
  _atom_site_label
  _atom_site_occupancy
  _atom_site_fract_x
  _atom_site_fract_y
  _atom_site_fract_z
  _atom_site_thermal_displace_type
  _atom_site_B_iso_or_equiv
  _atom_site_type_symbol
  La1      1.0000 0.66667  0.33334  0.33300  Biso   1.000  La
  La2      1.0000 0.33333  0.66666  0.16700  Biso   1.000  La
  La3      1.0000 0.33333  0.66666  0.66700  Biso   1.000  La
  La4      1.0000 0.66667  0.33334  0.83300  Biso   1.000  La
  Cu1      1.0000 0.50000  0.00000  0.50000  Biso   1.000  Cu
  Cu2      1.0000 0.50000  0.50000  0.50000  Biso   1.000  Cu
  Cu3      1.0000 0.00000  0.50000  0.50000  Biso   1.000  Cu
  Cu4      1.0000 0.50000  0.00000  0.00000  Biso   1.000  Cu
  Cu5      1.0000 0.00000  0.50000  0.00000  Biso   1.000  Cu
  Cu6      1.0000 0.50000  0.50000  0.00000  Biso   1.000  Cu
  H1       1.0000 0.79980  0.13990  0.53480  Biso   1.000  H
  H2       1.0000 0.75300  0.04190  0.45500  Biso   1.000  H
  H3       1.0000 0.72510  0.18860  0.62160  Biso   1.000  H
  H4       1.0000 0.67050  0.06870  0.68610  Biso   1.000  H
  H5       1.0000 0.64700  0.97520  0.57750  Biso   1.000  H
  H6       1.0000 0.34010  0.20020  0.53480  Biso   1.000  H
  H7       1.0000 0.28890  0.24700  0.45500  Biso   1.000  H
  H8       1.0000 0.46350  0.27490  0.62160  Biso   1.000  H
  H9       1.0000 0.39820  0.32950  0.68610  Biso   1.000  H
  H10      1.0000 0.32820  0.35300  0.57750  Biso   1.000  H
  H11      1.0000 0.86010  0.65990  0.53480  Biso   1.000  H
  H12      1.0000 0.95810  0.71110  0.45500  Biso   1.000  H
  H13      1.0000 0.81140  0.53650  0.62160  Biso   1.000  H
  H14      1.0000 0.93130  0.60180  0.68610  Biso   1.000  H
  H15      1.0000 0.02480  0.67180  0.57750  Biso   1.000  H
  H16      1.0000 0.65990  0.86010  0.96520  Biso   1.000  H
  H17      1.0000 0.71110  0.95810  0.04500  Biso   1.000  H
  H18      1.0000 0.53650  0.81140  0.87840  Biso   1.000  H
  H19      1.0000 0.60180  0.93130  0.81390  Biso   1.000  H
  H20      1.0000 0.67180  0.02480  0.92250  Biso   1.000  H
  H21      1.0000 0.13990  0.79980  0.96520  Biso   1.000  H
  H22      1.0000 0.04190  0.75300  0.04500  Biso   1.000  H
  H23      1.0000 0.18860  0.72510  0.87840  Biso   1.000  H
  H24      1.0000 0.06870  0.67050  0.81390  Biso   1.000  H
  H25      1.0000 0.97520  0.64700  0.92250  Biso   1.000  H
  H26      1.0000 0.20020  0.34010  0.96520  Biso   1.000  H
  H27      1.0000 0.24700  0.28890  0.04500  Biso   1.000  H
  H28      1.0000 0.27490  0.46350  0.87840  Biso   1.000  H
  H29      1.0000 0.32950  0.39820  0.81390  Biso   1.000  H
  H30      1.0000 0.35300  0.32820  0.92250  Biso   1.000  H
  H31      1.0000 0.20020  0.86010  0.46520  Biso   1.000  H
  H32      1.0000 0.24700  0.95810  0.54500  Biso   1.000  H
  H33      1.0000 0.27490  0.81140  0.37840  Biso   1.000  H
  H34      1.0000 0.32950  0.93130  0.31390  Biso   1.000  H
  H35      1.0000 0.35300  0.02480  0.42250  Biso   1.000  H
  H36      1.0000 0.65990  0.79980  0.46520  Biso   1.000  H
  H37      1.0000 0.71110  0.75300  0.54500  Biso   1.000  H
  H38      1.0000 0.53650  0.72510  0.37840  Biso   1.000  H
  H39      1.0000 0.60180  0.67050  0.31390  Biso   1.000  H
  H40      1.0000 0.67180  0.64700  0.42250  Biso   1.000  H
  H41      1.0000 0.13990  0.34010  0.46520  Biso   1.000  H
  H42      1.0000 0.04190  0.28890  0.54500  Biso   1.000  H
  H43      1.0000 0.18860  0.46350  0.37840  Biso   1.000  H
  H44      1.0000 0.06870  0.39820  0.31390  Biso   1.000  H
  H45      1.0000 0.97520  0.32820  0.42250  Biso   1.000  H
  H46      1.0000 0.34010  0.13990  0.03480  Biso   1.000  H
  H47      1.0000 0.28890  0.04190  0.95500  Biso   1.000  H
  H48      1.0000 0.46350  0.18860  0.12160  Biso   1.000  H
  H49      1.0000 0.39820  0.06870  0.18610  Biso   1.000  H
  H50      1.0000 0.32820  0.97520  0.07750  Biso   1.000  H
  H51      1.0000 0.86010  0.20020  0.03480  Biso   1.000  H
  H52      1.0000 0.95810  0.24700  0.95500  Biso   1.000  H
  H53      1.0000 0.81140  0.27490  0.12160  Biso   1.000  H
  H54      1.0000 0.93130  0.32950  0.18610  Biso   1.000  H
  H55      1.0000 0.02480  0.35300  0.07750  Biso   1.000  H
  H56      1.0000 0.79980  0.65990  0.03480  Biso   1.000  H
  H57      1.0000 0.75300  0.71110  0.95500  Biso   1.000  H
  H58      1.0000 0.72510  0.53650  0.12160  Biso   1.000  H
  H59      1.0000 0.67050  0.60180  0.18610  Biso   1.000  H
  H60      1.0000 0.64700  0.67180  0.07750  Biso   1.000  H
  C1       1.0000 0.72660  0.18020  0.43530  Biso   1.000  C
  C2       1.0000 0.74310  0.09470  0.49150  Biso   1.000  C
  C3       1.0000 0.66610  0.11290  0.63770  Biso   1.000  C
  C4       1.0000 0.55910  0.12020  0.65850  Biso   1.000  C
  C5       1.0000 0.45360  0.27340  0.43530  Biso   1.000  C
  C6       1.0000 0.35160  0.25690  0.49150  Biso   1.000  C
  C7       1.0000 0.44680  0.33390  0.63770  Biso   1.000  C
  C8       1.0000 0.56110  0.44090  0.65850  Biso   1.000  C
  C9       1.0000 0.81980  0.54640  0.43530  Biso   1.000  C
  C10      1.0000 0.90530  0.64840  0.49150  Biso   1.000  C
  C11      1.0000 0.88710  0.55320  0.63770  Biso   1.000  C
  C12      1.0000 0.87980  0.43890  0.65850  Biso   1.000  C
  C13      1.0000 0.54640  0.81980  0.06470  Biso   1.000  C
  C14      1.0000 0.64840  0.90530  0.00850  Biso   1.000  C
  C15      1.0000 0.55320  0.88710  0.86230  Biso   1.000  C
  C16      1.0000 0.43890  0.87980  0.84150  Biso   1.000  C
  C17      1.0000 0.18020  0.72660  0.06470  Biso   1.000  C
  C18      1.0000 0.09470  0.74310  0.00850  Biso   1.000  C
  C19      1.0000 0.11290  0.66610  0.86230  Biso   1.000  C
  C20      1.0000 0.12020  0.55910  0.84150  Biso   1.000  C
  C21      1.0000 0.27340  0.45360  0.06470  Biso   1.000  C
  C22      1.0000 0.25690  0.35160  0.00850  Biso   1.000  C
  C23      1.0000 0.33390  0.44680  0.86230  Biso   1.000  C
  C24      1.0000 0.44090  0.56110  0.84150  Biso   1.000  C
  C25      1.0000 0.27340  0.81980  0.56470  Biso   1.000  C
  C26      1.0000 0.25690  0.90530  0.50850  Biso   1.000  C
  C27      1.0000 0.33390  0.88710  0.36230  Biso   1.000  C
  C28      1.0000 0.44090  0.87980  0.34150  Biso   1.000  C
  C29      1.0000 0.54640  0.72660  0.56470  Biso   1.000  C
  C30      1.0000 0.64840  0.74310  0.50850  Biso   1.000  C
  C31      1.0000 0.55320  0.66610  0.36230  Biso   1.000  C
  C32      1.0000 0.43890  0.55910  0.34150  Biso   1.000  C
  C33      1.0000 0.18020  0.45360  0.56470  Biso   1.000  C
  C34      1.0000 0.09470  0.35160  0.50850  Biso   1.000  C
  C35      1.0000 0.11290  0.44680  0.36230  Biso   1.000  C
  C36      1.0000 0.12020  0.56110  0.34150  Biso   1.000  C
  C37      1.0000 0.45360  0.18020  0.93530  Biso   1.000  C
  C38      1.0000 0.35160  0.09470  0.99150  Biso   1.000  C
  C39      1.0000 0.44680  0.11290  0.13770  Biso   1.000  C
  C40      1.0000 0.56110  0.12020  0.15850  Biso   1.000  C
  C41      1.0000 0.81980  0.27340  0.93530  Biso   1.000  C
  C42      1.0000 0.90530  0.25690  0.99150  Biso   1.000  C
  C43      1.0000 0.88710  0.33390  0.13770  Biso   1.000  C
  C44      1.0000 0.87980  0.44090  0.15850  Biso   1.000  C
  C45      1.0000 0.72660  0.54640  0.93530  Biso   1.000  C
  C46      1.0000 0.74310  0.64840  0.99150  Biso   1.000  C
  C47      1.0000 0.66610  0.55320  0.13770  Biso   1.000  C
  C48      1.0000 0.55910  0.43890  0.15850  Biso   1.000  C
  N1       1.0000 0.64990  0.03880  0.55890  Biso   1.000  N
  N2       1.0000 0.38890  0.35010  0.55890  Biso   1.000  N
  N3       1.0000 0.96120  0.61110  0.55890  Biso   1.000  N
  N4       1.0000 0.61110  0.96120  0.94110  Biso   1.000  N
  N5       1.0000 0.03880  0.64990  0.94110  Biso   1.000  N
  N6       1.0000 0.35010  0.38890  0.94110  Biso   1.000  N
  N7       1.0000 0.35010  0.96120  0.44110  Biso   1.000  N
  N8       1.0000 0.61110  0.64990  0.44110  Biso   1.000  N
  N9       1.0000 0.03880  0.38890  0.44110  Biso   1.000  N
  N10      1.0000 0.38890  0.03880  0.05890  Biso   1.000  N
  N11      1.0000 0.96120  0.35010  0.05890  Biso   1.000  N
  N12      1.0000 0.64990  0.61110  0.05890  Biso   1.000  N
  O1       1.0000 0.63620  0.18410  0.44730  Biso   1.000  O
  O2       1.0000 0.80020  0.24060  0.37800  Biso   1.000  O
  O3       1.0000 0.47450  0.07030  0.60680  Biso   1.000  O
  O4       1.0000 0.56210  0.17610  0.72610  Biso   1.000  O
  O5       1.0000 0.54790  0.36380  0.44730  Biso   1.000  O
  O6       1.0000 0.44040  0.19980  0.37800  Biso   1.000  O
  O7       1.0000 0.59580  0.52550  0.60680  Biso   1.000  O
  O8       1.0000 0.61400  0.43790  0.72610  Biso   1.000  O
  O9       1.0000 0.81590  0.45210  0.44730  Biso   1.000  O
  O10      1.0000 0.75940  0.55960  0.37800  Biso   1.000  O
  O11      1.0000 0.92970  0.40420  0.60680  Biso   1.000  O
  O12      1.0000 0.82390  0.38600  0.72610  Biso   1.000  O
  O13      1.0000 0.45210  0.81590  0.05270  Biso   1.000  O
  O14      1.0000 0.55960  0.75940  0.12200  Biso   1.000  O
  O15      1.0000 0.40420  0.92970  0.89320  Biso   1.000  O
  O16      1.0000 0.38600  0.82390  0.77390  Biso   1.000  O
  O17      1.0000 0.18410  0.63620  0.05270  Biso   1.000  O
  O18      1.0000 0.24060  0.80020  0.12200  Biso   1.000  O
  O19      1.0000 0.07030  0.47450  0.89320  Biso   1.000  O
  O20      1.0000 0.17610  0.56210  0.77390  Biso   1.000  O
  O21      1.0000 0.36380  0.54790  0.05270  Biso   1.000  O
  O22      1.0000 0.19980  0.44040  0.12200  Biso   1.000  O
  O23      1.0000 0.52550  0.59580  0.89320  Biso   1.000  O
  O24      1.0000 0.43790  0.61400  0.77390  Biso   1.000  O
  O25      1.0000 0.36380  0.81590  0.55270  Biso   1.000  O
  O26      1.0000 0.19980  0.75940  0.62200  Biso   1.000  O
  O27      1.0000 0.52550  0.92970  0.39320  Biso   1.000  O
  O28      1.0000 0.43790  0.82390  0.27390  Biso   1.000  O
  O29      1.0000 0.45210  0.63620  0.55270  Biso   1.000  O
  O30      1.0000 0.55960  0.80020  0.62200  Biso   1.000  O
  O31      1.0000 0.40420  0.47450  0.39320  Biso   1.000  O
  O32      1.0000 0.38600  0.56210  0.27390  Biso   1.000  O
  O33      1.0000 0.18410  0.54790  0.55270  Biso   1.000  O
  O34      1.0000 0.24060  0.44040  0.62200  Biso   1.000  O
  O35      1.0000 0.07030  0.59580  0.39320  Biso   1.000  O
  O36      1.0000 0.17610  0.61400  0.27390  Biso   1.000  O
  O37      1.0000 0.54790  0.18410  0.94730  Biso   1.000  O
  O38      1.0000 0.44040  0.24060  0.87800  Biso   1.000  O
  O39      1.0000 0.59580  0.07030  0.10680  Biso   1.000  O
  O40      1.0000 0.61400  0.17610  0.22610  Biso   1.000  O
  O41      1.0000 0.81590  0.36380  0.94730  Biso   1.000  O
  O42      1.0000 0.75940  0.19980  0.87800  Biso   1.000  O
  O43      1.0000 0.92970  0.52550  0.10680  Biso   1.000  O
  O44      1.0000 0.82390  0.43790  0.22610  Biso   1.000  O
  O45      1.0000 0.63620  0.45210  0.94730  Biso   1.000  O
  O46      1.0000 0.80020  0.55960  0.87800  Biso   1.000  O
  O47      1.0000 0.47450  0.40420  0.10680  Biso   1.000  O
  O48      1.0000 0.56210  0.38600  0.22610  Biso   1.000  O
