data_image0
_cell_length_a       13.5039
_cell_length_b       13.5039
_cell_length_c       14.897
_cell_angle_alpha    90
_cell_angle_beta     90
_cell_angle_gamma    120

_symmetry_space_group_name_H-M    P 1
_symmetry_int_tables_number       1

loop_
  _symmetry_equiv_pos_as_xyz
  'x, y, z'

loop_
  _atom_site_label
  _atom_site_occupancy
  _atom_site_fract_x
  _atom_site_fract_y
  _atom_site_fract_z
  _atom_site_thermal_displace_type
  _atom_site_B_iso_or_equiv
  _atom_site_type_symbol
  La1      1.0000 0.66667  0.33334  0.33090  Biso   1.000  La
  La2      1.0000 0.33333  0.66666  0.16910  Biso   1.000  La
  La3      1.0000 0.33333  0.66666  0.66910  Biso   1.000  La
  La4      1.0000 0.66667  0.33334  0.83090  Biso   1.000  La
  Cu1      1.0000 0.50000  0.00000  0.50000  Biso   1.000  Cu
  Cu2      1.0000 0.50000  0.50000  0.50000  Biso   1.000  Cu
  Cu3      1.0000 0.00000  0.50000  0.50000  Biso   1.000  Cu
  Cu4      1.0000 0.50000  0.00000  0.00000  Biso   1.000  Cu
  Cu5      1.0000 0.00000  0.50000  0.00000  Biso   1.000  Cu
  Cu6      1.0000 0.50000  0.50000  0.00000  Biso   1.000  Cu
  H1       1.0000 0.79940  0.14290  0.53400  Biso   1.000  H
  H2       1.0000 0.75370  0.04250  0.45450  Biso   1.000  H
  H3       1.0000 0.72620  0.18900  0.62010  Biso   1.000  H
  H4       1.0000 0.67030  0.06780  0.68410  Biso   1.000  H
  H5       1.0000 0.64790  0.97680  0.57580  Biso   1.000  H
  H6       1.0000 0.34350  0.20060  0.53400  Biso   1.000  H
  H7       1.0000 0.28880  0.24630  0.45450  Biso   1.000  H
  H8       1.0000 0.46280  0.27380  0.62010  Biso   1.000  H
  H9       1.0000 0.39750  0.32970  0.68410  Biso   1.000  H
  H10      1.0000 0.32890  0.35210  0.57580  Biso   1.000  H
  H11      1.0000 0.85710  0.65650  0.53400  Biso   1.000  H
  H12      1.0000 0.95750  0.71120  0.45450  Biso   1.000  H
  H13      1.0000 0.81100  0.53720  0.62010  Biso   1.000  H
  H14      1.0000 0.93220  0.60250  0.68410  Biso   1.000  H
  H15      1.0000 0.02320  0.67110  0.57580  Biso   1.000  H
  H16      1.0000 0.65650  0.85710  0.96600  Biso   1.000  H
  H17      1.0000 0.71120  0.95750  0.04550  Biso   1.000  H
  H18      1.0000 0.53720  0.81100  0.87990  Biso   1.000  H
  H19      1.0000 0.60250  0.93220  0.81590  Biso   1.000  H
  H20      1.0000 0.67110  0.02320  0.92420  Biso   1.000  H
  H21      1.0000 0.14290  0.79940  0.96600  Biso   1.000  H
  H22      1.0000 0.04250  0.75370  0.04550  Biso   1.000  H
  H23      1.0000 0.18900  0.72620  0.87990  Biso   1.000  H
  H24      1.0000 0.06780  0.67030  0.81590  Biso   1.000  H
  H25      1.0000 0.97680  0.64790  0.92420  Biso   1.000  H
  H26      1.0000 0.20060  0.34350  0.96600  Biso   1.000  H
  H27      1.0000 0.24630  0.28880  0.04550  Biso   1.000  H
  H28      1.0000 0.27380  0.46280  0.87990  Biso   1.000  H
  H29      1.0000 0.32970  0.39750  0.81590  Biso   1.000  H
  H30      1.0000 0.35210  0.32890  0.92420  Biso   1.000  H
  H31      1.0000 0.20060  0.85710  0.46600  Biso   1.000  H
  H32      1.0000 0.24630  0.95750  0.54550  Biso   1.000  H
  H33      1.0000 0.27380  0.81100  0.37990  Biso   1.000  H
  H34      1.0000 0.32970  0.93220  0.31590  Biso   1.000  H
  H35      1.0000 0.35210  0.02320  0.42420  Biso   1.000  H
  H36      1.0000 0.65650  0.79940  0.46600  Biso   1.000  H
  H37      1.0000 0.71120  0.75370  0.54550  Biso   1.000  H
  H38      1.0000 0.53720  0.72620  0.37990  Biso   1.000  H
  H39      1.0000 0.60250  0.67030  0.31590  Biso   1.000  H
  H40      1.0000 0.67110  0.64790  0.42420  Biso   1.000  H
  H41      1.0000 0.14290  0.34350  0.46600  Biso   1.000  H
  H42      1.0000 0.04250  0.28880  0.54550  Biso   1.000  H
  H43      1.0000 0.18900  0.46280  0.37990  Biso   1.000  H
  H44      1.0000 0.06780  0.39750  0.31590  Biso   1.000  H
  H45      1.0000 0.97680  0.32890  0.42420  Biso   1.000  H
  H46      1.0000 0.34350  0.14290  0.03400  Biso   1.000  H
  H47      1.0000 0.28880  0.04250  0.95450  Biso   1.000  H
  H48      1.0000 0.46280  0.18900  0.12010  Biso   1.000  H
  H49      1.0000 0.39750  0.06780  0.18410  Biso   1.000  H
  H50      1.0000 0.32890  0.97680  0.07580  Biso   1.000  H
  H51      1.0000 0.85710  0.20060  0.03400  Biso   1.000  H
  H52      1.0000 0.95750  0.24630  0.95450  Biso   1.000  H
  H53      1.0000 0.81100  0.27380  0.12010  Biso   1.000  H
  H54      1.0000 0.93220  0.32970  0.18410  Biso   1.000  H
  H55      1.0000 0.02320  0.35210  0.07580  Biso   1.000  H
  H56      1.0000 0.79940  0.65650  0.03400  Biso   1.000  H
  H57      1.0000 0.75370  0.71120  0.95450  Biso   1.000  H
  H58      1.0000 0.72620  0.53720  0.12010  Biso   1.000  H
  H59      1.0000 0.67030  0.60250  0.18410  Biso   1.000  H
  H60      1.0000 0.64790  0.67110  0.07580  Biso   1.000  H
  C1       1.0000 0.72700  0.17990  0.43380  Biso   1.000  C
  C2       1.0000 0.74390  0.09590  0.49100  Biso   1.000  C
  C3       1.0000 0.66700  0.11290  0.63620  Biso   1.000  C
  C4       1.0000 0.56080  0.12120  0.65690  Biso   1.000  C
  C5       1.0000 0.45290  0.27300  0.43380  Biso   1.000  C
  C6       1.0000 0.35200  0.25610  0.49100  Biso   1.000  C
  C7       1.0000 0.44590  0.33300  0.63620  Biso   1.000  C
  C8       1.0000 0.56040  0.43920  0.65690  Biso   1.000  C
  C9       1.0000 0.82010  0.54710  0.43380  Biso   1.000  C
  C10      1.0000 0.90410  0.64800  0.49100  Biso   1.000  C
  C11      1.0000 0.88710  0.55410  0.63620  Biso   1.000  C
  C12      1.0000 0.87880  0.43960  0.65690  Biso   1.000  C
  C13      1.0000 0.54710  0.82010  0.06620  Biso   1.000  C
  C14      1.0000 0.64800  0.90410  0.00900  Biso   1.000  C
  C15      1.0000 0.55410  0.88710  0.86380  Biso   1.000  C
  C16      1.0000 0.43960  0.87880  0.84310  Biso   1.000  C
  C17      1.0000 0.17990  0.72700  0.06620  Biso   1.000  C
  C18      1.0000 0.09590  0.74390  0.00900  Biso   1.000  C
  C19      1.0000 0.11290  0.66700  0.86380  Biso   1.000  C
  C20      1.0000 0.12120  0.56080  0.84310  Biso   1.000  C
  C21      1.0000 0.27300  0.45290  0.06620  Biso   1.000  C
  C22      1.0000 0.25610  0.35200  0.00900  Biso   1.000  C
  C23      1.0000 0.33300  0.44590  0.86380  Biso   1.000  C
  C24      1.0000 0.43920  0.56040  0.84310  Biso   1.000  C
  C25      1.0000 0.27300  0.82010  0.56620  Biso   1.000  C
  C26      1.0000 0.25610  0.90410  0.50900  Biso   1.000  C
  C27      1.0000 0.33300  0.88710  0.36380  Biso   1.000  C
  C28      1.0000 0.43920  0.87880  0.34310  Biso   1.000  C
  C29      1.0000 0.54710  0.72700  0.56620  Biso   1.000  C
  C30      1.0000 0.64800  0.74390  0.50900  Biso   1.000  C
  C31      1.0000 0.55410  0.66700  0.36380  Biso   1.000  C
  C32      1.0000 0.43960  0.56080  0.34310  Biso   1.000  C
  C33      1.0000 0.17990  0.45290  0.56620  Biso   1.000  C
  C34      1.0000 0.09590  0.35200  0.50900  Biso   1.000  C
  C35      1.0000 0.11290  0.44590  0.36380  Biso   1.000  C
  C36      1.0000 0.12120  0.56040  0.34310  Biso   1.000  C
  C37      1.0000 0.45290  0.17990  0.93380  Biso   1.000  C
  C38      1.0000 0.35200  0.09590  0.99100  Biso   1.000  C
  C39      1.0000 0.44590  0.11290  0.13620  Biso   1.000  C
  C40      1.0000 0.56040  0.12120  0.15690  Biso   1.000  C
  C41      1.0000 0.82010  0.27300  0.93380  Biso   1.000  C
  C42      1.0000 0.90410  0.25610  0.99100  Biso   1.000  C
  C43      1.0000 0.88710  0.33300  0.13620  Biso   1.000  C
  C44      1.0000 0.87880  0.43920  0.15690  Biso   1.000  C
  C45      1.0000 0.72700  0.54710  0.93380  Biso   1.000  C
  C46      1.0000 0.74390  0.64800  0.99100  Biso   1.000  C
  C47      1.0000 0.66700  0.55410  0.13620  Biso   1.000  C
  C48      1.0000 0.56080  0.43960  0.15690  Biso   1.000  C
  N1       1.0000 0.65080  0.04020  0.55730  Biso   1.000  N
  N2       1.0000 0.38940  0.34920  0.55730  Biso   1.000  N
  N3       1.0000 0.95980  0.61060  0.55730  Biso   1.000  N
  N4       1.0000 0.61060  0.95980  0.94270  Biso   1.000  N
  N5       1.0000 0.04020  0.65080  0.94270  Biso   1.000  N
  N6       1.0000 0.34920  0.38940  0.94270  Biso   1.000  N
  N7       1.0000 0.34920  0.95980  0.44270  Biso   1.000  N
  N8       1.0000 0.61060  0.65080  0.44270  Biso   1.000  N
  N9       1.0000 0.04020  0.38940  0.44270  Biso   1.000  N
  N10      1.0000 0.38940  0.04020  0.05730  Biso   1.000  N
  N11      1.0000 0.95980  0.34920  0.05730  Biso   1.000  N
  N12      1.0000 0.65080  0.61060  0.05730  Biso   1.000  N
  O1       1.0000 0.63580  0.18300  0.44380  Biso   1.000  O
  O2       1.0000 0.80160  0.24090  0.37760  Biso   1.000  O
  O3       1.0000 0.47670  0.07400  0.60510  Biso   1.000  O
  O4       1.0000 0.56310  0.17630  0.72440  Biso   1.000  O
  O5       1.0000 0.54720  0.36420  0.44380  Biso   1.000  O
  O6       1.0000 0.43930  0.19840  0.37760  Biso   1.000  O
  O7       1.0000 0.59730  0.52330  0.60510  Biso   1.000  O
  O8       1.0000 0.61320  0.43690  0.72440  Biso   1.000  O
  O9       1.0000 0.81700  0.45280  0.44380  Biso   1.000  O
  O10      1.0000 0.75910  0.56070  0.37760  Biso   1.000  O
  O11      1.0000 0.92600  0.40270  0.60510  Biso   1.000  O
  O12      1.0000 0.82370  0.38680  0.72440  Biso   1.000  O
  O13      1.0000 0.45280  0.81700  0.05620  Biso   1.000  O
  O14      1.0000 0.56070  0.75910  0.12240  Biso   1.000  O
  O15      1.0000 0.40270  0.92600  0.89490  Biso   1.000  O
  O16      1.0000 0.38680  0.82370  0.77560  Biso   1.000  O
  O17      1.0000 0.18300  0.63580  0.05620  Biso   1.000  O
  O18      1.0000 0.24090  0.80160  0.12240  Biso   1.000  O
  O19      1.0000 0.07400  0.47670  0.89490  Biso   1.000  O
  O20      1.0000 0.17630  0.56310  0.77560  Biso   1.000  O
  O21      1.0000 0.36420  0.54720  0.05620  Biso   1.000  O
  O22      1.0000 0.19840  0.43930  0.12240  Biso   1.000  O
  O23      1.0000 0.52330  0.59730  0.89490  Biso   1.000  O
  O24      1.0000 0.43690  0.61320  0.77560  Biso   1.000  O
  O25      1.0000 0.36420  0.81700  0.55620  Biso   1.000  O
  O26      1.0000 0.19840  0.75910  0.62240  Biso   1.000  O
  O27      1.0000 0.52330  0.92600  0.39490  Biso   1.000  O
  O28      1.0000 0.43690  0.82370  0.27560  Biso   1.000  O
  O29      1.0000 0.45280  0.63580  0.55620  Biso   1.000  O
  O30      1.0000 0.56070  0.80160  0.62240  Biso   1.000  O
  O31      1.0000 0.40270  0.47670  0.39490  Biso   1.000  O
  O32      1.0000 0.38680  0.56310  0.27560  Biso   1.000  O
  O33      1.0000 0.18300  0.54720  0.55620  Biso   1.000  O
  O34      1.0000 0.24090  0.43930  0.62240  Biso   1.000  O
  O35      1.0000 0.07400  0.59730  0.39490  Biso   1.000  O
  O36      1.0000 0.17630  0.61320  0.27560  Biso   1.000  O
  O37      1.0000 0.54720  0.18300  0.94380  Biso   1.000  O
  O38      1.0000 0.43930  0.24090  0.87760  Biso   1.000  O
  O39      1.0000 0.59730  0.07400  0.10510  Biso   1.000  O
  O40      1.0000 0.61320  0.17630  0.22440  Biso   1.000  O
  O41      1.0000 0.81700  0.36420  0.94380  Biso   1.000  O
  O42      1.0000 0.75910  0.19840  0.87760  Biso   1.000  O
  O43      1.0000 0.92600  0.52330  0.10510  Biso   1.000  O
  O44      1.0000 0.82370  0.43690  0.22440  Biso   1.000  O
  O45      1.0000 0.63580  0.45280  0.94380  Biso   1.000  O
  O46      1.0000 0.80160  0.56070  0.87760  Biso   1.000  O
  O47      1.0000 0.47670  0.40270  0.10510  Biso   1.000  O
  O48      1.0000 0.56310  0.38680  0.22440  Biso   1.000  O
