data_image0
_cell_length_a       22.7022
_cell_length_b       14.5656
_cell_length_c       28.2647
_cell_angle_alpha    90
_cell_angle_beta     90
_cell_angle_gamma    90

_symmetry_space_group_name_H-M    "P 1"
_symmetry_int_tables_number       1

loop_
  _symmetry_equiv_pos_as_xyz
  'x, y, z'

loop_
  _atom_site_label
  _atom_site_occupancy
  _atom_site_fract_x
  _atom_site_fract_y
  _atom_site_fract_z
  _atom_site_thermal_displace_type
  _atom_site_B_iso_or_equiv
  _atom_site_type_symbol
  C1       1.0000 0.75790  0.98990  0.05967  Biso   1.000  C
  C2       1.0000 0.71030  0.98220  0.02201  Biso   1.000  C
  C3       1.0000 0.67390  0.91240  0.02025  Biso   1.000  C
  H1       1.0000 0.67740  0.86420  0.04170  Biso   1.000  H
  C4       1.0000 0.62940  0.91110  0.98550  Biso   1.000  C
  H2       1.0000 0.60200  0.86380  0.98740  Biso   1.000  H
  C5       1.0000 0.62290  0.96910  0.95133  Biso   1.000  C
  C6       1.0000 0.66580  0.03080  0.94920  Biso   1.000  C
  H3       1.0000 0.66720  0.06990  0.92320  Biso   1.000  H
  C7       1.0000 0.70860  0.03950  0.98390  Biso   1.000  C
  H4       1.0000 0.73670  0.08550  0.98110  Biso   1.000  H
  C8       1.0000 0.40990  0.61970  0.93412  Biso   1.000  C
  C9       1.0000 0.44749  0.70210  0.92676  Biso   1.000  C
  C10      1.0000 0.47660  0.71380  0.88557  Biso   1.000  C
  H5       1.0000 0.47310  0.67030  0.86160  Biso   1.000  H
  C11      1.0000 0.51200  0.79160  0.87896  Biso   1.000  C
  H6       1.0000 0.53120  0.79870  0.85010  Biso   1.000  H
  C12      1.0000 0.51995  0.85830  0.91308  Biso   1.000  C
  C13      1.0000 0.48760  0.84230  0.95404  Biso   1.000  C
  H7       1.0000 0.48980  0.88560  0.97820  Biso   1.000  H
  C14      1.0000 0.45260  0.76620  0.96096  Biso   1.000  C
  H8       1.0000 0.43250  0.75890  0.98940  Biso   1.000  H
  C15      1.0000 0.68320  0.92480  0.70763  Biso   1.000  C
  C16      1.0000 0.65620  0.93650  0.75625  Biso   1.000  C
  C17      1.0000 0.67620  0.89100  0.79487  Biso   1.000  C
  H9       1.0000 0.70830  0.85210  0.79150  Biso   1.000  H
  C18      1.0000 0.65130  0.89970  0.83829  Biso   1.000  C
  H10      1.0000 0.66700  0.86660  0.86340  Biso   1.000  H
  C19      1.0000 0.60397  0.95530  0.84633  Biso   1.000  C
  C20      1.0000 0.58580  0.00580  0.80716  Biso   1.000  C
  H11      1.0000 0.55450  0.04650  0.81050  Biso   1.000  H
  C21      1.0000 0.61240  0.99730  0.76394  Biso   1.000  C
  H12      1.0000 0.59990  0.03450  0.73920  Biso   1.000  H
  C22      1.0000 0.39830  0.29620  0.89545  Biso   1.000  C
  C23      1.0000 0.43943  0.21720  0.89880  Biso   1.000  C
  C24      1.0000 0.42110  0.13080  0.88820  Biso   1.000  C
  H13      1.0000 0.38230  0.12210  0.87850  Biso   1.000  H
  C25      1.0000 0.45800  0.05510  0.89140  Biso   1.000  C
  H14      1.0000 0.44290  0.99720  0.88470  Biso   1.000  H
  C26      1.0000 0.51578  0.06330  0.90410  Biso   1.000  C
  C27      1.0000 0.53310  0.14980  0.91380  Biso   1.000  C
  H15      1.0000 0.57200  0.15900  0.92310  Biso   1.000  H
  C28      1.0000 0.49550  0.22760  0.91070  Biso   1.000  C
  H16      1.0000 0.51030  0.28590  0.91710  Biso   1.000  H
  Co1      1.0000 0.85120  0.03902  0.10788  Biso   1.000  Co
  O1       1.0000 0.75740  0.93460  0.09335  Biso   1.000  O
  O2       1.0000 0.79484  0.05130  0.05454  Biso   1.000  O
  O3       1.0000 0.39530  0.59830  0.97450  Biso   1.000  O
  O4       1.0000 0.39452  0.57810  0.89758  Biso   1.000  O
  O5       1.0000 0.72387  0.87030  0.70271  Biso   1.000  O
  O6       1.0000 0.65913  0.96930  0.67536  Biso   1.000  O
  O7       1.0000 0.34642  0.28520  0.88641  Biso   1.000  O
  O8       1.0000 0.41892  0.37310  0.90455  Biso   1.000  O
  Si1      1.0000 0.56583  0.96228  0.90438  Biso   1.000  Si
  C29      1.0000 0.74210  0.01010  0.55967  Biso   1.000  C
  C30      1.0000 0.78970  0.01780  0.52201  Biso   1.000  C
  C31      1.0000 0.82610  0.08760  0.52025  Biso   1.000  C
  H17      1.0000 0.82260  0.13580  0.54170  Biso   1.000  H
  C32      1.0000 0.87060  0.08890  0.48550  Biso   1.000  C
  H18      1.0000 0.89800  0.13620  0.48740  Biso   1.000  H
  C33      1.0000 0.87710  0.03090  0.45133  Biso   1.000  C
  C34      1.0000 0.83420  0.96920  0.44920  Biso   1.000  C
  H19      1.0000 0.83280  0.93010  0.42320  Biso   1.000  H
  C35      1.0000 0.79140  0.96050  0.48390  Biso   1.000  C
  H20      1.0000 0.76330  0.91450  0.48110  Biso   1.000  H
  C36      1.0000 0.09010  0.38030  0.43412  Biso   1.000  C
  C37      1.0000 0.05251  0.29790  0.42676  Biso   1.000  C
  C38      1.0000 0.02340  0.28620  0.38557  Biso   1.000  C
  H21      1.0000 0.02690  0.32970  0.36160  Biso   1.000  H
  C39      1.0000 0.98800  0.20840  0.37896  Biso   1.000  C
  H22      1.0000 0.96880  0.20130  0.35010  Biso   1.000  H
  C40      1.0000 0.98005  0.14170  0.41308  Biso   1.000  C
  C41      1.0000 0.01240  0.15770  0.45404  Biso   1.000  C
  H23      1.0000 0.01020  0.11440  0.47820  Biso   1.000  H
  C42      1.0000 0.04740  0.23380  0.46096  Biso   1.000  C
  H24      1.0000 0.06750  0.24110  0.48940  Biso   1.000  H
  C43      1.0000 0.81680  0.07520  0.20763  Biso   1.000  C
  C44      1.0000 0.84380  0.06350  0.25625  Biso   1.000  C
  C45      1.0000 0.82380  0.10900  0.29487  Biso   1.000  C
  H25      1.0000 0.79170  0.14790  0.29150  Biso   1.000  H
  C46      1.0000 0.84870  0.10030  0.33829  Biso   1.000  C
  H26      1.0000 0.83300  0.13340  0.36340  Biso   1.000  H
  C47      1.0000 0.89603  0.04470  0.34633  Biso   1.000  C
  C48      1.0000 0.91420  0.99420  0.30716  Biso   1.000  C
  H27      1.0000 0.94550  0.95350  0.31050  Biso   1.000  H
  C49      1.0000 0.88760  0.00270  0.26394  Biso   1.000  C
  H28      1.0000 0.90010  0.96550  0.23920  Biso   1.000  H
  C50      1.0000 0.10170  0.70380  0.39545  Biso   1.000  C
  C51      1.0000 0.06057  0.78280  0.39880  Biso   1.000  C
  C52      1.0000 0.07890  0.86920  0.38820  Biso   1.000  C
  H29      1.0000 0.11770  0.87790  0.37850  Biso   1.000  H
  C53      1.0000 0.04200  0.94490  0.39140  Biso   1.000  C
  H30      1.0000 0.05710  0.00280  0.38470  Biso   1.000  H
  C54      1.0000 0.98422  0.93670  0.40410  Biso   1.000  C
  C55      1.0000 0.96690  0.85020  0.41380  Biso   1.000  C
  H31      1.0000 0.92800  0.84100  0.42310  Biso   1.000  H
  C56      1.0000 0.00450  0.77240  0.41070  Biso   1.000  C
  H32      1.0000 0.98970  0.71410  0.41710  Biso   1.000  H
  Co2      1.0000 0.64880  0.96098  0.60788  Biso   1.000  Co
  O9       1.0000 0.74260  0.06540  0.59335  Biso   1.000  O
  O10      1.0000 0.70516  0.94870  0.55454  Biso   1.000  O
  O11      1.0000 0.10470  0.40170  0.47450  Biso   1.000  O
  O12      1.0000 0.10548  0.42190  0.39758  Biso   1.000  O
  O13      1.0000 0.77613  0.12970  0.20271  Biso   1.000  O
  O14      1.0000 0.84087  0.03070  0.17536  Biso   1.000  O
  O15      1.0000 0.15358  0.71480  0.38641  Biso   1.000  O
  O16      1.0000 0.08108  0.62690  0.40455  Biso   1.000  O
  Si2      1.0000 0.93417  0.03772  0.40438  Biso   1.000  Si
  C57      1.0000 0.24210  0.48990  0.44033  Biso   1.000  C
  C58      1.0000 0.28970  0.48220  0.47799  Biso   1.000  C
  C59      1.0000 0.32610  0.41240  0.47975  Biso   1.000  C
  H33      1.0000 0.32260  0.36420  0.45830  Biso   1.000  H
  C60      1.0000 0.37060  0.41110  0.51450  Biso   1.000  C
  H34      1.0000 0.39800  0.36380  0.51260  Biso   1.000  H
  C61      1.0000 0.37710  0.46910  0.54867  Biso   1.000  C
  C62      1.0000 0.33420  0.53080  0.55080  Biso   1.000  C
  H35      1.0000 0.33280  0.56990  0.57680  Biso   1.000  H
  C63      1.0000 0.29140  0.53950  0.51610  Biso   1.000  C
  H36      1.0000 0.26330  0.58550  0.51890  Biso   1.000  H
  C64      1.0000 0.59010  0.11970  0.56588  Biso   1.000  C
  C65      1.0000 0.55251  0.20210  0.57324  Biso   1.000  C
  C66      1.0000 0.52340  0.21380  0.61443  Biso   1.000  C
  H37      1.0000 0.52690  0.17030  0.63840  Biso   1.000  H
  C67      1.0000 0.48800  0.29160  0.62104  Biso   1.000  C
  H38      1.0000 0.46880  0.29870  0.64990  Biso   1.000  H
  C68      1.0000 0.48005  0.35830  0.58692  Biso   1.000  C
  C69      1.0000 0.51240  0.34230  0.54596  Biso   1.000  C
  H39      1.0000 0.51020  0.38560  0.52180  Biso   1.000  H
  C70      1.0000 0.54740  0.26620  0.53904  Biso   1.000  C
  H40      1.0000 0.56750  0.25890  0.51060  Biso   1.000  H
  C71      1.0000 0.31680  0.42480  0.79237  Biso   1.000  C
  C72      1.0000 0.34380  0.43650  0.74375  Biso   1.000  C
  C73      1.0000 0.32380  0.39100  0.70513  Biso   1.000  C
  H41      1.0000 0.29170  0.35210  0.70850  Biso   1.000  H
  C74      1.0000 0.34870  0.39970  0.66171  Biso   1.000  C
  H42      1.0000 0.33300  0.36660  0.63660  Biso   1.000  H
  C75      1.0000 0.39603  0.45530  0.65367  Biso   1.000  C
  C76      1.0000 0.41420  0.50580  0.69284  Biso   1.000  C
  H43      1.0000 0.44550  0.54650  0.68950  Biso   1.000  H
  C77      1.0000 0.38760  0.49730  0.73606  Biso   1.000  C
  H44      1.0000 0.40010  0.53450  0.76080  Biso   1.000  H
  C78      1.0000 0.60170  0.79620  0.60455  Biso   1.000  C
  C79      1.0000 0.56057  0.71720  0.60120  Biso   1.000  C
  C80      1.0000 0.57890  0.63080  0.61180  Biso   1.000  C
  H45      1.0000 0.61770  0.62210  0.62150  Biso   1.000  H
  C81      1.0000 0.54200  0.55510  0.60860  Biso   1.000  C
  H46      1.0000 0.55710  0.49720  0.61530  Biso   1.000  H
  C82      1.0000 0.48422  0.56330  0.59590  Biso   1.000  C
  C83      1.0000 0.46690  0.64980  0.58620  Biso   1.000  C
  H47      1.0000 0.42800  0.65900  0.57690  Biso   1.000  H
  C84      1.0000 0.50450  0.72760  0.58930  Biso   1.000  C
  H48      1.0000 0.48970  0.78590  0.58290  Biso   1.000  H
  Co3      1.0000 0.14880  0.53902  0.39212  Biso   1.000  Co
  O17      1.0000 0.24260  0.43460  0.40665  Biso   1.000  O
  O18      1.0000 0.20516  0.55130  0.44546  Biso   1.000  O
  O19      1.0000 0.60470  0.09830  0.52550  Biso   1.000  O
  O20      1.0000 0.60548  0.07810  0.60242  Biso   1.000  O
  O21      1.0000 0.27613  0.37030  0.79729  Biso   1.000  O
  O22      1.0000 0.34087  0.46930  0.82464  Biso   1.000  O
  O23      1.0000 0.65358  0.78520  0.61359  Biso   1.000  O
  O24      1.0000 0.58108  0.87310  0.59545  Biso   1.000  O
  Si3      1.0000 0.43417  0.46228  0.59562  Biso   1.000  Si
  C85      1.0000 0.25790  0.51010  0.94033  Biso   1.000  C
  C86      1.0000 0.21030  0.51780  0.97799  Biso   1.000  C
  C87      1.0000 0.17390  0.58760  0.97975  Biso   1.000  C
  H49      1.0000 0.17740  0.63580  0.95830  Biso   1.000  H
  C88      1.0000 0.12940  0.58890  0.01450  Biso   1.000  C
  H50      1.0000 0.10200  0.63620  0.01260  Biso   1.000  H
  C89      1.0000 0.12290  0.53090  0.04867  Biso   1.000  C
  C90      1.0000 0.16580  0.46920  0.05080  Biso   1.000  C
  H51      1.0000 0.16720  0.43010  0.07680  Biso   1.000  H
  C91      1.0000 0.20860  0.46050  0.01610  Biso   1.000  C
  H52      1.0000 0.23670  0.41450  0.01890  Biso   1.000  H
  C92      1.0000 0.90990  0.88030  0.06588  Biso   1.000  C
  C93      1.0000 0.94749  0.79790  0.07324  Biso   1.000  C
  C94      1.0000 0.97660  0.78620  0.11443  Biso   1.000  C
  H53      1.0000 0.97310  0.82970  0.13840  Biso   1.000  H
  C95      1.0000 0.01200  0.70840  0.12104  Biso   1.000  C
  H54      1.0000 0.03120  0.70130  0.14990  Biso   1.000  H
  C96      1.0000 0.01995  0.64170  0.08692  Biso   1.000  C
  C97      1.0000 0.98760  0.65770  0.04596  Biso   1.000  C
  H55      1.0000 0.98980  0.61440  0.02180  Biso   1.000  H
  C98      1.0000 0.95260  0.73380  0.03904  Biso   1.000  C
  H56      1.0000 0.93250  0.74110  0.01060  Biso   1.000  H
  C99      1.0000 0.18320  0.57520  0.29237  Biso   1.000  C
  C100     1.0000 0.15620  0.56350  0.24375  Biso   1.000  C
  C101     1.0000 0.17620  0.60900  0.20513  Biso   1.000  C
  H57      1.0000 0.20830  0.64790  0.20850  Biso   1.000  H
  C102     1.0000 0.15130  0.60030  0.16171  Biso   1.000  C
  H58      1.0000 0.16700  0.63340  0.13660  Biso   1.000  H
  C103     1.0000 0.10397  0.54470  0.15367  Biso   1.000  C
  C104     1.0000 0.08580  0.49420  0.19284  Biso   1.000  C
  H59      1.0000 0.05450  0.45350  0.18950  Biso   1.000  H
  C105     1.0000 0.11240  0.50270  0.23606  Biso   1.000  C
  H60      1.0000 0.09990  0.46550  0.26080  Biso   1.000  H
  C106     1.0000 0.89830  0.20380  0.10455  Biso   1.000  C
  C107     1.0000 0.93943  0.28280  0.10120  Biso   1.000  C
  C108     1.0000 0.92110  0.36920  0.11180  Biso   1.000  C
  H61      1.0000 0.88230  0.37790  0.12150  Biso   1.000  H
  C109     1.0000 0.95800  0.44490  0.10860  Biso   1.000  C
  H62      1.0000 0.94290  0.50280  0.11530  Biso   1.000  H
  C110     1.0000 0.01578  0.43670  0.09590  Biso   1.000  C
  C111     1.0000 0.03310  0.35020  0.08620  Biso   1.000  C
  H63      1.0000 0.07200  0.34100  0.07690  Biso   1.000  H
  C112     1.0000 0.99550  0.27240  0.08930  Biso   1.000  C
  H64      1.0000 0.01030  0.21410  0.08290  Biso   1.000  H
  Co4      1.0000 0.35120  0.46098  0.89212  Biso   1.000  Co
  O25      1.0000 0.25740  0.56540  0.90665  Biso   1.000  O
  O26      1.0000 0.29484  0.44870  0.94546  Biso   1.000  O
  O27      1.0000 0.89530  0.90170  0.02550  Biso   1.000  O
  O28      1.0000 0.89452  0.92190  0.10242  Biso   1.000  O
  O29      1.0000 0.22387  0.62970  0.29729  Biso   1.000  O
  O30      1.0000 0.15913  0.53070  0.32464  Biso   1.000  O
  O31      1.0000 0.84642  0.21480  0.11359  Biso   1.000  O
  O32      1.0000 0.91892  0.12690  0.09545  Biso   1.000  O
  Si4      1.0000 0.06583  0.53772  0.09562  Biso   1.000  Si
  C113     1.0000 0.24210  0.01010  0.94033  Biso   1.000  C
  C114     1.0000 0.28970  0.01780  0.97799  Biso   1.000  C
  C115     1.0000 0.32610  0.08760  0.97975  Biso   1.000  C
  H65      1.0000 0.32260  0.13580  0.95830  Biso   1.000  H
  C116     1.0000 0.37060  0.08890  0.01450  Biso   1.000  C
  H66      1.0000 0.39800  0.13620  0.01260  Biso   1.000  H
  C117     1.0000 0.37710  0.03090  0.04867  Biso   1.000  C
  C118     1.0000 0.33420  0.96920  0.05080  Biso   1.000  C
  H67      1.0000 0.33280  0.93010  0.07680  Biso   1.000  H
  C119     1.0000 0.29140  0.96050  0.01610  Biso   1.000  C
  H68      1.0000 0.26330  0.91450  0.01890  Biso   1.000  H
  C120     1.0000 0.59010  0.38030  0.06588  Biso   1.000  C
  C121     1.0000 0.55251  0.29790  0.07324  Biso   1.000  C
  C122     1.0000 0.52340  0.28620  0.11443  Biso   1.000  C
  H69      1.0000 0.52690  0.32970  0.13840  Biso   1.000  H
  C123     1.0000 0.48800  0.20840  0.12104  Biso   1.000  C
  H70      1.0000 0.46880  0.20130  0.14990  Biso   1.000  H
  C124     1.0000 0.48005  0.14170  0.08692  Biso   1.000  C
  C125     1.0000 0.51240  0.15770  0.04596  Biso   1.000  C
  H71      1.0000 0.51020  0.11440  0.02180  Biso   1.000  H
  C126     1.0000 0.54740  0.23380  0.03904  Biso   1.000  C
  H72      1.0000 0.56750  0.24110  0.01060  Biso   1.000  H
  C127     1.0000 0.31680  0.07520  0.29237  Biso   1.000  C
  C128     1.0000 0.34380  0.06350  0.24375  Biso   1.000  C
  C129     1.0000 0.32380  0.10900  0.20513  Biso   1.000  C
  H73      1.0000 0.29170  0.14790  0.20850  Biso   1.000  H
  C130     1.0000 0.34870  0.10030  0.16171  Biso   1.000  C
  H74      1.0000 0.33300  0.13340  0.13660  Biso   1.000  H
  C131     1.0000 0.39603  0.04470  0.15367  Biso   1.000  C
  C132     1.0000 0.41420  0.99420  0.19284  Biso   1.000  C
  H75      1.0000 0.44550  0.95350  0.18950  Biso   1.000  H
  C133     1.0000 0.38760  0.00270  0.23606  Biso   1.000  C
  H76      1.0000 0.40010  0.96550  0.26080  Biso   1.000  H
  C134     1.0000 0.60170  0.70380  0.10455  Biso   1.000  C
  C135     1.0000 0.56057  0.78280  0.10120  Biso   1.000  C
  C136     1.0000 0.57890  0.86920  0.11180  Biso   1.000  C
  H77      1.0000 0.61770  0.87790  0.12150  Biso   1.000  H
  C137     1.0000 0.54200  0.94490  0.10860  Biso   1.000  C
  H78      1.0000 0.55710  0.00280  0.11530  Biso   1.000  H
  C138     1.0000 0.48422  0.93670  0.09590  Biso   1.000  C
  C139     1.0000 0.46690  0.85020  0.08620  Biso   1.000  C
  H79      1.0000 0.42800  0.84100  0.07690  Biso   1.000  H
  C140     1.0000 0.50450  0.77240  0.08930  Biso   1.000  C
  H80      1.0000 0.48970  0.71410  0.08290  Biso   1.000  H
  Co5      1.0000 0.14880  0.96098  0.89212  Biso   1.000  Co
  O33      1.0000 0.24260  0.06540  0.90665  Biso   1.000  O
  O34      1.0000 0.20516  0.94870  0.94546  Biso   1.000  O
  O35      1.0000 0.60470  0.40170  0.02550  Biso   1.000  O
  O36      1.0000 0.60548  0.42190  0.10242  Biso   1.000  O
  O37      1.0000 0.27613  0.12970  0.29729  Biso   1.000  O
  O38      1.0000 0.34087  0.03070  0.32464  Biso   1.000  O
  O39      1.0000 0.65358  0.71480  0.11359  Biso   1.000  O
  O40      1.0000 0.58108  0.62690  0.09545  Biso   1.000  O
  Si5      1.0000 0.43417  0.03772  0.09562  Biso   1.000  Si
  C141     1.0000 0.25790  0.98990  0.44033  Biso   1.000  C
  C142     1.0000 0.21030  0.98220  0.47799  Biso   1.000  C
  C143     1.0000 0.17390  0.91240  0.47975  Biso   1.000  C
  H81      1.0000 0.17740  0.86420  0.45830  Biso   1.000  H
  C144     1.0000 0.12940  0.91110  0.51450  Biso   1.000  C
  H82      1.0000 0.10200  0.86380  0.51260  Biso   1.000  H
  C145     1.0000 0.12290  0.96910  0.54867  Biso   1.000  C
  C146     1.0000 0.16580  0.03080  0.55080  Biso   1.000  C
  H83      1.0000 0.16720  0.06990  0.57680  Biso   1.000  H
  C147     1.0000 0.20860  0.03950  0.51610  Biso   1.000  C
  H84      1.0000 0.23670  0.08550  0.51890  Biso   1.000  H
  C148     1.0000 0.90990  0.61970  0.56588  Biso   1.000  C
  C149     1.0000 0.94749  0.70210  0.57324  Biso   1.000  C
  C150     1.0000 0.97660  0.71380  0.61443  Biso   1.000  C
  H85      1.0000 0.97310  0.67030  0.63840  Biso   1.000  H
  C151     1.0000 0.01200  0.79160  0.62104  Biso   1.000  C
  H86      1.0000 0.03120  0.79870  0.64990  Biso   1.000  H
  C152     1.0000 0.01995  0.85830  0.58692  Biso   1.000  C
  C153     1.0000 0.98760  0.84230  0.54596  Biso   1.000  C
  H87      1.0000 0.98980  0.88560  0.52180  Biso   1.000  H
  C154     1.0000 0.95260  0.76620  0.53904  Biso   1.000  C
  H88      1.0000 0.93250  0.75890  0.51060  Biso   1.000  H
  C155     1.0000 0.18320  0.92480  0.79237  Biso   1.000  C
  C156     1.0000 0.15620  0.93650  0.74375  Biso   1.000  C
  C157     1.0000 0.17620  0.89100  0.70513  Biso   1.000  C
  H89      1.0000 0.20830  0.85210  0.70850  Biso   1.000  H
  C158     1.0000 0.15130  0.89970  0.66171  Biso   1.000  C
  H90      1.0000 0.16700  0.86660  0.63660  Biso   1.000  H
  C159     1.0000 0.10397  0.95530  0.65367  Biso   1.000  C
  C160     1.0000 0.08580  0.00580  0.69284  Biso   1.000  C
  H91      1.0000 0.05450  0.04650  0.68950  Biso   1.000  H
  C161     1.0000 0.11240  0.99730  0.73606  Biso   1.000  C
  H92      1.0000 0.09990  0.03450  0.76080  Biso   1.000  H
  C162     1.0000 0.89830  0.29620  0.60455  Biso   1.000  C
  C163     1.0000 0.93943  0.21720  0.60120  Biso   1.000  C
  C164     1.0000 0.92110  0.13080  0.61180  Biso   1.000  C
  H93      1.0000 0.88230  0.12210  0.62150  Biso   1.000  H
  C165     1.0000 0.95800  0.05510  0.60860  Biso   1.000  C
  H94      1.0000 0.94290  0.99720  0.61530  Biso   1.000  H
  C166     1.0000 0.01578  0.06330  0.59590  Biso   1.000  C
  C167     1.0000 0.03310  0.14980  0.58620  Biso   1.000  C
  H95      1.0000 0.07200  0.15900  0.57690  Biso   1.000  H
  C168     1.0000 0.99550  0.22760  0.58930  Biso   1.000  C
  H96      1.0000 0.01030  0.28590  0.58290  Biso   1.000  H
  Co6      1.0000 0.35120  0.03902  0.39212  Biso   1.000  Co
  O41      1.0000 0.25740  0.93460  0.40665  Biso   1.000  O
  O42      1.0000 0.29484  0.05130  0.44546  Biso   1.000  O
  O43      1.0000 0.89530  0.59830  0.52550  Biso   1.000  O
  O44      1.0000 0.89452  0.57810  0.60242  Biso   1.000  O
  O45      1.0000 0.22387  0.87030  0.79729  Biso   1.000  O
  O46      1.0000 0.15913  0.96930  0.82464  Biso   1.000  O
  O47      1.0000 0.84642  0.28520  0.61359  Biso   1.000  O
  O48      1.0000 0.91892  0.37310  0.59545  Biso   1.000  O
  Si6      1.0000 0.06583  0.96228  0.59562  Biso   1.000  Si
  C169     1.0000 0.75790  0.51010  0.55967  Biso   1.000  C
  C170     1.0000 0.71030  0.51780  0.52201  Biso   1.000  C
  C171     1.0000 0.67390  0.58760  0.52025  Biso   1.000  C
  H97      1.0000 0.67740  0.63580  0.54170  Biso   1.000  H
  C172     1.0000 0.62940  0.58890  0.48550  Biso   1.000  C
  H98      1.0000 0.60200  0.63620  0.48740  Biso   1.000  H
  C173     1.0000 0.62290  0.53090  0.45133  Biso   1.000  C
  C174     1.0000 0.66580  0.46920  0.44920  Biso   1.000  C
  H99      1.0000 0.66720  0.43010  0.42320  Biso   1.000  H
  C175     1.0000 0.70860  0.46050  0.48390  Biso   1.000  C
  H100     1.0000 0.73670  0.41450  0.48110  Biso   1.000  H
  C176     1.0000 0.40990  0.88030  0.43412  Biso   1.000  C
  C177     1.0000 0.44749  0.79790  0.42676  Biso   1.000  C
  C178     1.0000 0.47660  0.78620  0.38557  Biso   1.000  C
  H101     1.0000 0.47310  0.82970  0.36160  Biso   1.000  H
  C179     1.0000 0.51200  0.70840  0.37896  Biso   1.000  C
  H102     1.0000 0.53120  0.70130  0.35010  Biso   1.000  H
  C180     1.0000 0.51995  0.64170  0.41308  Biso   1.000  C
  C181     1.0000 0.48760  0.65770  0.45404  Biso   1.000  C
  H103     1.0000 0.48980  0.61440  0.47820  Biso   1.000  H
  C182     1.0000 0.45260  0.73380  0.46096  Biso   1.000  C
  H104     1.0000 0.43250  0.74110  0.48940  Biso   1.000  H
  C183     1.0000 0.68320  0.57520  0.20763  Biso   1.000  C
  C184     1.0000 0.65620  0.56350  0.25625  Biso   1.000  C
  C185     1.0000 0.67620  0.60900  0.29487  Biso   1.000  C
  H105     1.0000 0.70830  0.64790  0.29150  Biso   1.000  H
  C186     1.0000 0.65130  0.60030  0.33829  Biso   1.000  C
  H106     1.0000 0.66700  0.63340  0.36340  Biso   1.000  H
  C187     1.0000 0.60397  0.54470  0.34633  Biso   1.000  C
  C188     1.0000 0.58580  0.49420  0.30716  Biso   1.000  C
  H107     1.0000 0.55450  0.45350  0.31050  Biso   1.000  H
  C189     1.0000 0.61240  0.50270  0.26394  Biso   1.000  C
  H108     1.0000 0.59990  0.46550  0.23920  Biso   1.000  H
  C190     1.0000 0.39830  0.20380  0.39545  Biso   1.000  C
  C191     1.0000 0.43943  0.28280  0.39880  Biso   1.000  C
  C192     1.0000 0.42110  0.36920  0.38820  Biso   1.000  C
  H109     1.0000 0.38230  0.37790  0.37850  Biso   1.000  H
  C193     1.0000 0.45800  0.44490  0.39140  Biso   1.000  C
  H110     1.0000 0.44290  0.50280  0.38470  Biso   1.000  H
  C194     1.0000 0.51578  0.43670  0.40410  Biso   1.000  C
  C195     1.0000 0.53310  0.35020  0.41380  Biso   1.000  C
  H111     1.0000 0.57200  0.34100  0.42310  Biso   1.000  H
  C196     1.0000 0.49550  0.27240  0.41070  Biso   1.000  C
  H112     1.0000 0.51030  0.21410  0.41710  Biso   1.000  H
  Co7      1.0000 0.85120  0.46098  0.60788  Biso   1.000  Co
  O49      1.0000 0.75740  0.56540  0.59335  Biso   1.000  O
  O50      1.0000 0.79484  0.44870  0.55454  Biso   1.000  O
  O51      1.0000 0.39530  0.90170  0.47450  Biso   1.000  O
  O52      1.0000 0.39452  0.92190  0.39758  Biso   1.000  O
  O53      1.0000 0.72387  0.62970  0.20271  Biso   1.000  O
  O54      1.0000 0.65913  0.53070  0.17536  Biso   1.000  O
  O55      1.0000 0.34642  0.21480  0.38641  Biso   1.000  O
  O56      1.0000 0.41892  0.12690  0.40455  Biso   1.000  O
  Si7      1.0000 0.56583  0.53772  0.40438  Biso   1.000  Si
  C197     1.0000 0.74210  0.48990  0.05967  Biso   1.000  C
  C198     1.0000 0.78970  0.48220  0.02201  Biso   1.000  C
  C199     1.0000 0.82610  0.41240  0.02025  Biso   1.000  C
  H113     1.0000 0.82260  0.36420  0.04170  Biso   1.000  H
  C200     1.0000 0.87060  0.41110  0.98550  Biso   1.000  C
  H114     1.0000 0.89800  0.36380  0.98740  Biso   1.000  H
  C201     1.0000 0.87710  0.46910  0.95133  Biso   1.000  C
  C202     1.0000 0.83420  0.53080  0.94920  Biso   1.000  C
  H115     1.0000 0.83280  0.56990  0.92320  Biso   1.000  H
  C203     1.0000 0.79140  0.53950  0.98390  Biso   1.000  C
  H116     1.0000 0.76330  0.58550  0.98110  Biso   1.000  H
  C204     1.0000 0.09010  0.11970  0.93412  Biso   1.000  C
  C205     1.0000 0.05251  0.20210  0.92676  Biso   1.000  C
  C206     1.0000 0.02340  0.21380  0.88557  Biso   1.000  C
  H117     1.0000 0.02690  0.17030  0.86160  Biso   1.000  H
  C207     1.0000 0.98800  0.29160  0.87896  Biso   1.000  C
  H118     1.0000 0.96880  0.29870  0.85010  Biso   1.000  H
  C208     1.0000 0.98005  0.35830  0.91308  Biso   1.000  C
  C209     1.0000 0.01240  0.34230  0.95404  Biso   1.000  C
  H119     1.0000 0.01020  0.38560  0.97820  Biso   1.000  H
  C210     1.0000 0.04740  0.26620  0.96096  Biso   1.000  C
  H120     1.0000 0.06750  0.25890  0.98940  Biso   1.000  H
  C211     1.0000 0.81680  0.42480  0.70763  Biso   1.000  C
  C212     1.0000 0.84380  0.43650  0.75625  Biso   1.000  C
  C213     1.0000 0.82380  0.39100  0.79487  Biso   1.000  C
  H121     1.0000 0.79170  0.35210  0.79150  Biso   1.000  H
  C214     1.0000 0.84870  0.39970  0.83829  Biso   1.000  C
  H122     1.0000 0.83300  0.36660  0.86340  Biso   1.000  H
  C215     1.0000 0.89603  0.45530  0.84633  Biso   1.000  C
  C216     1.0000 0.91420  0.50580  0.80716  Biso   1.000  C
  H123     1.0000 0.94550  0.54650  0.81050  Biso   1.000  H
  C217     1.0000 0.88760  0.49730  0.76394  Biso   1.000  C
  H124     1.0000 0.90010  0.53450  0.73920  Biso   1.000  H
  C218     1.0000 0.10170  0.79620  0.89545  Biso   1.000  C
  C219     1.0000 0.06057  0.71720  0.89880  Biso   1.000  C
  C220     1.0000 0.07890  0.63080  0.88820  Biso   1.000  C
  H125     1.0000 0.11770  0.62210  0.87850  Biso   1.000  H
  C221     1.0000 0.04200  0.55510  0.89140  Biso   1.000  C
  H126     1.0000 0.05710  0.49720  0.88470  Biso   1.000  H
  C222     1.0000 0.98422  0.56330  0.90410  Biso   1.000  C
  C223     1.0000 0.96690  0.64980  0.91380  Biso   1.000  C
  H127     1.0000 0.92800  0.65900  0.92310  Biso   1.000  H
  C224     1.0000 0.00450  0.72760  0.91070  Biso   1.000  C
  H128     1.0000 0.98970  0.78590  0.91710  Biso   1.000  H
  Co8      1.0000 0.64880  0.53902  0.10788  Biso   1.000  Co
  O57      1.0000 0.74260  0.43460  0.09335  Biso   1.000  O
  O58      1.0000 0.70516  0.55130  0.05454  Biso   1.000  O
  O59      1.0000 0.10470  0.09830  0.97450  Biso   1.000  O
  O60      1.0000 0.10548  0.07810  0.89758  Biso   1.000  O
  O61      1.0000 0.77613  0.37030  0.70271  Biso   1.000  O
  O62      1.0000 0.84087  0.46930  0.67536  Biso   1.000  O
  O63      1.0000 0.15358  0.78520  0.88641  Biso   1.000  O
  O64      1.0000 0.08108  0.87310  0.90455  Biso   1.000  O
  Si8      1.0000 0.93417  0.46228  0.90438  Biso   1.000  Si
