data_image0
_cell_length_a       26.982
_cell_length_b       21.882
_cell_length_c       13.8219
_cell_angle_alpha    90
_cell_angle_beta     90
_cell_angle_gamma    90

_symmetry_space_group_name_H-M    "P 1"
_symmetry_int_tables_number       1

loop_
  _symmetry_equiv_pos_as_xyz
  'x, y, z'

loop_
  _atom_site_label
  _atom_site_occupancy
  _atom_site_fract_x
  _atom_site_fract_y
  _atom_site_fract_z
  _atom_site_thermal_displace_type
  _atom_site_B_iso_or_equiv
  _atom_site_type_symbol
  Co1      1.0000 0.11772  0.68528  0.96662  Biso   1.000  Co
  Si1      1.0000 0.13160  0.44566  0.46551  Biso   1.000  Si
  O1       1.0000 0.10710  0.64930  0.09820  Biso   1.000  O
  C1       1.0000 0.14190  0.60680  0.09820  Biso   1.000  C
  O2       1.0000 0.31703  0.27698  0.65930  Biso   1.000  O
  C2       1.0000 0.30740  0.27760  0.57100  Biso   1.000  C
  C3       1.0000 0.26600  0.31810  0.54040  Biso   1.000  C
  C4       1.0000 0.23660  0.34530  0.60930  Biso   1.000  C
  H1       1.0000 0.24300  0.33770  0.67430  Biso   1.000  H
  C5       1.0000 0.25480  0.33160  0.44980  Biso   1.000  C
  H2       1.0000 0.27260  0.31330  0.40010  Biso   1.000  H
  O3       1.0000 0.94346  0.23580  0.46730  Biso   1.000  O
  C6       1.0000 0.95250  0.27520  0.40540  Biso   1.000  C
  C7       1.0000 0.99650  0.31620  0.42050  Biso   1.000  C
  C8       1.0000 0.02680  0.31030  0.49560  Biso   1.000  C
  H3       1.0000 0.02160  0.27910  0.54020  Biso   1.000  H
  C9       1.0000 0.01200  0.35430  0.34960  Biso   1.000  C
  H4       1.0000 0.99610  0.35340  0.28990  Biso   1.000  H
  C10      1.0000 0.13860  0.49400  0.35610  Biso   1.000  C
  O4       1.0000 0.13043  0.66064  0.82630  Biso   1.000  O
  C11      1.0000 0.07813  0.39270  0.44800  Biso   1.000  C
  C12      1.0000 0.11940  0.49660  0.57130  Biso   1.000  C
  C13      1.0000 0.18728  0.39750  0.49380  Biso   1.000  C
  C14      1.0000 0.10720  0.57540  0.73350  Biso   1.000  C
  O5       1.0000 0.07163  0.60150  0.88310  Biso   1.000  O
  C15      1.0000 0.14650  0.58170  0.67500  Biso   1.000  C
  H5       1.0000 0.17020  0.61150  0.68750  Biso   1.000  H
  C16      1.0000 0.15150  0.54250  0.59410  Biso   1.000  C
  H6       1.0000 0.17860  0.54850  0.55360  Biso   1.000  H
  C17      1.0000 0.10200  0.61450  0.81980  Biso   1.000  C
  C18      1.0000 0.19850  0.38320  0.58500  Biso   1.000  C
  H7       1.0000 0.17940  0.39990  0.63430  Biso   1.000  H
  C19      1.0000 0.05150  0.39500  0.36400  Biso   1.000  C
  H8       1.0000 0.05950  0.42350  0.31650  Biso   1.000  H
  C20      1.0000 0.06630  0.35060  0.50790  Biso   1.000  C
  H9       1.0000 0.08540  0.34660  0.56360  Biso   1.000  H
  C21      1.0000 0.07940  0.49150  0.63320  Biso   1.000  C
  H10      1.0000 0.05570  0.46170  0.62090  Biso   1.000  H
  C22      1.0000 0.07340  0.52900  0.71250  Biso   1.000  C
  H11      1.0000 0.04630  0.52320  0.75290  Biso   1.000  H
  C23      1.0000 0.21720  0.37230  0.42660  Biso   1.000  C
  H12      1.0000 0.21230  0.38260  0.36190  Biso   1.000  H
  O6       1.0000 0.32968  0.24620  0.50530  Biso   1.000  O
  O7       1.0000 0.92659  0.28518  0.33260  Biso   1.000  O
  C24      1.0000 0.14250  0.56720  0.19050  Biso   1.000  C
  O8       1.0000 0.17180  0.59830  0.03490  Biso   1.000  O
  C25      1.0000 0.10450  0.57170  0.24970  Biso   1.000  C
  H13      1.0000 0.07840  0.59780  0.23530  Biso   1.000  H
  C26      1.0000 0.10390  0.53640  0.33530  Biso   1.000  C
  H14      1.0000 0.07840  0.54270  0.37940  Biso   1.000  H
  C27      1.0000 0.17660  0.52800  0.20890  Biso   1.000  C
  H15      1.0000 0.20380  0.52390  0.16810  Biso   1.000  H
  C28      1.0000 0.17200  0.49260  0.28960  Biso   1.000  C
  H16      1.0000 0.19660  0.46320  0.29790  Biso   1.000  H
  Co2      1.0000 0.38228  0.31472  0.96662  Biso   1.000  Co
  Si2      1.0000 0.36840  0.55434  0.46551  Biso   1.000  Si
  O9       1.0000 0.39290  0.35070  0.09820  Biso   1.000  O
  C29      1.0000 0.35810  0.39320  0.09820  Biso   1.000  C
  O10      1.0000 0.18297  0.72302  0.65930  Biso   1.000  O
  C30      1.0000 0.19260  0.72240  0.57100  Biso   1.000  C
  C31      1.0000 0.23400  0.68190  0.54040  Biso   1.000  C
  C32      1.0000 0.26340  0.65470  0.60930  Biso   1.000  C
  H17      1.0000 0.25700  0.66230  0.67430  Biso   1.000  H
  C33      1.0000 0.24520  0.66840  0.44980  Biso   1.000  C
  H18      1.0000 0.22740  0.68670  0.40010  Biso   1.000  H
  O11      1.0000 0.55654  0.76420  0.46730  Biso   1.000  O
  C34      1.0000 0.54750  0.72480  0.40540  Biso   1.000  C
  C35      1.0000 0.50350  0.68380  0.42050  Biso   1.000  C
  C36      1.0000 0.47320  0.68970  0.49560  Biso   1.000  C
  H19      1.0000 0.47840  0.72090  0.54020  Biso   1.000  H
  C37      1.0000 0.48800  0.64570  0.34960  Biso   1.000  C
  H20      1.0000 0.50390  0.64660  0.28990  Biso   1.000  H
  C38      1.0000 0.36140  0.50600  0.35610  Biso   1.000  C
  O12      1.0000 0.36957  0.33936  0.82630  Biso   1.000  O
  C39      1.0000 0.42187  0.60730  0.44800  Biso   1.000  C
  C40      1.0000 0.38060  0.50340  0.57130  Biso   1.000  C
  C41      1.0000 0.31272  0.60250  0.49380  Biso   1.000  C
  C42      1.0000 0.39280  0.42460  0.73350  Biso   1.000  C
  O13      1.0000 0.42837  0.39850  0.88310  Biso   1.000  O
  C43      1.0000 0.35350  0.41830  0.67500  Biso   1.000  C
  H21      1.0000 0.32980  0.38850  0.68750  Biso   1.000  H
  C44      1.0000 0.34850  0.45750  0.59410  Biso   1.000  C
  H22      1.0000 0.32140  0.45150  0.55360  Biso   1.000  H
  C45      1.0000 0.39800  0.38550  0.81980  Biso   1.000  C
  C46      1.0000 0.30150  0.61680  0.58500  Biso   1.000  C
  H23      1.0000 0.32060  0.60010  0.63430  Biso   1.000  H
  C47      1.0000 0.44850  0.60500  0.36400  Biso   1.000  C
  H24      1.0000 0.44050  0.57650  0.31650  Biso   1.000  H
  C48      1.0000 0.43370  0.64940  0.50790  Biso   1.000  C
  H25      1.0000 0.41460  0.65340  0.56360  Biso   1.000  H
  C49      1.0000 0.42060  0.50850  0.63320  Biso   1.000  C
  H26      1.0000 0.44430  0.53830  0.62090  Biso   1.000  H
  C50      1.0000 0.42660  0.47100  0.71250  Biso   1.000  C
  H27      1.0000 0.45370  0.47680  0.75290  Biso   1.000  H
  C51      1.0000 0.28280  0.62770  0.42660  Biso   1.000  C
  H28      1.0000 0.28770  0.61740  0.36190  Biso   1.000  H
  O14      1.0000 0.17032  0.75380  0.50530  Biso   1.000  O
  O15      1.0000 0.57341  0.71482  0.33260  Biso   1.000  O
  C52      1.0000 0.35750  0.43280  0.19050  Biso   1.000  C
  O16      1.0000 0.32820  0.40170  0.03490  Biso   1.000  O
  C53      1.0000 0.39550  0.42830  0.24970  Biso   1.000  C
  H29      1.0000 0.42160  0.40220  0.23530  Biso   1.000  H
  C54      1.0000 0.39610  0.46360  0.33530  Biso   1.000  C
  H30      1.0000 0.42160  0.45730  0.37940  Biso   1.000  H
  C55      1.0000 0.32340  0.47200  0.20890  Biso   1.000  C
  H31      1.0000 0.29620  0.47610  0.16810  Biso   1.000  H
  C56      1.0000 0.32800  0.50740  0.28960  Biso   1.000  C
  H32      1.0000 0.30340  0.53680  0.29790  Biso   1.000  H
  Co3      1.0000 0.38228  0.18528  0.53338  Biso   1.000  Co
  Si3      1.0000 0.36840  0.94566  0.03449  Biso   1.000  Si
  O17      1.0000 0.39290  0.14930  0.40180  Biso   1.000  O
  C57      1.0000 0.35810  0.10680  0.40180  Biso   1.000  C
  O18      1.0000 0.18297  0.77698  0.84070  Biso   1.000  O
  C58      1.0000 0.19260  0.77760  0.92900  Biso   1.000  C
  C59      1.0000 0.23400  0.81810  0.95960  Biso   1.000  C
  C60      1.0000 0.26340  0.84530  0.89070  Biso   1.000  C
  H33      1.0000 0.25700  0.83770  0.82570  Biso   1.000  H
  C61      1.0000 0.24520  0.83160  0.05020  Biso   1.000  C
  H34      1.0000 0.22740  0.81330  0.09990  Biso   1.000  H
  O19      1.0000 0.55654  0.73580  0.03270  Biso   1.000  O
  C62      1.0000 0.54750  0.77520  0.09460  Biso   1.000  C
  C63      1.0000 0.50350  0.81620  0.07950  Biso   1.000  C
  C64      1.0000 0.47320  0.81030  0.00440  Biso   1.000  C
  H35      1.0000 0.47840  0.77910  0.95980  Biso   1.000  H
  C65      1.0000 0.48800  0.85430  0.15040  Biso   1.000  C
  H36      1.0000 0.50390  0.85340  0.21010  Biso   1.000  H
  C66      1.0000 0.36140  0.99400  0.14390  Biso   1.000  C
  O20      1.0000 0.36957  0.16064  0.67370  Biso   1.000  O
  C67      1.0000 0.42187  0.89270  0.05200  Biso   1.000  C
  C68      1.0000 0.38060  0.99660  0.92870  Biso   1.000  C
  C69      1.0000 0.31272  0.89750  0.00620  Biso   1.000  C
  C70      1.0000 0.39280  0.07540  0.76650  Biso   1.000  C
  O21      1.0000 0.42837  0.10150  0.61690  Biso   1.000  O
  C71      1.0000 0.35350  0.08170  0.82500  Biso   1.000  C
  H37      1.0000 0.32980  0.11150  0.81250  Biso   1.000  H
  C72      1.0000 0.34850  0.04250  0.90590  Biso   1.000  C
  H38      1.0000 0.32140  0.04850  0.94640  Biso   1.000  H
  C73      1.0000 0.39800  0.11450  0.68020  Biso   1.000  C
  C74      1.0000 0.30150  0.88320  0.91500  Biso   1.000  C
  H39      1.0000 0.32060  0.89990  0.86570  Biso   1.000  H
  C75      1.0000 0.44850  0.89500  0.13600  Biso   1.000  C
  H40      1.0000 0.44050  0.92350  0.18350  Biso   1.000  H
  C76      1.0000 0.43370  0.85060  0.99210  Biso   1.000  C
  H41      1.0000 0.41460  0.84660  0.93640  Biso   1.000  H
  C77      1.0000 0.42060  0.99150  0.86680  Biso   1.000  C
  H42      1.0000 0.44430  0.96170  0.87910  Biso   1.000  H
  C78      1.0000 0.42660  0.02900  0.78750  Biso   1.000  C
  H43      1.0000 0.45370  0.02320  0.74710  Biso   1.000  H
  C79      1.0000 0.28280  0.87230  0.07340  Biso   1.000  C
  H44      1.0000 0.28770  0.88260  0.13810  Biso   1.000  H
  O22      1.0000 0.17032  0.74620  0.99470  Biso   1.000  O
  O23      1.0000 0.57341  0.78518  0.16740  Biso   1.000  O
  C80      1.0000 0.35750  0.06720  0.30950  Biso   1.000  C
  O24      1.0000 0.32820  0.09830  0.46510  Biso   1.000  O
  C81      1.0000 0.39550  0.07170  0.25030  Biso   1.000  C
  H45      1.0000 0.42160  0.09780  0.26470  Biso   1.000  H
  C82      1.0000 0.39610  0.03640  0.16470  Biso   1.000  C
  H46      1.0000 0.42160  0.04270  0.12060  Biso   1.000  H
  C83      1.0000 0.32340  0.02800  0.29110  Biso   1.000  C
  H47      1.0000 0.29620  0.02390  0.33190  Biso   1.000  H
  C84      1.0000 0.32800  0.99260  0.21040  Biso   1.000  C
  H48      1.0000 0.30340  0.96320  0.20210  Biso   1.000  H
  Co4      1.0000 0.11772  0.81472  0.53338  Biso   1.000  Co
  Si4      1.0000 0.13160  0.05434  0.03449  Biso   1.000  Si
  O25      1.0000 0.10710  0.85070  0.40180  Biso   1.000  O
  C85      1.0000 0.14190  0.89320  0.40180  Biso   1.000  C
  O26      1.0000 0.31703  0.22302  0.84070  Biso   1.000  O
  C86      1.0000 0.30740  0.22240  0.92900  Biso   1.000  C
  C87      1.0000 0.26600  0.18190  0.95960  Biso   1.000  C
  C88      1.0000 0.23660  0.15470  0.89070  Biso   1.000  C
  H49      1.0000 0.24300  0.16230  0.82570  Biso   1.000  H
  C89      1.0000 0.25480  0.16840  0.05020  Biso   1.000  C
  H50      1.0000 0.27260  0.18670  0.09990  Biso   1.000  H
  O27      1.0000 0.94346  0.26420  0.03270  Biso   1.000  O
  C90      1.0000 0.95250  0.22480  0.09460  Biso   1.000  C
  C91      1.0000 0.99650  0.18380  0.07950  Biso   1.000  C
  C92      1.0000 0.02680  0.18970  0.00440  Biso   1.000  C
  H51      1.0000 0.02160  0.22090  0.95980  Biso   1.000  H
  C93      1.0000 0.01200  0.14570  0.15040  Biso   1.000  C
  H52      1.0000 0.99610  0.14660  0.21010  Biso   1.000  H
  C94      1.0000 0.13860  0.00600  0.14390  Biso   1.000  C
  O28      1.0000 0.13043  0.83936  0.67370  Biso   1.000  O
  C95      1.0000 0.07813  0.10730  0.05200  Biso   1.000  C
  C96      1.0000 0.11940  0.00340  0.92870  Biso   1.000  C
  C97      1.0000 0.18728  0.10250  0.00620  Biso   1.000  C
  C98      1.0000 0.10720  0.92460  0.76650  Biso   1.000  C
  O29      1.0000 0.07163  0.89850  0.61690  Biso   1.000  O
  C99      1.0000 0.14650  0.91830  0.82500  Biso   1.000  C
  H53      1.0000 0.17020  0.88850  0.81250  Biso   1.000  H
  C100     1.0000 0.15150  0.95750  0.90590  Biso   1.000  C
  H54      1.0000 0.17860  0.95150  0.94640  Biso   1.000  H
  C101     1.0000 0.10200  0.88550  0.68020  Biso   1.000  C
  C102     1.0000 0.19850  0.11680  0.91500  Biso   1.000  C
  H55      1.0000 0.17940  0.10010  0.86570  Biso   1.000  H
  C103     1.0000 0.05150  0.10500  0.13600  Biso   1.000  C
  H56      1.0000 0.05950  0.07650  0.18350  Biso   1.000  H
  C104     1.0000 0.06630  0.14940  0.99210  Biso   1.000  C
  H57      1.0000 0.08540  0.15340  0.93640  Biso   1.000  H
  C105     1.0000 0.07940  0.00850  0.86680  Biso   1.000  C
  H58      1.0000 0.05570  0.03830  0.87910  Biso   1.000  H
  C106     1.0000 0.07340  0.97100  0.78750  Biso   1.000  C
  H59      1.0000 0.04630  0.97680  0.74710  Biso   1.000  H
  C107     1.0000 0.21720  0.12770  0.07340  Biso   1.000  C
  H60      1.0000 0.21230  0.11740  0.13810  Biso   1.000  H
  O30      1.0000 0.32968  0.25380  0.99470  Biso   1.000  O
  O31      1.0000 0.92659  0.21482  0.16740  Biso   1.000  O
  C108     1.0000 0.14250  0.93280  0.30950  Biso   1.000  C
  O32      1.0000 0.17180  0.90170  0.46510  Biso   1.000  O
  C109     1.0000 0.10450  0.92830  0.25030  Biso   1.000  C
  H61      1.0000 0.07840  0.90220  0.26470  Biso   1.000  H
  C110     1.0000 0.10390  0.96360  0.16470  Biso   1.000  C
  H62      1.0000 0.07840  0.95730  0.12060  Biso   1.000  H
  C111     1.0000 0.17660  0.97200  0.29110  Biso   1.000  C
  H63      1.0000 0.20380  0.97610  0.33190  Biso   1.000  H
  C112     1.0000 0.17200  0.00740  0.21040  Biso   1.000  C
  H64      1.0000 0.19660  0.03680  0.20210  Biso   1.000  H
  Co5      1.0000 0.88228  0.31472  0.03338  Biso   1.000  Co
  Si5      1.0000 0.86840  0.55434  0.53449  Biso   1.000  Si
  O33      1.0000 0.89290  0.35070  0.90180  Biso   1.000  O
  C113     1.0000 0.85810  0.39320  0.90180  Biso   1.000  C
  O34      1.0000 0.68297  0.72302  0.34070  Biso   1.000  O
  C114     1.0000 0.69260  0.72240  0.42900  Biso   1.000  C
  C115     1.0000 0.73400  0.68190  0.45960  Biso   1.000  C
  C116     1.0000 0.76340  0.65470  0.39070  Biso   1.000  C
  H65      1.0000 0.75700  0.66230  0.32570  Biso   1.000  H
  C117     1.0000 0.74520  0.66840  0.55020  Biso   1.000  C
  H66      1.0000 0.72740  0.68670  0.59990  Biso   1.000  H
  O35      1.0000 0.05654  0.76420  0.53270  Biso   1.000  O
  C118     1.0000 0.04750  0.72480  0.59460  Biso   1.000  C
  C119     1.0000 0.00350  0.68380  0.57950  Biso   1.000  C
  C120     1.0000 0.97320  0.68970  0.50440  Biso   1.000  C
  H67      1.0000 0.97840  0.72090  0.45980  Biso   1.000  H
  C121     1.0000 0.98800  0.64570  0.65040  Biso   1.000  C
  H68      1.0000 0.00390  0.64660  0.71010  Biso   1.000  H
  C122     1.0000 0.86140  0.50600  0.64390  Biso   1.000  C
  O36      1.0000 0.86957  0.33936  0.17370  Biso   1.000  O
  C123     1.0000 0.92187  0.60730  0.55200  Biso   1.000  C
  C124     1.0000 0.88060  0.50340  0.42870  Biso   1.000  C
  C125     1.0000 0.81272  0.60250  0.50620  Biso   1.000  C
  C126     1.0000 0.89280  0.42460  0.26650  Biso   1.000  C
  O37      1.0000 0.92837  0.39850  0.11690  Biso   1.000  O
  C127     1.0000 0.85350  0.41830  0.32500  Biso   1.000  C
  H69      1.0000 0.82980  0.38850  0.31250  Biso   1.000  H
  C128     1.0000 0.84850  0.45750  0.40590  Biso   1.000  C
  H70      1.0000 0.82140  0.45150  0.44640  Biso   1.000  H
  C129     1.0000 0.89800  0.38550  0.18020  Biso   1.000  C
  C130     1.0000 0.80150  0.61680  0.41500  Biso   1.000  C
  H71      1.0000 0.82060  0.60010  0.36570  Biso   1.000  H
  C131     1.0000 0.94850  0.60500  0.63600  Biso   1.000  C
  H72      1.0000 0.94050  0.57650  0.68350  Biso   1.000  H
  C132     1.0000 0.93370  0.64940  0.49210  Biso   1.000  C
  H73      1.0000 0.91460  0.65340  0.43640  Biso   1.000  H
  C133     1.0000 0.92060  0.50850  0.36680  Biso   1.000  C
  H74      1.0000 0.94430  0.53830  0.37910  Biso   1.000  H
  C134     1.0000 0.92660  0.47100  0.28750  Biso   1.000  C
  H75      1.0000 0.95370  0.47680  0.24710  Biso   1.000  H
  C135     1.0000 0.78280  0.62770  0.57340  Biso   1.000  C
  H76      1.0000 0.78770  0.61740  0.63810  Biso   1.000  H
  O38      1.0000 0.67032  0.75380  0.49470  Biso   1.000  O
  O39      1.0000 0.07341  0.71482  0.66740  Biso   1.000  O
  C136     1.0000 0.85750  0.43280  0.80950  Biso   1.000  C
  O40      1.0000 0.82820  0.40170  0.96510  Biso   1.000  O
  C137     1.0000 0.89550  0.42830  0.75030  Biso   1.000  C
  H77      1.0000 0.92160  0.40220  0.76470  Biso   1.000  H
  C138     1.0000 0.89610  0.46360  0.66470  Biso   1.000  C
  H78      1.0000 0.92160  0.45730  0.62060  Biso   1.000  H
  C139     1.0000 0.82340  0.47200  0.79110  Biso   1.000  C
  H79      1.0000 0.79620  0.47610  0.83190  Biso   1.000  H
  C140     1.0000 0.82800  0.50740  0.71040  Biso   1.000  C
  H80      1.0000 0.80340  0.53680  0.70210  Biso   1.000  H
  Co6      1.0000 0.61772  0.68528  0.03338  Biso   1.000  Co
  Si6      1.0000 0.63160  0.44566  0.53449  Biso   1.000  Si
  O41      1.0000 0.60710  0.64930  0.90180  Biso   1.000  O
  C141     1.0000 0.64190  0.60680  0.90180  Biso   1.000  C
  O42      1.0000 0.81703  0.27698  0.34070  Biso   1.000  O
  C142     1.0000 0.80740  0.27760  0.42900  Biso   1.000  C
  C143     1.0000 0.76600  0.31810  0.45960  Biso   1.000  C
  C144     1.0000 0.73660  0.34530  0.39070  Biso   1.000  C
  H81      1.0000 0.74300  0.33770  0.32570  Biso   1.000  H
  C145     1.0000 0.75480  0.33160  0.55020  Biso   1.000  C
  H82      1.0000 0.77260  0.31330  0.59990  Biso   1.000  H
  O43      1.0000 0.44346  0.23580  0.53270  Biso   1.000  O
  C146     1.0000 0.45250  0.27520  0.59460  Biso   1.000  C
  C147     1.0000 0.49650  0.31620  0.57950  Biso   1.000  C
  C148     1.0000 0.52680  0.31030  0.50440  Biso   1.000  C
  H83      1.0000 0.52160  0.27910  0.45980  Biso   1.000  H
  C149     1.0000 0.51200  0.35430  0.65040  Biso   1.000  C
  H84      1.0000 0.49610  0.35340  0.71010  Biso   1.000  H
  C150     1.0000 0.63860  0.49400  0.64390  Biso   1.000  C
  O44      1.0000 0.63043  0.66064  0.17370  Biso   1.000  O
  C151     1.0000 0.57813  0.39270  0.55200  Biso   1.000  C
  C152     1.0000 0.61940  0.49660  0.42870  Biso   1.000  C
  C153     1.0000 0.68728  0.39750  0.50620  Biso   1.000  C
  C154     1.0000 0.60720  0.57540  0.26650  Biso   1.000  C
  O45      1.0000 0.57163  0.60150  0.11690  Biso   1.000  O
  C155     1.0000 0.64650  0.58170  0.32500  Biso   1.000  C
  H85      1.0000 0.67020  0.61150  0.31250  Biso   1.000  H
  C156     1.0000 0.65150  0.54250  0.40590  Biso   1.000  C
  H86      1.0000 0.67860  0.54850  0.44640  Biso   1.000  H
  C157     1.0000 0.60200  0.61450  0.18020  Biso   1.000  C
  C158     1.0000 0.69850  0.38320  0.41500  Biso   1.000  C
  H87      1.0000 0.67940  0.39990  0.36570  Biso   1.000  H
  C159     1.0000 0.55150  0.39500  0.63600  Biso   1.000  C
  H88      1.0000 0.55950  0.42350  0.68350  Biso   1.000  H
  C160     1.0000 0.56630  0.35060  0.49210  Biso   1.000  C
  H89      1.0000 0.58540  0.34660  0.43640  Biso   1.000  H
  C161     1.0000 0.57940  0.49150  0.36680  Biso   1.000  C
  H90      1.0000 0.55570  0.46170  0.37910  Biso   1.000  H
  C162     1.0000 0.57340  0.52900  0.28750  Biso   1.000  C
  H91      1.0000 0.54630  0.52320  0.24710  Biso   1.000  H
  C163     1.0000 0.71720  0.37230  0.57340  Biso   1.000  C
  H92      1.0000 0.71230  0.38260  0.63810  Biso   1.000  H
  O46      1.0000 0.82968  0.24620  0.49470  Biso   1.000  O
  O47      1.0000 0.42659  0.28518  0.66740  Biso   1.000  O
  C164     1.0000 0.64250  0.56720  0.80950  Biso   1.000  C
  O48      1.0000 0.67180  0.59830  0.96510  Biso   1.000  O
  C165     1.0000 0.60450  0.57170  0.75030  Biso   1.000  C
  H93      1.0000 0.57840  0.59780  0.76470  Biso   1.000  H
  C166     1.0000 0.60390  0.53640  0.66470  Biso   1.000  C
  H94      1.0000 0.57840  0.54270  0.62060  Biso   1.000  H
  C167     1.0000 0.67660  0.52800  0.79110  Biso   1.000  C
  H95      1.0000 0.70380  0.52390  0.83190  Biso   1.000  H
  C168     1.0000 0.67200  0.49260  0.71040  Biso   1.000  C
  H96      1.0000 0.69660  0.46320  0.70210  Biso   1.000  H
  Co7      1.0000 0.61772  0.81472  0.46662  Biso   1.000  Co
  Si7      1.0000 0.63160  0.05434  0.96551  Biso   1.000  Si
  O49      1.0000 0.60710  0.85070  0.59820  Biso   1.000  O
  C169     1.0000 0.64190  0.89320  0.59820  Biso   1.000  C
  O50      1.0000 0.81703  0.22302  0.15930  Biso   1.000  O
  C170     1.0000 0.80740  0.22240  0.07100  Biso   1.000  C
  C171     1.0000 0.76600  0.18190  0.04040  Biso   1.000  C
  C172     1.0000 0.73660  0.15470  0.10930  Biso   1.000  C
  H97      1.0000 0.74300  0.16230  0.17430  Biso   1.000  H
  C173     1.0000 0.75480  0.16840  0.94980  Biso   1.000  C
  H98      1.0000 0.77260  0.18670  0.90010  Biso   1.000  H
  O51      1.0000 0.44346  0.26420  0.96730  Biso   1.000  O
  C174     1.0000 0.45250  0.22480  0.90540  Biso   1.000  C
  C175     1.0000 0.49650  0.18380  0.92050  Biso   1.000  C
  C176     1.0000 0.52680  0.18970  0.99560  Biso   1.000  C
  H99      1.0000 0.52160  0.22090  0.04020  Biso   1.000  H
  C177     1.0000 0.51200  0.14570  0.84960  Biso   1.000  C
  H100     1.0000 0.49610  0.14660  0.78990  Biso   1.000  H
  C178     1.0000 0.63860  0.00600  0.85610  Biso   1.000  C
  O52      1.0000 0.63043  0.83936  0.32630  Biso   1.000  O
  C179     1.0000 0.57813  0.10730  0.94800  Biso   1.000  C
  C180     1.0000 0.61940  0.00340  0.07130  Biso   1.000  C
  C181     1.0000 0.68728  0.10250  0.99380  Biso   1.000  C
  C182     1.0000 0.60720  0.92460  0.23350  Biso   1.000  C
  O53      1.0000 0.57163  0.89850  0.38310  Biso   1.000  O
  C183     1.0000 0.64650  0.91830  0.17500  Biso   1.000  C
  H101     1.0000 0.67020  0.88850  0.18750  Biso   1.000  H
  C184     1.0000 0.65150  0.95750  0.09410  Biso   1.000  C
  H102     1.0000 0.67860  0.95150  0.05360  Biso   1.000  H
  C185     1.0000 0.60200  0.88550  0.31980  Biso   1.000  C
  C186     1.0000 0.69850  0.11680  0.08500  Biso   1.000  C
  H103     1.0000 0.67940  0.10010  0.13430  Biso   1.000  H
  C187     1.0000 0.55150  0.10500  0.86400  Biso   1.000  C
  H104     1.0000 0.55950  0.07650  0.81650  Biso   1.000  H
  C188     1.0000 0.56630  0.14940  0.00790  Biso   1.000  C
  H105     1.0000 0.58540  0.15340  0.06360  Biso   1.000  H
  C189     1.0000 0.57940  0.00850  0.13320  Biso   1.000  C
  H106     1.0000 0.55570  0.03830  0.12090  Biso   1.000  H
  C190     1.0000 0.57340  0.97100  0.21250  Biso   1.000  C
  H107     1.0000 0.54630  0.97680  0.25290  Biso   1.000  H
  C191     1.0000 0.71720  0.12770  0.92660  Biso   1.000  C
  H108     1.0000 0.71230  0.11740  0.86190  Biso   1.000  H
  O54      1.0000 0.82968  0.25380  0.00530  Biso   1.000  O
  O55      1.0000 0.42659  0.21482  0.83260  Biso   1.000  O
  C192     1.0000 0.64250  0.93280  0.69050  Biso   1.000  C
  O56      1.0000 0.67180  0.90170  0.53490  Biso   1.000  O
  C193     1.0000 0.60450  0.92830  0.74970  Biso   1.000  C
  H109     1.0000 0.57840  0.90220  0.73530  Biso   1.000  H
  C194     1.0000 0.60390  0.96360  0.83530  Biso   1.000  C
  H110     1.0000 0.57840  0.95730  0.87940  Biso   1.000  H
  C195     1.0000 0.67660  0.97200  0.70890  Biso   1.000  C
  H111     1.0000 0.70380  0.97610  0.66810  Biso   1.000  H
  C196     1.0000 0.67200  0.00740  0.78960  Biso   1.000  C
  H112     1.0000 0.69660  0.03680  0.79790  Biso   1.000  H
  Co8      1.0000 0.88228  0.18528  0.46662  Biso   1.000  Co
  Si8      1.0000 0.86840  0.94566  0.96551  Biso   1.000  Si
  O57      1.0000 0.89290  0.14930  0.59820  Biso   1.000  O
  C197     1.0000 0.85810  0.10680  0.59820  Biso   1.000  C
  O58      1.0000 0.68297  0.77698  0.15930  Biso   1.000  O
  C198     1.0000 0.69260  0.77760  0.07100  Biso   1.000  C
  C199     1.0000 0.73400  0.81810  0.04040  Biso   1.000  C
  C200     1.0000 0.76340  0.84530  0.10930  Biso   1.000  C
  H113     1.0000 0.75700  0.83770  0.17430  Biso   1.000  H
  C201     1.0000 0.74520  0.83160  0.94980  Biso   1.000  C
  H114     1.0000 0.72740  0.81330  0.90010  Biso   1.000  H
  O59      1.0000 0.05654  0.73580  0.96730  Biso   1.000  O
  C202     1.0000 0.04750  0.77520  0.90540  Biso   1.000  C
  C203     1.0000 0.00350  0.81620  0.92050  Biso   1.000  C
  C204     1.0000 0.97320  0.81030  0.99560  Biso   1.000  C
  H115     1.0000 0.97840  0.77910  0.04020  Biso   1.000  H
  C205     1.0000 0.98800  0.85430  0.84960  Biso   1.000  C
  H116     1.0000 0.00390  0.85340  0.78990  Biso   1.000  H
  C206     1.0000 0.86140  0.99400  0.85610  Biso   1.000  C
  O60      1.0000 0.86957  0.16064  0.32630  Biso   1.000  O
  C207     1.0000 0.92187  0.89270  0.94800  Biso   1.000  C
  C208     1.0000 0.88060  0.99660  0.07130  Biso   1.000  C
  C209     1.0000 0.81272  0.89750  0.99380  Biso   1.000  C
  C210     1.0000 0.89280  0.07540  0.23350  Biso   1.000  C
  O61      1.0000 0.92837  0.10150  0.38310  Biso   1.000  O
  C211     1.0000 0.85350  0.08170  0.17500  Biso   1.000  C
  H117     1.0000 0.82980  0.11150  0.18750  Biso   1.000  H
  C212     1.0000 0.84850  0.04250  0.09410  Biso   1.000  C
  H118     1.0000 0.82140  0.04850  0.05360  Biso   1.000  H
  C213     1.0000 0.89800  0.11450  0.31980  Biso   1.000  C
  C214     1.0000 0.80150  0.88320  0.08500  Biso   1.000  C
  H119     1.0000 0.82060  0.89990  0.13430  Biso   1.000  H
  C215     1.0000 0.94850  0.89500  0.86400  Biso   1.000  C
  H120     1.0000 0.94050  0.92350  0.81650  Biso   1.000  H
  C216     1.0000 0.93370  0.85060  0.00790  Biso   1.000  C
  H121     1.0000 0.91460  0.84660  0.06360  Biso   1.000  H
  C217     1.0000 0.92060  0.99150  0.13320  Biso   1.000  C
  H122     1.0000 0.94430  0.96170  0.12090  Biso   1.000  H
  C218     1.0000 0.92660  0.02900  0.21250  Biso   1.000  C
  H123     1.0000 0.95370  0.02320  0.25290  Biso   1.000  H
  C219     1.0000 0.78280  0.87230  0.92660  Biso   1.000  C
  H124     1.0000 0.78770  0.88260  0.86190  Biso   1.000  H
  O62      1.0000 0.67032  0.74620  0.00530  Biso   1.000  O
  O63      1.0000 0.07341  0.78518  0.83260  Biso   1.000  O
  C220     1.0000 0.85750  0.06720  0.69050  Biso   1.000  C
  O64      1.0000 0.82820  0.09830  0.53490  Biso   1.000  O
  C221     1.0000 0.89550  0.07170  0.74970  Biso   1.000  C
  H125     1.0000 0.92160  0.09780  0.73530  Biso   1.000  H
  C222     1.0000 0.89610  0.03640  0.83530  Biso   1.000  C
  H126     1.0000 0.92160  0.04270  0.87940  Biso   1.000  H
  C223     1.0000 0.82340  0.02800  0.70890  Biso   1.000  C
  H127     1.0000 0.79620  0.02390  0.66810  Biso   1.000  H
  C224     1.0000 0.82800  0.99260  0.78960  Biso   1.000  C
  H128     1.0000 0.80340  0.96320  0.79790  Biso   1.000  H
  Co9      1.0000 0.12840  0.75000  0.75000  Biso   1.000  Co
  Co10     1.0000 0.37160  0.25000  0.75000  Biso   1.000  Co
  Co11     1.0000 0.87160  0.25000  0.25000  Biso   1.000  Co
  Co12     1.0000 0.62840  0.75000  0.25000  Biso   1.000  Co
