data_image0
_cell_length_a       16.9025
_cell_length_b       18.7929
_cell_length_c       18.7929
_cell_angle_alpha    68.5815
_cell_angle_beta     72.5542
_cell_angle_gamma    107.446

_symmetry_space_group_name_H-M    P 1
_symmetry_int_tables_number       1

loop_
  _symmetry_equiv_pos_as_xyz
  'x, y, z'

loop_
  _atom_site_label
  _atom_site_occupancy
  _atom_site_fract_x
  _atom_site_fract_y
  _atom_site_fract_z
  _atom_site_thermal_displace_type
  _atom_site_B_iso_or_equiv
  _atom_site_type_symbol
  Ni1      1.0000 0.86893  0.61893  0.76214  Biso   1.000  Ni
  Ni2      1.0000 0.63107  0.76214  0.61893  Biso   1.000  Ni
  Ni3      1.0000 0.25000  0.61893  0.61893  Biso   1.000  Ni
  Ni4      1.0000 0.13107  0.38107  0.23786  Biso   1.000  Ni
  Ni5      1.0000 0.36893  0.23786  0.38107  Biso   1.000  Ni
  Ni6      1.0000 0.75000  0.38107  0.38107  Biso   1.000  Ni
  H1       1.0000 0.96550  0.08890  0.85070  Biso   1.000  H
  H2       1.0000 0.77210  0.82750  0.95440  Biso   1.000  H
  H3       1.0000 0.06870  0.93700  0.73240  Biso   1.000  H
  H4       1.0000 0.04280  0.00860  0.80760  Biso   1.000  H
  H5       1.0000 0.79730  0.75780  0.87600  Biso   1.000  H
  H6       1.0000 0.91100  0.72770  0.53390  Biso   1.000  H
  H7       1.0000 0.92050  0.64090  0.56860  Biso   1.000  H
  H8       1.0000 0.89970  0.55160  0.03610  Biso   1.000  H
  H9       1.0000 0.85110  0.60630  0.93540  Biso   1.000  H
  H10      1.0000 0.99720  0.54740  0.78470  Biso   1.000  H
  H11      1.0000 0.05410  0.49690  0.87880  Biso   1.000  H
  H12      1.0000 0.80160  0.59310  0.66780  Biso   1.000  H
  H13      1.0000 0.81620  0.85070  0.06040  Biso   1.000  H
  H14      1.0000 0.72650  0.95440  0.21810  Biso   1.000  H
  H15      1.0000 0.80110  0.73240  0.33060  Biso   1.000  H
  H16      1.0000 0.85040  0.80760  0.18380  Biso   1.000  H
  H17      1.0000 0.67330  0.87600  0.36620  Biso   1.000  H
  H18      1.0000 0.44490  0.53390  0.73840  Biso   1.000  H
  H19      1.0000 0.48910  0.56860  0.79050  Biso   1.000  H
  H20      1.0000 0.93580  0.03610  0.41230  Biso   1.000  H
  H21      1.0000 0.78650  0.93540  0.45830  Biso   1.000  H
  H22      1.0000 0.78190  0.78470  0.66790  Biso   1.000  H
  H23      1.0000 0.93290  0.87880  0.62430  Biso   1.000  H
  H24      1.0000 0.46940  0.66780  0.73910  Biso   1.000  H
  H25      1.0000 0.87660  0.06040  0.08890  Biso   1.000  H
  H26      1.0000 0.94460  0.21810  0.82750  Biso   1.000  H
  H27      1.0000 0.13170  0.33060  0.93700  Biso   1.000  H
  H28      1.0000 0.03420  0.18380  0.00860  Biso   1.000  H
  H29      1.0000 0.03950  0.36620  0.75780  Biso   1.000  H
  H30      1.0000 0.18330  0.73840  0.72770  Biso   1.000  H
  H31      1.0000 0.27960  0.79050  0.64090  Biso   1.000  H
  H32      1.0000 0.34810  0.41230  0.55160  Biso   1.000  H
  H33      1.0000 0.24480  0.45830  0.60630  Biso   1.000  H
  H34      1.0000 0.44980  0.66790  0.54740  Biso   1.000  H
  H35      1.0000 0.55720  0.62430  0.49690  Biso   1.000  H
  H36      1.0000 0.20850  0.73910  0.59310  Biso   1.000  H
  H37      1.0000 0.68380  0.06040  0.85070  Biso   1.000  H
  H38      1.0000 0.77350  0.21810  0.95440  Biso   1.000  H
  H39      1.0000 0.69890  0.33060  0.73240  Biso   1.000  H
  H40      1.0000 0.64960  0.18380  0.80760  Biso   1.000  H
  H41      1.0000 0.82670  0.36620  0.87600  Biso   1.000  H
  H42      1.0000 0.05510  0.73840  0.53390  Biso   1.000  H
  H43      1.0000 0.01090  0.79050  0.56860  Biso   1.000  H
  H44      1.0000 0.56420  0.41230  0.03610  Biso   1.000  H
  H45      1.0000 0.71350  0.45830  0.93540  Biso   1.000  H
  H46      1.0000 0.71810  0.66790  0.78470  Biso   1.000  H
  H47      1.0000 0.56710  0.62430  0.87880  Biso   1.000  H
  H48      1.0000 0.03060  0.73910  0.66780  Biso   1.000  H
  H49      1.0000 0.62340  0.08890  0.06040  Biso   1.000  H
  H50      1.0000 0.55540  0.82750  0.21810  Biso   1.000  H
  H51      1.0000 0.36830  0.93700  0.33060  Biso   1.000  H
  H52      1.0000 0.46580  0.00860  0.18380  Biso   1.000  H
  H53      1.0000 0.46050  0.75780  0.36620  Biso   1.000  H
  H54      1.0000 0.31670  0.72770  0.73840  Biso   1.000  H
  H55      1.0000 0.22040  0.64090  0.79050  Biso   1.000  H
  H56      1.0000 0.15190  0.55160  0.41230  Biso   1.000  H
  H57      1.0000 0.25520  0.60630  0.45830  Biso   1.000  H
  H58      1.0000 0.05020  0.54740  0.66790  Biso   1.000  H
  H59      1.0000 0.94280  0.49690  0.62430  Biso   1.000  H
  H60      1.0000 0.29150  0.59310  0.73910  Biso   1.000  H
  H61      1.0000 0.53450  0.85070  0.08890  Biso   1.000  H
  H62      1.0000 0.72790  0.95440  0.82750  Biso   1.000  H
  H63      1.0000 0.43130  0.73240  0.93700  Biso   1.000  H
  H64      1.0000 0.45720  0.80760  0.00860  Biso   1.000  H
  H65      1.0000 0.70270  0.87600  0.75780  Biso   1.000  H
  H66      1.0000 0.58900  0.53390  0.72770  Biso   1.000  H
  H67      1.0000 0.57950  0.56860  0.64090  Biso   1.000  H
  H68      1.0000 0.60030  0.03610  0.55160  Biso   1.000  H
  H69      1.0000 0.64890  0.93540  0.60630  Biso   1.000  H
  H70      1.0000 0.50280  0.78470  0.54740  Biso   1.000  H
  H71      1.0000 0.44590  0.87880  0.49690  Biso   1.000  H
  H72      1.0000 0.69840  0.66780  0.59310  Biso   1.000  H
  H73      1.0000 0.03450  0.91110  0.14930  Biso   1.000  H
  H74      1.0000 0.22790  0.17250  0.04560  Biso   1.000  H
  H75      1.0000 0.93130  0.06300  0.26760  Biso   1.000  H
  H76      1.0000 0.95720  0.99140  0.19240  Biso   1.000  H
  H77      1.0000 0.20270  0.24220  0.12400  Biso   1.000  H
  H78      1.0000 0.08900  0.27230  0.46610  Biso   1.000  H
  H79      1.0000 0.07950  0.35910  0.43140  Biso   1.000  H
  H80      1.0000 0.10030  0.44840  0.96390  Biso   1.000  H
  H81      1.0000 0.14890  0.39370  0.06460  Biso   1.000  H
  H82      1.0000 0.00280  0.45260  0.21530  Biso   1.000  H
  H83      1.0000 0.94590  0.50310  0.12120  Biso   1.000  H
  H84      1.0000 0.19840  0.40690  0.33220  Biso   1.000  H
  H85      1.0000 0.18380  0.14930  0.93960  Biso   1.000  H
  H86      1.0000 0.27350  0.04560  0.78190  Biso   1.000  H
  H87      1.0000 0.19890  0.26760  0.66940  Biso   1.000  H
  H88      1.0000 0.14960  0.19240  0.81620  Biso   1.000  H
  H89      1.0000 0.32670  0.12400  0.63380  Biso   1.000  H
  H90      1.0000 0.55510  0.46610  0.26160  Biso   1.000  H
  H91      1.0000 0.51090  0.43140  0.20950  Biso   1.000  H
  H92      1.0000 0.06420  0.96390  0.58770  Biso   1.000  H
  H93      1.0000 0.21350  0.06460  0.54170  Biso   1.000  H
  H94      1.0000 0.21810  0.21530  0.33210  Biso   1.000  H
  H95      1.0000 0.06710  0.12120  0.37570  Biso   1.000  H
  H96      1.0000 0.53060  0.33220  0.26090  Biso   1.000  H
  H97      1.0000 0.12340  0.93960  0.91110  Biso   1.000  H
  H98      1.0000 0.05540  0.78190  0.17250  Biso   1.000  H
  H99      1.0000 0.86830  0.66940  0.06300  Biso   1.000  H
  H100     1.0000 0.96580  0.81620  0.99140  Biso   1.000  H
  H101     1.0000 0.96050  0.63380  0.24220  Biso   1.000  H
  H102     1.0000 0.81670  0.26160  0.27230  Biso   1.000  H
  H103     1.0000 0.72040  0.20950  0.35910  Biso   1.000  H
  H104     1.0000 0.65190  0.58770  0.44840  Biso   1.000  H
  H105     1.0000 0.75520  0.54170  0.39370  Biso   1.000  H
  H106     1.0000 0.55020  0.33210  0.45260  Biso   1.000  H
  H107     1.0000 0.44280  0.37570  0.50310  Biso   1.000  H
  H108     1.0000 0.79150  0.26090  0.40690  Biso   1.000  H
  H109     1.0000 0.31620  0.93960  0.14930  Biso   1.000  H
  H110     1.0000 0.22650  0.78190  0.04560  Biso   1.000  H
  H111     1.0000 0.30110  0.66940  0.26760  Biso   1.000  H
  H112     1.0000 0.35040  0.81620  0.19240  Biso   1.000  H
  H113     1.0000 0.17330  0.63380  0.12400  Biso   1.000  H
  H114     1.0000 0.94490  0.26160  0.46610  Biso   1.000  H
  H115     1.0000 0.98910  0.20950  0.43140  Biso   1.000  H
  H116     1.0000 0.43580  0.58770  0.96390  Biso   1.000  H
  H117     1.0000 0.28650  0.54170  0.06460  Biso   1.000  H
  H118     1.0000 0.28190  0.33210  0.21530  Biso   1.000  H
  H119     1.0000 0.43290  0.37570  0.12120  Biso   1.000  H
  H120     1.0000 0.96940  0.26090  0.33220  Biso   1.000  H
  H121     1.0000 0.37660  0.91110  0.93960  Biso   1.000  H
  H122     1.0000 0.44460  0.17250  0.78190  Biso   1.000  H
  H123     1.0000 0.63170  0.06300  0.66940  Biso   1.000  H
  H124     1.0000 0.53420  0.99140  0.81620  Biso   1.000  H
  H125     1.0000 0.53950  0.24220  0.63380  Biso   1.000  H
  H126     1.0000 0.68330  0.27230  0.26160  Biso   1.000  H
  H127     1.0000 0.77960  0.35910  0.20950  Biso   1.000  H
  H128     1.0000 0.84810  0.44840  0.58770  Biso   1.000  H
  H129     1.0000 0.74480  0.39370  0.54170  Biso   1.000  H
  H130     1.0000 0.94980  0.45260  0.33210  Biso   1.000  H
  H131     1.0000 0.05720  0.50310  0.37570  Biso   1.000  H
  H132     1.0000 0.70850  0.40690  0.26090  Biso   1.000  H
  H133     1.0000 0.46550  0.14930  0.91110  Biso   1.000  H
  H134     1.0000 0.27210  0.04560  0.17250  Biso   1.000  H
  H135     1.0000 0.56870  0.26760  0.06300  Biso   1.000  H
  H136     1.0000 0.54280  0.19240  0.99140  Biso   1.000  H
  H137     1.0000 0.29730  0.12400  0.24220  Biso   1.000  H
  H138     1.0000 0.41100  0.46610  0.27230  Biso   1.000  H
  H139     1.0000 0.42050  0.43140  0.35910  Biso   1.000  H
  H140     1.0000 0.39970  0.96390  0.44840  Biso   1.000  H
  H141     1.0000 0.35110  0.06460  0.39370  Biso   1.000  H
  H142     1.0000 0.49720  0.21530  0.45260  Biso   1.000  H
  H143     1.0000 0.55410  0.12120  0.50310  Biso   1.000  H
  H144     1.0000 0.30160  0.33220  0.40690  Biso   1.000  H
  C1       1.0000 0.95382  0.78878  0.75332  Biso   1.000  C
  C2       1.0000 0.93723  0.83893  0.79804  Biso   1.000  C
  C3       1.0000 0.93363  0.05285  0.91146  Biso   1.000  C
  C4       1.0000 0.83276  0.84965  0.90977  Biso   1.000  C
  C5       1.0000 0.00835  0.91399  0.77794  Biso   1.000  C
  C6       1.0000 0.89211  0.96332  0.94709  Biso   1.000  C
  C7       1.0000 0.98383  0.51797  0.96848  Biso   1.000  C
  C8       1.0000 0.90587  0.92409  0.89148  Biso   1.000  C
  C9       1.0000 0.99294  0.95635  0.82333  Biso   1.000  C
  C10      1.0000 0.84789  0.80783  0.86336  Biso   1.000  C
  C11      1.0000 0.91713  0.68713  0.58084  Biso   1.000  C
  C12      1.0000 0.92238  0.55098  0.98364  Biso   1.000  C
  C13      1.0000 0.89298  0.58323  0.92319  Biso   1.000  C
  C14      1.0000 0.97771  0.54989  0.83636  Biso   1.000  C
  C15      1.0000 0.01111  0.51848  0.89315  Biso   1.000  C
  C16      1.0000 0.70714  0.75332  0.45790  Biso   1.000  C
  C17      1.0000 0.73527  0.79804  0.36303  Biso   1.000  C
  C18      1.0000 0.84509  0.91146  0.03569  Biso   1.000  C
  C19      1.0000 0.74253  0.90977  0.24058  Biso   1.000  C
  C20      1.0000 0.78629  0.77794  0.30807  Biso   1.000  C
  C21      1.0000 0.83920  0.94709  0.08959  Biso   1.000  C
  C22      1.0000 0.95231  0.96848  0.51355  Biso   1.000  C
  C23      1.0000 0.79735  0.89148  0.18443  Biso   1.000  C
  C24      1.0000 0.81627  0.82333  0.22032  Biso   1.000  C
  C25      1.0000 0.71125  0.86336  0.32881  Biso   1.000  C
  C26      1.0000 0.49797  0.58084  0.73203  Biso   1.000  C
  C27      1.0000 0.90602  0.98364  0.46538  Biso   1.000  C
  C28      1.0000 0.81617  0.92319  0.49358  Biso   1.000  C
  C29      1.0000 0.81407  0.83636  0.61375  Biso   1.000  C
  C30      1.0000 0.90426  0.89315  0.58837  Biso   1.000  C
  C31      1.0000 0.16504  0.45790  0.78878  Biso   1.000  C
  C32      1.0000 0.09830  0.36303  0.83893  Biso   1.000  C
  C33      1.0000 0.88078  0.03569  0.05285  Biso   1.000  C
  C34      1.0000 0.98311  0.24058  0.84965  Biso   1.000  C
  C35      1.0000 0.09436  0.30807  0.91399  Biso   1.000  C
  C36      1.0000 0.92879  0.08959  0.96332  Biso   1.000  C
  C37      1.0000 0.46586  0.51355  0.51797  Biso   1.000  C
  C38      1.0000 0.98178  0.18443  0.92409  Biso   1.000  C
  C39      1.0000 0.03659  0.22032  0.95635  Biso   1.000  C
  C40      1.0000 0.04006  0.32881  0.80783  Biso   1.000  C
  C41      1.0000 0.23000  0.73203  0.68713  Biso   1.000  C
  C42      1.0000 0.37140  0.46538  0.55098  Biso   1.000  C
  C43      1.0000 0.30975  0.49358  0.58323  Biso   1.000  C
  C44      1.0000 0.42782  0.61375  0.54989  Biso   1.000  C
  C45      1.0000 0.49263  0.58837  0.51848  Biso   1.000  C
  C46      1.0000 0.79286  0.45790  0.75332  Biso   1.000  C
  C47      1.0000 0.76473  0.36303  0.79804  Biso   1.000  C
  C48      1.0000 0.65491  0.03569  0.91146  Biso   1.000  C
  C49      1.0000 0.75747  0.24058  0.90977  Biso   1.000  C
  C50      1.0000 0.71371  0.30807  0.77794  Biso   1.000  C
  C51      1.0000 0.66080  0.08959  0.94709  Biso   1.000  C
  C52      1.0000 0.54769  0.51355  0.96848  Biso   1.000  C
  C53      1.0000 0.70265  0.18443  0.89148  Biso   1.000  C
  C54      1.0000 0.68373  0.22032  0.82333  Biso   1.000  C
  C55      1.0000 0.78875  0.32881  0.86336  Biso   1.000  C
  C56      1.0000 0.00203  0.73203  0.58084  Biso   1.000  C
  C57      1.0000 0.59398  0.46538  0.98364  Biso   1.000  C
  C58      1.0000 0.68383  0.49358  0.92319  Biso   1.000  C
  C59      1.0000 0.68593  0.61375  0.83636  Biso   1.000  C
  C60      1.0000 0.59574  0.58837  0.89315  Biso   1.000  C
  C61      1.0000 0.33496  0.78878  0.45790  Biso   1.000  C
  C62      1.0000 0.40170  0.83893  0.36303  Biso   1.000  C
  C63      1.0000 0.61922  0.05285  0.03569  Biso   1.000  C
  C64      1.0000 0.51689  0.84965  0.24058  Biso   1.000  C
  C65      1.0000 0.40564  0.91399  0.30807  Biso   1.000  C
  C66      1.0000 0.57121  0.96332  0.08959  Biso   1.000  C
  C67      1.0000 0.03414  0.51797  0.51355  Biso   1.000  C
  C68      1.0000 0.51822  0.92409  0.18443  Biso   1.000  C
  C69      1.0000 0.46341  0.95635  0.22032  Biso   1.000  C
  C70      1.0000 0.45994  0.80783  0.32881  Biso   1.000  C
  C71      1.0000 0.27000  0.68713  0.73203  Biso   1.000  C
  C72      1.0000 0.12860  0.55098  0.46538  Biso   1.000  C
  C73      1.0000 0.19025  0.58323  0.49358  Biso   1.000  C
  C74      1.0000 0.07218  0.54989  0.61375  Biso   1.000  C
  C75      1.0000 0.00737  0.51848  0.58837  Biso   1.000  C
  C76      1.0000 0.54618  0.75332  0.78878  Biso   1.000  C
  C77      1.0000 0.56277  0.79804  0.83893  Biso   1.000  C
  C78      1.0000 0.56637  0.91146  0.05285  Biso   1.000  C
  C79      1.0000 0.66724  0.90977  0.84965  Biso   1.000  C
  C80      1.0000 0.49165  0.77794  0.91399  Biso   1.000  C
  C81      1.0000 0.60789  0.94709  0.96332  Biso   1.000  C
  C82      1.0000 0.51617  0.96848  0.51797  Biso   1.000  C
  C83      1.0000 0.59413  0.89148  0.92409  Biso   1.000  C
  C84      1.0000 0.50706  0.82333  0.95635  Biso   1.000  C
  C85      1.0000 0.65211  0.86336  0.80783  Biso   1.000  C
  C86      1.0000 0.58287  0.58084  0.68713  Biso   1.000  C
  C87      1.0000 0.57762  0.98364  0.55098  Biso   1.000  C
  C88      1.0000 0.60702  0.92319  0.58323  Biso   1.000  C
  C89      1.0000 0.52229  0.83636  0.54989  Biso   1.000  C
  C90      1.0000 0.48889  0.89315  0.51848  Biso   1.000  C
  C91      1.0000 0.04618  0.21122  0.24668  Biso   1.000  C
  C92      1.0000 0.06277  0.16107  0.20196  Biso   1.000  C
  C93      1.0000 0.06637  0.94715  0.08854  Biso   1.000  C
  C94      1.0000 0.16724  0.15035  0.09023  Biso   1.000  C
  C95      1.0000 0.99165  0.08601  0.22206  Biso   1.000  C
  C96      1.0000 0.10789  0.03668  0.05291  Biso   1.000  C
  C97      1.0000 0.01617  0.48203  0.03152  Biso   1.000  C
  C98      1.0000 0.09413  0.07591  0.10852  Biso   1.000  C
  C99      1.0000 0.00706  0.04365  0.17667  Biso   1.000  C
  C100     1.0000 0.15211  0.19217  0.13664  Biso   1.000  C
  C101     1.0000 0.08287  0.31287  0.41916  Biso   1.000  C
  C102     1.0000 0.07762  0.44902  0.01636  Biso   1.000  C
  C103     1.0000 0.10702  0.41677  0.07681  Biso   1.000  C
  C104     1.0000 0.02229  0.45011  0.16364  Biso   1.000  C
  C105     1.0000 0.98889  0.48152  0.10685  Biso   1.000  C
  C106     1.0000 0.29286  0.24668  0.54210  Biso   1.000  C
  C107     1.0000 0.26473  0.20196  0.63697  Biso   1.000  C
  C108     1.0000 0.15491  0.08854  0.96431  Biso   1.000  C
  C109     1.0000 0.25747  0.09023  0.75942  Biso   1.000  C
  C110     1.0000 0.21371  0.22206  0.69193  Biso   1.000  C
  C111     1.0000 0.16080  0.05291  0.91041  Biso   1.000  C
  C112     1.0000 0.04769  0.03152  0.48645  Biso   1.000  C
  C113     1.0000 0.20265  0.10852  0.81557  Biso   1.000  C
  C114     1.0000 0.18373  0.17667  0.77968  Biso   1.000  C
  C115     1.0000 0.28875  0.13664  0.67119  Biso   1.000  C
  C116     1.0000 0.50203  0.41916  0.26797  Biso   1.000  C
  C117     1.0000 0.09398  0.01636  0.53462  Biso   1.000  C
  C118     1.0000 0.18383  0.07681  0.50642  Biso   1.000  C
  C119     1.0000 0.18593  0.16364  0.38625  Biso   1.000  C
  C120     1.0000 0.09574  0.10685  0.41163  Biso   1.000  C
  C121     1.0000 0.83496  0.54210  0.21122  Biso   1.000  C
  C122     1.0000 0.90170  0.63697  0.16107  Biso   1.000  C
  C123     1.0000 0.11922  0.96431  0.94715  Biso   1.000  C
  C124     1.0000 0.01689  0.75942  0.15035  Biso   1.000  C
  C125     1.0000 0.90564  0.69193  0.08601  Biso   1.000  C
  C126     1.0000 0.07121  0.91041  0.03668  Biso   1.000  C
  C127     1.0000 0.53414  0.48645  0.48203  Biso   1.000  C
  C128     1.0000 0.01822  0.81557  0.07591  Biso   1.000  C
  C129     1.0000 0.96341  0.77968  0.04365  Biso   1.000  C
  C130     1.0000 0.95994  0.67119  0.19217  Biso   1.000  C
  C131     1.0000 0.77000  0.26797  0.31287  Biso   1.000  C
  C132     1.0000 0.62860  0.53462  0.44902  Biso   1.000  C
  C133     1.0000 0.69025  0.50642  0.41677  Biso   1.000  C
  C134     1.0000 0.57218  0.38625  0.45011  Biso   1.000  C
  C135     1.0000 0.50737  0.41163  0.48152  Biso   1.000  C
  C136     1.0000 0.20714  0.54210  0.24668  Biso   1.000  C
  C137     1.0000 0.23527  0.63697  0.20196  Biso   1.000  C
  C138     1.0000 0.34509  0.96431  0.08854  Biso   1.000  C
  C139     1.0000 0.24253  0.75942  0.09023  Biso   1.000  C
  C140     1.0000 0.28629  0.69193  0.22206  Biso   1.000  C
  C141     1.0000 0.33920  0.91041  0.05291  Biso   1.000  C
  C142     1.0000 0.45231  0.48645  0.03152  Biso   1.000  C
  C143     1.0000 0.29735  0.81557  0.10852  Biso   1.000  C
  C144     1.0000 0.31627  0.77968  0.17667  Biso   1.000  C
  C145     1.0000 0.21125  0.67119  0.13664  Biso   1.000  C
  C146     1.0000 0.99797  0.26797  0.41916  Biso   1.000  C
  C147     1.0000 0.40602  0.53462  0.01636  Biso   1.000  C
  C148     1.0000 0.31617  0.50642  0.07681  Biso   1.000  C
  C149     1.0000 0.31407  0.38625  0.16364  Biso   1.000  C
  C150     1.0000 0.40426  0.41163  0.10685  Biso   1.000  C
  C151     1.0000 0.66504  0.21122  0.54210  Biso   1.000  C
  C152     1.0000 0.59830  0.16107  0.63697  Biso   1.000  C
  C153     1.0000 0.38078  0.94715  0.96431  Biso   1.000  C
  C154     1.0000 0.48311  0.15035  0.75942  Biso   1.000  C
  C155     1.0000 0.59436  0.08601  0.69193  Biso   1.000  C
  C156     1.0000 0.42879  0.03668  0.91041  Biso   1.000  C
  C157     1.0000 0.96586  0.48203  0.48645  Biso   1.000  C
  C158     1.0000 0.48178  0.07591  0.81557  Biso   1.000  C
  C159     1.0000 0.53659  0.04365  0.77968  Biso   1.000  C
  C160     1.0000 0.54006  0.19217  0.67119  Biso   1.000  C
  C161     1.0000 0.73000  0.31287  0.26797  Biso   1.000  C
  C162     1.0000 0.87140  0.44902  0.53462  Biso   1.000  C
  C163     1.0000 0.80975  0.41677  0.50642  Biso   1.000  C
  C164     1.0000 0.92782  0.45011  0.38625  Biso   1.000  C
  C165     1.0000 0.99263  0.48152  0.41163  Biso   1.000  C
  C166     1.0000 0.45382  0.24668  0.21122  Biso   1.000  C
  C167     1.0000 0.43723  0.20196  0.16107  Biso   1.000  C
  C168     1.0000 0.43363  0.08854  0.94715  Biso   1.000  C
  C169     1.0000 0.33276  0.09023  0.15035  Biso   1.000  C
  C170     1.0000 0.50835  0.22206  0.08601  Biso   1.000  C
  C171     1.0000 0.39211  0.05291  0.03668  Biso   1.000  C
  C172     1.0000 0.48383  0.03152  0.48203  Biso   1.000  C
  C173     1.0000 0.40587  0.10852  0.07591  Biso   1.000  C
  C174     1.0000 0.49294  0.17667  0.04365  Biso   1.000  C
  C175     1.0000 0.34789  0.13664  0.19217  Biso   1.000  C
  C176     1.0000 0.41713  0.41916  0.31287  Biso   1.000  C
  C177     1.0000 0.42238  0.01636  0.44902  Biso   1.000  C
  C178     1.0000 0.39298  0.07681  0.41677  Biso   1.000  C
  C179     1.0000 0.47771  0.16364  0.45011  Biso   1.000  C
  C180     1.0000 0.51111  0.10685  0.48152  Biso   1.000  C
  N1       1.0000 0.92020  0.58334  0.85004  Biso   1.000  N
  N2       1.0000 0.77024  0.85004  0.56662  Biso   1.000  N
  N3       1.0000 0.33686  0.56662  0.58334  Biso   1.000  N
  N4       1.0000 0.72976  0.56662  0.85004  Biso   1.000  N
  N5       1.0000 0.16314  0.58334  0.56662  Biso   1.000  N
  N6       1.0000 0.57980  0.85004  0.58334  Biso   1.000  N
  N7       1.0000 0.07980  0.41666  0.14996  Biso   1.000  N
  N8       1.0000 0.22976  0.14996  0.43338  Biso   1.000  N
  N9       1.0000 0.66314  0.43338  0.41666  Biso   1.000  N
  N10      1.0000 0.27024  0.43338  0.14996  Biso   1.000  N
  N11      1.0000 0.83686  0.41666  0.43338  Biso   1.000  N
  N12      1.0000 0.42020  0.14996  0.41666  Biso   1.000  N
  O1       1.0000 0.88182  0.72710  0.76898  Biso   1.000  O
  O2       1.0000 0.83664  0.65053  0.65956  Biso   1.000  O
  O3       1.0000 0.03540  0.80998  0.70444  Biso   1.000  O
  O4       1.0000 0.65080  0.76898  0.50392  Biso   1.000  O
  O5       1.0000 0.49620  0.65956  0.68991  Biso   1.000  O
  O6       1.0000 0.73984  0.70444  0.48558  Biso   1.000  O
  O7       1.0000 0.15472  0.50392  0.72710  Biso   1.000  O
  O8       1.0000 0.18611  0.68991  0.65053  Biso   1.000  O
  O9       1.0000 0.22542  0.48558  0.80998  Biso   1.000  O
  O10      1.0000 0.84920  0.50392  0.76898  Biso   1.000  O
  O11      1.0000 0.00380  0.68991  0.65956  Biso   1.000  O
  O12      1.0000 0.76016  0.48558  0.70444  Biso   1.000  O
  O13      1.0000 0.34528  0.72710  0.50392  Biso   1.000  O
  O14      1.0000 0.31389  0.65053  0.68991  Biso   1.000  O
  O15      1.0000 0.27458  0.80998  0.48558  Biso   1.000  O
  O16      1.0000 0.61818  0.76898  0.72710  Biso   1.000  O
  O17      1.0000 0.66336  0.65956  0.65053  Biso   1.000  O
  O18      1.0000 0.46460  0.70444  0.80998  Biso   1.000  O
  O19      1.0000 0.11818  0.27290  0.23102  Biso   1.000  O
  O20      1.0000 0.16336  0.34947  0.34044  Biso   1.000  O
  O21      1.0000 0.96460  0.19002  0.29556  Biso   1.000  O
  O22      1.0000 0.34920  0.23102  0.49608  Biso   1.000  O
  O23      1.0000 0.50380  0.34044  0.31009  Biso   1.000  O
  O24      1.0000 0.26016  0.29556  0.51442  Biso   1.000  O
  O25      1.0000 0.84528  0.49608  0.27290  Biso   1.000  O
  O26      1.0000 0.81389  0.31009  0.34947  Biso   1.000  O
  O27      1.0000 0.77458  0.51442  0.19002  Biso   1.000  O
  O28      1.0000 0.15080  0.49608  0.23102  Biso   1.000  O
  O29      1.0000 0.99620  0.31009  0.34044  Biso   1.000  O
  O30      1.0000 0.23984  0.51442  0.29556  Biso   1.000  O
  O31      1.0000 0.65472  0.27290  0.49608  Biso   1.000  O
  O32      1.0000 0.68611  0.34947  0.31009  Biso   1.000  O
  O33      1.0000 0.72542  0.19002  0.51442  Biso   1.000  O
  O34      1.0000 0.38182  0.23102  0.27290  Biso   1.000  O
  O35      1.0000 0.33664  0.34044  0.34947  Biso   1.000  O
  O36      1.0000 0.53540  0.29556  0.19002  Biso   1.000  O
