data_image0
_cell_length_a       28.47
_cell_length_b       27.784
_cell_length_c       9.255
_cell_angle_alpha    90
_cell_angle_beta     90
_cell_angle_gamma    90

_symmetry_space_group_name_H-M    "P 1"
_symmetry_int_tables_number       1

loop_
  _symmetry_equiv_pos_as_xyz
  'x, y, z'

loop_
  _atom_site_label
  _atom_site_occupancy
  _atom_site_fract_x
  _atom_site_fract_y
  _atom_site_fract_z
  _atom_site_thermal_displace_type
  _atom_site_B_iso_or_equiv
  _atom_site_type_symbol
  Cl1      1.0000 0.31677  0.49924  0.89290  Biso   1.000  Cl
  Zn1      1.0000 0.36497  0.49206  0.08132  Biso   1.000  Zn
  C1       1.0000 0.45563  0.54215  0.13720  Biso   1.000  C
  H1       1.0000 0.45870  0.52810  0.22790  Biso   1.000  H
  C2       1.0000 0.43067  0.55970  0.92830  Biso   1.000  C
  H2       1.0000 0.41290  0.56000  0.84400  Biso   1.000  H
  C3       1.0000 0.46848  0.58650  0.95220  Biso   1.000  C
  H3       1.0000 0.48160  0.60900  0.88990  Biso   1.000  H
  C4       1.0000 0.52336  0.59572  0.16380  Biso   1.000  C
  C5       1.0000 0.55238  0.56772  0.24600  Biso   1.000  C
  H4       1.0000 0.54810  0.53450  0.24820  Biso   1.000  H
  C6       1.0000 0.58757  0.58826  0.32490  Biso   1.000  C
  H5       1.0000 0.60680  0.56880  0.38150  Biso   1.000  H
  C7       1.0000 0.59518  0.63728  0.32220  Biso   1.000  C
  C8       1.0000 0.56616  0.66502  0.23530  Biso   1.000  C
  H6       1.0000 0.57120  0.69800  0.22920  Biso   1.000  H
  C9       1.0000 0.53022  0.64452  0.15810  Biso   1.000  C
  H7       1.0000 0.51060  0.66370  0.10210  Biso   1.000  H
  C10      1.0000 0.79662  0.54090  0.72650  Biso   1.000  C
  H8       1.0000 0.77710  0.54760  0.80460  Biso   1.000  H
  C11      1.0000 0.85390  0.51580  0.59910  Biso   1.000  C
  H9       1.0000 0.88220  0.50160  0.57220  Biso   1.000  H
  C12      1.0000 0.82428  0.53790  0.51030  Biso   1.000  C
  H10      1.0000 0.82780  0.54170  0.41100  Biso   1.000  H
  C13      1.0000 0.74830  0.58109  0.54140  Biso   1.000  C
  C14      1.0000 0.72486  0.61114  0.63680  Biso   1.000  C
  H11      1.0000 0.73510  0.61420  0.73180  Biso   1.000  H
  C15      1.0000 0.68642  0.63623  0.58930  Biso   1.000  C
  H12      1.0000 0.67050  0.65620  0.65330  Biso   1.000  H
  C16      1.0000 0.67093  0.63244  0.44850  Biso   1.000  C
  C17      1.0000 0.69476  0.60345  0.35730  Biso   1.000  C
  H13      1.0000 0.68510  0.60110  0.26160  Biso   1.000  H
  C18      1.0000 0.73307  0.57720  0.40320  Biso   1.000  C
  H14      1.0000 0.74850  0.55680  0.33920  Biso   1.000  H
  C19      1.0000 0.63104  0.88573  0.56530  Biso   1.000  C
  H15      1.0000 0.65520  0.88500  0.49750  Biso   1.000  H
  C20      1.0000 0.58030  0.91025  0.71800  Biso   1.000  C
  H16      1.0000 0.56270  0.93050  0.77700  Biso   1.000  H
  C21      1.0000 0.57569  0.86260  0.70990  Biso   1.000  C
  H17      1.0000 0.55430  0.84370  0.76050  Biso   1.000  H
  C22      1.0000 0.61483  0.79852  0.56450  Biso   1.000  C
  C23      1.0000 0.57733  0.76714  0.56650  Biso   1.000  C
  H18      1.0000 0.54850  0.77690  0.60360  Biso   1.000  H
  C24      1.0000 0.58276  0.72131  0.51340  Biso   1.000  C
  H19      1.0000 0.55760  0.70000  0.51540  Biso   1.000  H
  C25      1.0000 0.62521  0.70679  0.45750  Biso   1.000  C
  C26      1.0000 0.66261  0.73837  0.45570  Biso   1.000  C
  H20      1.0000 0.69130  0.72870  0.41760  Biso   1.000  H
  C27      1.0000 0.65756  0.78392  0.50980  Biso   1.000  C
  H21      1.0000 0.68290  0.80500  0.50960  Biso   1.000  H
  N1       1.0000 0.42190  0.53183  0.04580  Biso   1.000  N
  N2       1.0000 0.48420  0.57435  0.08570  Biso   1.000  N
  N3       1.0000 0.61517  0.92463  0.62530  Biso   1.000  N
  N4       1.0000 0.60846  0.84696  0.61280  Biso   1.000  N
  N5       1.0000 0.78783  0.55414  0.59180  Biso   1.000  N
  N6       1.0000 0.83619  0.51715  0.73610  Biso   1.000  N
  N7       1.0000 0.63094  0.65928  0.40290  Biso   1.000  N
  Cl2      1.0000 0.18323  0.99924  0.60710  Biso   1.000  Cl
  Zn2      1.0000 0.13503  0.99206  0.41868  Biso   1.000  Zn
  C28      1.0000 0.04437  0.04215  0.36280  Biso   1.000  C
  H22      1.0000 0.04130  0.02810  0.27210  Biso   1.000  H
  C29      1.0000 0.06933  0.05970  0.57170  Biso   1.000  C
  H23      1.0000 0.08710  0.06000  0.65600  Biso   1.000  H
  C30      1.0000 0.03152  0.08650  0.54780  Biso   1.000  C
  H24      1.0000 0.01840  0.10900  0.61010  Biso   1.000  H
  C31      1.0000 0.97664  0.09572  0.33620  Biso   1.000  C
  C32      1.0000 0.94762  0.06772  0.25400  Biso   1.000  C
  H25      1.0000 0.95190  0.03450  0.25180  Biso   1.000  H
  C33      1.0000 0.91243  0.08826  0.17510  Biso   1.000  C
  H26      1.0000 0.89320  0.06880  0.11850  Biso   1.000  H
  C34      1.0000 0.90482  0.13728  0.17780  Biso   1.000  C
  C35      1.0000 0.93384  0.16502  0.26470  Biso   1.000  C
  H27      1.0000 0.92880  0.19800  0.27080  Biso   1.000  H
  C36      1.0000 0.96978  0.14452  0.34190  Biso   1.000  C
  H28      1.0000 0.98940  0.16370  0.39790  Biso   1.000  H
  C37      1.0000 0.70338  0.04090  0.77350  Biso   1.000  C
  H29      1.0000 0.72290  0.04760  0.69540  Biso   1.000  H
  C38      1.0000 0.64610  0.01580  0.90090  Biso   1.000  C
  H30      1.0000 0.61780  0.00160  0.92780  Biso   1.000  H
  C39      1.0000 0.67572  0.03790  0.98970  Biso   1.000  C
  H31      1.0000 0.67220  0.04170  0.08900  Biso   1.000  H
  C40      1.0000 0.75170  0.08109  0.95860  Biso   1.000  C
  C41      1.0000 0.77514  0.11114  0.86320  Biso   1.000  C
  H32      1.0000 0.76490  0.11420  0.76820  Biso   1.000  H
  C42      1.0000 0.81358  0.13623  0.91070  Biso   1.000  C
  H33      1.0000 0.82950  0.15620  0.84670  Biso   1.000  H
  C43      1.0000 0.82907  0.13244  0.05150  Biso   1.000  C
  C44      1.0000 0.80524  0.10345  0.14270  Biso   1.000  C
  H34      1.0000 0.81490  0.10110  0.23840  Biso   1.000  H
  C45      1.0000 0.76693  0.07720  0.09680  Biso   1.000  C
  H35      1.0000 0.75150  0.05680  0.16080  Biso   1.000  H
  C46      1.0000 0.86896  0.38573  0.93470  Biso   1.000  C
  H36      1.0000 0.84480  0.38500  0.00250  Biso   1.000  H
  C47      1.0000 0.91970  0.41025  0.78200  Biso   1.000  C
  H37      1.0000 0.93730  0.43050  0.72300  Biso   1.000  H
  C48      1.0000 0.92431  0.36260  0.79010  Biso   1.000  C
  H38      1.0000 0.94570  0.34370  0.73950  Biso   1.000  H
  C49      1.0000 0.88517  0.29852  0.93550  Biso   1.000  C
  C50      1.0000 0.92267  0.26714  0.93350  Biso   1.000  C
  H39      1.0000 0.95150  0.27690  0.89640  Biso   1.000  H
  C51      1.0000 0.91724  0.22131  0.98660  Biso   1.000  C
  H40      1.0000 0.94240  0.20000  0.98460  Biso   1.000  H
  C52      1.0000 0.87479  0.20679  0.04250  Biso   1.000  C
  C53      1.0000 0.83739  0.23837  0.04430  Biso   1.000  C
  H41      1.0000 0.80870  0.22870  0.08240  Biso   1.000  H
  C54      1.0000 0.84244  0.28392  0.99020  Biso   1.000  C
  H42      1.0000 0.81710  0.30500  0.99040  Biso   1.000  H
  N8       1.0000 0.07810  0.03183  0.45420  Biso   1.000  N
  N9       1.0000 0.01580  0.07435  0.41430  Biso   1.000  N
  N10      1.0000 0.88483  0.42463  0.87470  Biso   1.000  N
  N11      1.0000 0.89154  0.34696  0.88720  Biso   1.000  N
  N12      1.0000 0.71217  0.05414  0.90820  Biso   1.000  N
  N13      1.0000 0.66381  0.01715  0.76390  Biso   1.000  N
  N14      1.0000 0.86906  0.15928  0.09710  Biso   1.000  N
  Cl3      1.0000 0.81677  0.49924  0.10710  Biso   1.000  Cl
  Zn3      1.0000 0.86497  0.49206  0.91868  Biso   1.000  Zn
  C55      1.0000 0.95563  0.54215  0.86280  Biso   1.000  C
  H43      1.0000 0.95870  0.52810  0.77210  Biso   1.000  H
  C56      1.0000 0.93067  0.55970  0.07170  Biso   1.000  C
  H44      1.0000 0.91290  0.56000  0.15600  Biso   1.000  H
  C57      1.0000 0.96848  0.58650  0.04780  Biso   1.000  C
  H45      1.0000 0.98160  0.60900  0.11010  Biso   1.000  H
  C58      1.0000 0.02336  0.59572  0.83620  Biso   1.000  C
  C59      1.0000 0.05238  0.56772  0.75400  Biso   1.000  C
  H46      1.0000 0.04810  0.53450  0.75180  Biso   1.000  H
  C60      1.0000 0.08757  0.58826  0.67510  Biso   1.000  C
  H47      1.0000 0.10680  0.56880  0.61850  Biso   1.000  H
  C61      1.0000 0.09518  0.63728  0.67780  Biso   1.000  C
  C62      1.0000 0.06616  0.66502  0.76470  Biso   1.000  C
  H48      1.0000 0.07120  0.69800  0.77080  Biso   1.000  H
  C63      1.0000 0.03022  0.64452  0.84190  Biso   1.000  C
  H49      1.0000 0.01060  0.66370  0.89790  Biso   1.000  H
  C64      1.0000 0.29662  0.54090  0.27350  Biso   1.000  C
  H50      1.0000 0.27710  0.54760  0.19540  Biso   1.000  H
  C65      1.0000 0.35390  0.51580  0.40090  Biso   1.000  C
  H51      1.0000 0.38220  0.50160  0.42780  Biso   1.000  H
  C66      1.0000 0.32428  0.53790  0.48970  Biso   1.000  C
  H52      1.0000 0.32780  0.54170  0.58900  Biso   1.000  H
  C67      1.0000 0.24830  0.58109  0.45860  Biso   1.000  C
  C68      1.0000 0.22486  0.61114  0.36320  Biso   1.000  C
  H53      1.0000 0.23510  0.61420  0.26820  Biso   1.000  H
  C69      1.0000 0.18642  0.63623  0.41070  Biso   1.000  C
  H54      1.0000 0.17050  0.65620  0.34670  Biso   1.000  H
  C70      1.0000 0.17093  0.63244  0.55150  Biso   1.000  C
  C71      1.0000 0.19476  0.60345  0.64270  Biso   1.000  C
  H55      1.0000 0.18510  0.60110  0.73840  Biso   1.000  H
  C72      1.0000 0.23307  0.57720  0.59680  Biso   1.000  C
  H56      1.0000 0.24850  0.55680  0.66080  Biso   1.000  H
  C73      1.0000 0.13104  0.88573  0.43470  Biso   1.000  C
  H57      1.0000 0.15520  0.88500  0.50250  Biso   1.000  H
  C74      1.0000 0.08030  0.91025  0.28200  Biso   1.000  C
  H58      1.0000 0.06270  0.93050  0.22300  Biso   1.000  H
  C75      1.0000 0.07569  0.86260  0.29010  Biso   1.000  C
  H59      1.0000 0.05430  0.84370  0.23950  Biso   1.000  H
  C76      1.0000 0.11483  0.79852  0.43550  Biso   1.000  C
  C77      1.0000 0.07733  0.76714  0.43350  Biso   1.000  C
  H60      1.0000 0.04850  0.77690  0.39640  Biso   1.000  H
  C78      1.0000 0.08276  0.72131  0.48660  Biso   1.000  C
  H61      1.0000 0.05760  0.70000  0.48460  Biso   1.000  H
  C79      1.0000 0.12521  0.70679  0.54250  Biso   1.000  C
  C80      1.0000 0.16261  0.73837  0.54430  Biso   1.000  C
  H62      1.0000 0.19130  0.72870  0.58240  Biso   1.000  H
  C81      1.0000 0.15756  0.78392  0.49020  Biso   1.000  C
  H63      1.0000 0.18290  0.80500  0.49040  Biso   1.000  H
  N15      1.0000 0.92190  0.53183  0.95420  Biso   1.000  N
  N16      1.0000 0.98420  0.57435  0.91430  Biso   1.000  N
  N17      1.0000 0.11517  0.92463  0.37470  Biso   1.000  N
  N18      1.0000 0.10846  0.84696  0.38720  Biso   1.000  N
  N19      1.0000 0.28783  0.55414  0.40820  Biso   1.000  N
  N20      1.0000 0.33619  0.51715  0.26390  Biso   1.000  N
  N21      1.0000 0.13094  0.65928  0.59710  Biso   1.000  N
  Cl4      1.0000 0.68323  0.99924  0.39290  Biso   1.000  Cl
  Zn4      1.0000 0.63503  0.99206  0.58132  Biso   1.000  Zn
  C82      1.0000 0.54437  0.04215  0.63720  Biso   1.000  C
  H64      1.0000 0.54130  0.02810  0.72790  Biso   1.000  H
  C83      1.0000 0.56933  0.05970  0.42830  Biso   1.000  C
  H65      1.0000 0.58710  0.06000  0.34400  Biso   1.000  H
  C84      1.0000 0.53152  0.08650  0.45220  Biso   1.000  C
  H66      1.0000 0.51840  0.10900  0.38990  Biso   1.000  H
  C85      1.0000 0.47664  0.09572  0.66380  Biso   1.000  C
  C86      1.0000 0.44762  0.06772  0.74600  Biso   1.000  C
  H67      1.0000 0.45190  0.03450  0.74820  Biso   1.000  H
  C87      1.0000 0.41243  0.08826  0.82490  Biso   1.000  C
  H68      1.0000 0.39320  0.06880  0.88150  Biso   1.000  H
  C88      1.0000 0.40482  0.13728  0.82220  Biso   1.000  C
  C89      1.0000 0.43384  0.16502  0.73530  Biso   1.000  C
  H69      1.0000 0.42880  0.19800  0.72920  Biso   1.000  H
  C90      1.0000 0.46978  0.14452  0.65810  Biso   1.000  C
  H70      1.0000 0.48940  0.16370  0.60210  Biso   1.000  H
  C91      1.0000 0.20338  0.04090  0.22650  Biso   1.000  C
  H71      1.0000 0.22290  0.04760  0.30460  Biso   1.000  H
  C92      1.0000 0.14610  0.01580  0.09910  Biso   1.000  C
  H72      1.0000 0.11780  0.00160  0.07220  Biso   1.000  H
  C93      1.0000 0.17572  0.03790  0.01030  Biso   1.000  C
  H73      1.0000 0.17220  0.04170  0.91100  Biso   1.000  H
  C94      1.0000 0.25170  0.08109  0.04140  Biso   1.000  C
  C95      1.0000 0.27514  0.11114  0.13680  Biso   1.000  C
  H74      1.0000 0.26490  0.11420  0.23180  Biso   1.000  H
  C96      1.0000 0.31358  0.13623  0.08930  Biso   1.000  C
  H75      1.0000 0.32950  0.15620  0.15330  Biso   1.000  H
  C97      1.0000 0.32907  0.13244  0.94850  Biso   1.000  C
  C98      1.0000 0.30524  0.10345  0.85730  Biso   1.000  C
  H76      1.0000 0.31490  0.10110  0.76160  Biso   1.000  H
  C99      1.0000 0.26693  0.07720  0.90320  Biso   1.000  C
  H77      1.0000 0.25150  0.05680  0.83920  Biso   1.000  H
  C100     1.0000 0.36896  0.38573  0.06530  Biso   1.000  C
  H78      1.0000 0.34480  0.38500  0.99750  Biso   1.000  H
  C101     1.0000 0.41970  0.41025  0.21800  Biso   1.000  C
  H79      1.0000 0.43730  0.43050  0.27700  Biso   1.000  H
  C102     1.0000 0.42431  0.36260  0.20990  Biso   1.000  C
  H80      1.0000 0.44570  0.34370  0.26050  Biso   1.000  H
  C103     1.0000 0.38517  0.29852  0.06450  Biso   1.000  C
  C104     1.0000 0.42267  0.26714  0.06650  Biso   1.000  C
  H81      1.0000 0.45150  0.27690  0.10360  Biso   1.000  H
  C105     1.0000 0.41724  0.22131  0.01340  Biso   1.000  C
  H82      1.0000 0.44240  0.20000  0.01540  Biso   1.000  H
  C106     1.0000 0.37479  0.20679  0.95750  Biso   1.000  C
  C107     1.0000 0.33739  0.23837  0.95570  Biso   1.000  C
  H83      1.0000 0.30870  0.22870  0.91760  Biso   1.000  H
  C108     1.0000 0.34244  0.28392  0.00980  Biso   1.000  C
  H84      1.0000 0.31710  0.30500  0.00960  Biso   1.000  H
  N22      1.0000 0.57810  0.03183  0.54580  Biso   1.000  N
  N23      1.0000 0.51580  0.07435  0.58570  Biso   1.000  N
  N24      1.0000 0.38483  0.42463  0.12530  Biso   1.000  N
  N25      1.0000 0.39154  0.34696  0.11280  Biso   1.000  N
  N26      1.0000 0.21217  0.05414  0.09180  Biso   1.000  N
  N27      1.0000 0.16381  0.01715  0.23610  Biso   1.000  N
  N28      1.0000 0.36906  0.15928  0.90290  Biso   1.000  N
  Cl5      1.0000 0.18323  0.50076  0.89290  Biso   1.000  Cl
  Zn5      1.0000 0.13503  0.50794  0.08132  Biso   1.000  Zn
  C109     1.0000 0.04437  0.45785  0.13720  Biso   1.000  C
  H85      1.0000 0.04130  0.47190  0.22790  Biso   1.000  H
  C110     1.0000 0.06933  0.44030  0.92830  Biso   1.000  C
  H86      1.0000 0.08710  0.44000  0.84400  Biso   1.000  H
  C111     1.0000 0.03152  0.41350  0.95220  Biso   1.000  C
  H87      1.0000 0.01840  0.39100  0.88990  Biso   1.000  H
  C112     1.0000 0.97664  0.40428  0.16380  Biso   1.000  C
  C113     1.0000 0.94762  0.43228  0.24600  Biso   1.000  C
  H88      1.0000 0.95190  0.46550  0.24820  Biso   1.000  H
  C114     1.0000 0.91243  0.41174  0.32490  Biso   1.000  C
  H89      1.0000 0.89320  0.43120  0.38150  Biso   1.000  H
  C115     1.0000 0.90482  0.36272  0.32220  Biso   1.000  C
  C116     1.0000 0.93384  0.33498  0.23530  Biso   1.000  C
  H90      1.0000 0.92880  0.30200  0.22920  Biso   1.000  H
  C117     1.0000 0.96978  0.35548  0.15810  Biso   1.000  C
  H91      1.0000 0.98940  0.33630  0.10210  Biso   1.000  H
  C118     1.0000 0.70338  0.45910  0.72650  Biso   1.000  C
  H92      1.0000 0.72290  0.45240  0.80460  Biso   1.000  H
  C119     1.0000 0.64610  0.48420  0.59910  Biso   1.000  C
  H93      1.0000 0.61780  0.49840  0.57220  Biso   1.000  H
  C120     1.0000 0.67572  0.46210  0.51030  Biso   1.000  C
  H94      1.0000 0.67220  0.45830  0.41100  Biso   1.000  H
  C121     1.0000 0.75170  0.41891  0.54140  Biso   1.000  C
  C122     1.0000 0.77514  0.38886  0.63680  Biso   1.000  C
  H95      1.0000 0.76490  0.38580  0.73180  Biso   1.000  H
  C123     1.0000 0.81358  0.36377  0.58930  Biso   1.000  C
  H96      1.0000 0.82950  0.34380  0.65330  Biso   1.000  H
  C124     1.0000 0.82907  0.36756  0.44850  Biso   1.000  C
  C125     1.0000 0.80524  0.39655  0.35730  Biso   1.000  C
  H97      1.0000 0.81490  0.39890  0.26160  Biso   1.000  H
  C126     1.0000 0.76693  0.42280  0.40320  Biso   1.000  C
  H98      1.0000 0.75150  0.44320  0.33920  Biso   1.000  H
  C127     1.0000 0.86896  0.11427  0.56530  Biso   1.000  C
  H99      1.0000 0.84480  0.11500  0.49750  Biso   1.000  H
  C128     1.0000 0.91970  0.08975  0.71800  Biso   1.000  C
  H100     1.0000 0.93730  0.06950  0.77700  Biso   1.000  H
  C129     1.0000 0.92431  0.13740  0.70990  Biso   1.000  C
  H101     1.0000 0.94570  0.15630  0.76050  Biso   1.000  H
  C130     1.0000 0.88517  0.20148  0.56450  Biso   1.000  C
  C131     1.0000 0.92267  0.23286  0.56650  Biso   1.000  C
  H102     1.0000 0.95150  0.22310  0.60360  Biso   1.000  H
  C132     1.0000 0.91724  0.27869  0.51340  Biso   1.000  C
  H103     1.0000 0.94240  0.30000  0.51540  Biso   1.000  H
  C133     1.0000 0.87479  0.29321  0.45750  Biso   1.000  C
  C134     1.0000 0.83739  0.26163  0.45570  Biso   1.000  C
  H104     1.0000 0.80870  0.27130  0.41760  Biso   1.000  H
  C135     1.0000 0.84244  0.21608  0.50980  Biso   1.000  C
  H105     1.0000 0.81710  0.19500  0.50960  Biso   1.000  H
  N29      1.0000 0.07810  0.46817  0.04580  Biso   1.000  N
  N30      1.0000 0.01580  0.42565  0.08570  Biso   1.000  N
  N31      1.0000 0.88483  0.07537  0.62530  Biso   1.000  N
  N32      1.0000 0.89154  0.15304  0.61280  Biso   1.000  N
  N33      1.0000 0.71217  0.44586  0.59180  Biso   1.000  N
  N34      1.0000 0.66381  0.48285  0.73610  Biso   1.000  N
  N35      1.0000 0.86906  0.34072  0.40290  Biso   1.000  N
  Cl6      1.0000 0.31677  0.00076  0.60710  Biso   1.000  Cl
  Zn6      1.0000 0.36497  0.00794  0.41868  Biso   1.000  Zn
  C136     1.0000 0.45563  0.95785  0.36280  Biso   1.000  C
  H106     1.0000 0.45870  0.97190  0.27210  Biso   1.000  H
  C137     1.0000 0.43067  0.94030  0.57170  Biso   1.000  C
  H107     1.0000 0.41290  0.94000  0.65600  Biso   1.000  H
  C138     1.0000 0.46848  0.91350  0.54780  Biso   1.000  C
  H108     1.0000 0.48160  0.89100  0.61010  Biso   1.000  H
  C139     1.0000 0.52336  0.90428  0.33620  Biso   1.000  C
  C140     1.0000 0.55238  0.93228  0.25400  Biso   1.000  C
  H109     1.0000 0.54810  0.96550  0.25180  Biso   1.000  H
  C141     1.0000 0.58757  0.91174  0.17510  Biso   1.000  C
  H110     1.0000 0.60680  0.93120  0.11850  Biso   1.000  H
  C142     1.0000 0.59518  0.86272  0.17780  Biso   1.000  C
  C143     1.0000 0.56616  0.83498  0.26470  Biso   1.000  C
  H111     1.0000 0.57120  0.80200  0.27080  Biso   1.000  H
  C144     1.0000 0.53022  0.85548  0.34190  Biso   1.000  C
  H112     1.0000 0.51060  0.83630  0.39790  Biso   1.000  H
  C145     1.0000 0.79662  0.95910  0.77350  Biso   1.000  C
  H113     1.0000 0.77710  0.95240  0.69540  Biso   1.000  H
  C146     1.0000 0.85390  0.98420  0.90090  Biso   1.000  C
  H114     1.0000 0.88220  0.99840  0.92780  Biso   1.000  H
  C147     1.0000 0.82428  0.96210  0.98970  Biso   1.000  C
  H115     1.0000 0.82780  0.95830  0.08900  Biso   1.000  H
  C148     1.0000 0.74830  0.91891  0.95860  Biso   1.000  C
  C149     1.0000 0.72486  0.88886  0.86320  Biso   1.000  C
  H116     1.0000 0.73510  0.88580  0.76820  Biso   1.000  H
  C150     1.0000 0.68642  0.86377  0.91070  Biso   1.000  C
  H117     1.0000 0.67050  0.84380  0.84670  Biso   1.000  H
  C151     1.0000 0.67093  0.86756  0.05150  Biso   1.000  C
  C152     1.0000 0.69476  0.89655  0.14270  Biso   1.000  C
  H118     1.0000 0.68510  0.89890  0.23840  Biso   1.000  H
  C153     1.0000 0.73307  0.92280  0.09680  Biso   1.000  C
  H119     1.0000 0.74850  0.94320  0.16080  Biso   1.000  H
  C154     1.0000 0.63104  0.61427  0.93470  Biso   1.000  C
  H120     1.0000 0.65520  0.61500  0.00250  Biso   1.000  H
  C155     1.0000 0.58030  0.58975  0.78200  Biso   1.000  C
  H121     1.0000 0.56270  0.56950  0.72300  Biso   1.000  H
  C156     1.0000 0.57569  0.63740  0.79010  Biso   1.000  C
  H122     1.0000 0.55430  0.65630  0.73950  Biso   1.000  H
  C157     1.0000 0.61483  0.70148  0.93550  Biso   1.000  C
  C158     1.0000 0.57733  0.73286  0.93350  Biso   1.000  C
  H123     1.0000 0.54850  0.72310  0.89640  Biso   1.000  H
  C159     1.0000 0.58276  0.77869  0.98660  Biso   1.000  C
  H124     1.0000 0.55760  0.80000  0.98460  Biso   1.000  H
  C160     1.0000 0.62521  0.79321  0.04250  Biso   1.000  C
  C161     1.0000 0.66261  0.76163  0.04430  Biso   1.000  C
  H125     1.0000 0.69130  0.77130  0.08240  Biso   1.000  H
  C162     1.0000 0.65756  0.71608  0.99020  Biso   1.000  C
  H126     1.0000 0.68290  0.69500  0.99040  Biso   1.000  H
  N36      1.0000 0.42190  0.96817  0.45420  Biso   1.000  N
  N37      1.0000 0.48420  0.92565  0.41430  Biso   1.000  N
  N38      1.0000 0.61517  0.57537  0.87470  Biso   1.000  N
  N39      1.0000 0.60846  0.65304  0.88720  Biso   1.000  N
  N40      1.0000 0.78783  0.94586  0.90820  Biso   1.000  N
  N41      1.0000 0.83619  0.98285  0.76390  Biso   1.000  N
  N42      1.0000 0.63094  0.84072  0.09710  Biso   1.000  N
  Cl7      1.0000 0.68323  0.50076  0.10710  Biso   1.000  Cl
  Zn7      1.0000 0.63503  0.50794  0.91868  Biso   1.000  Zn
  C163     1.0000 0.54437  0.45785  0.86280  Biso   1.000  C
  H127     1.0000 0.54130  0.47190  0.77210  Biso   1.000  H
  C164     1.0000 0.56933  0.44030  0.07170  Biso   1.000  C
  H128     1.0000 0.58710  0.44000  0.15600  Biso   1.000  H
  C165     1.0000 0.53152  0.41350  0.04780  Biso   1.000  C
  H129     1.0000 0.51840  0.39100  0.11010  Biso   1.000  H
  C166     1.0000 0.47664  0.40428  0.83620  Biso   1.000  C
  C167     1.0000 0.44762  0.43228  0.75400  Biso   1.000  C
  H130     1.0000 0.45190  0.46550  0.75180  Biso   1.000  H
  C168     1.0000 0.41243  0.41174  0.67510  Biso   1.000  C
  H131     1.0000 0.39320  0.43120  0.61850  Biso   1.000  H
  C169     1.0000 0.40482  0.36272  0.67780  Biso   1.000  C
  C170     1.0000 0.43384  0.33498  0.76470  Biso   1.000  C
  H132     1.0000 0.42880  0.30200  0.77080  Biso   1.000  H
  C171     1.0000 0.46978  0.35548  0.84190  Biso   1.000  C
  H133     1.0000 0.48940  0.33630  0.89790  Biso   1.000  H
  C172     1.0000 0.20338  0.45910  0.27350  Biso   1.000  C
  H134     1.0000 0.22290  0.45240  0.19540  Biso   1.000  H
  C173     1.0000 0.14610  0.48420  0.40090  Biso   1.000  C
  H135     1.0000 0.11780  0.49840  0.42780  Biso   1.000  H
  C174     1.0000 0.17572  0.46210  0.48970  Biso   1.000  C
  H136     1.0000 0.17220  0.45830  0.58900  Biso   1.000  H
  C175     1.0000 0.25170  0.41891  0.45860  Biso   1.000  C
  C176     1.0000 0.27514  0.38886  0.36320  Biso   1.000  C
  H137     1.0000 0.26490  0.38580  0.26820  Biso   1.000  H
  C177     1.0000 0.31358  0.36377  0.41070  Biso   1.000  C
  H138     1.0000 0.32950  0.34380  0.34670  Biso   1.000  H
  C178     1.0000 0.32907  0.36756  0.55150  Biso   1.000  C
  C179     1.0000 0.30524  0.39655  0.64270  Biso   1.000  C
  H139     1.0000 0.31490  0.39890  0.73840  Biso   1.000  H
  C180     1.0000 0.26693  0.42280  0.59680  Biso   1.000  C
  H140     1.0000 0.25150  0.44320  0.66080  Biso   1.000  H
  C181     1.0000 0.36896  0.11427  0.43470  Biso   1.000  C
  H141     1.0000 0.34480  0.11500  0.50250  Biso   1.000  H
  C182     1.0000 0.41970  0.08975  0.28200  Biso   1.000  C
  H142     1.0000 0.43730  0.06950  0.22300  Biso   1.000  H
  C183     1.0000 0.42431  0.13740  0.29010  Biso   1.000  C
  H143     1.0000 0.44570  0.15630  0.23950  Biso   1.000  H
  C184     1.0000 0.38517  0.20148  0.43550  Biso   1.000  C
  C185     1.0000 0.42267  0.23286  0.43350  Biso   1.000  C
  H144     1.0000 0.45150  0.22310  0.39640  Biso   1.000  H
  C186     1.0000 0.41724  0.27869  0.48660  Biso   1.000  C
  H145     1.0000 0.44240  0.30000  0.48460  Biso   1.000  H
  C187     1.0000 0.37479  0.29321  0.54250  Biso   1.000  C
  C188     1.0000 0.33739  0.26163  0.54430  Biso   1.000  C
  H146     1.0000 0.30870  0.27130  0.58240  Biso   1.000  H
  C189     1.0000 0.34244  0.21608  0.49020  Biso   1.000  C
  H147     1.0000 0.31710  0.19500  0.49040  Biso   1.000  H
  N43      1.0000 0.57810  0.46817  0.95420  Biso   1.000  N
  N44      1.0000 0.51580  0.42565  0.91430  Biso   1.000  N
  N45      1.0000 0.38483  0.07537  0.37470  Biso   1.000  N
  N46      1.0000 0.39154  0.15304  0.38720  Biso   1.000  N
  N47      1.0000 0.21217  0.44586  0.40820  Biso   1.000  N
  N48      1.0000 0.16381  0.48285  0.26390  Biso   1.000  N
  N49      1.0000 0.36906  0.34072  0.59710  Biso   1.000  N
  Cl8      1.0000 0.81677  0.00076  0.39290  Biso   1.000  Cl
  Zn8      1.0000 0.86497  0.00794  0.58132  Biso   1.000  Zn
  C190     1.0000 0.95563  0.95785  0.63720  Biso   1.000  C
  H148     1.0000 0.95870  0.97190  0.72790  Biso   1.000  H
  C191     1.0000 0.93067  0.94030  0.42830  Biso   1.000  C
  H149     1.0000 0.91290  0.94000  0.34400  Biso   1.000  H
  C192     1.0000 0.96848  0.91350  0.45220  Biso   1.000  C
  H150     1.0000 0.98160  0.89100  0.38990  Biso   1.000  H
  C193     1.0000 0.02336  0.90428  0.66380  Biso   1.000  C
  C194     1.0000 0.05238  0.93228  0.74600  Biso   1.000  C
  H151     1.0000 0.04810  0.96550  0.74820  Biso   1.000  H
  C195     1.0000 0.08757  0.91174  0.82490  Biso   1.000  C
  H152     1.0000 0.10680  0.93120  0.88150  Biso   1.000  H
  C196     1.0000 0.09518  0.86272  0.82220  Biso   1.000  C
  C197     1.0000 0.06616  0.83498  0.73530  Biso   1.000  C
  H153     1.0000 0.07120  0.80200  0.72920  Biso   1.000  H
  C198     1.0000 0.03022  0.85548  0.65810  Biso   1.000  C
  H154     1.0000 0.01060  0.83630  0.60210  Biso   1.000  H
  C199     1.0000 0.29662  0.95910  0.22650  Biso   1.000  C
  H155     1.0000 0.27710  0.95240  0.30460  Biso   1.000  H
  C200     1.0000 0.35390  0.98420  0.09910  Biso   1.000  C
  H156     1.0000 0.38220  0.99840  0.07220  Biso   1.000  H
  C201     1.0000 0.32428  0.96210  0.01030  Biso   1.000  C
  H157     1.0000 0.32780  0.95830  0.91100  Biso   1.000  H
  C202     1.0000 0.24830  0.91891  0.04140  Biso   1.000  C
  C203     1.0000 0.22486  0.88886  0.13680  Biso   1.000  C
  H158     1.0000 0.23510  0.88580  0.23180  Biso   1.000  H
  C204     1.0000 0.18642  0.86377  0.08930  Biso   1.000  C
  H159     1.0000 0.17050  0.84380  0.15330  Biso   1.000  H
  C205     1.0000 0.17093  0.86756  0.94850  Biso   1.000  C
  C206     1.0000 0.19476  0.89655  0.85730  Biso   1.000  C
  H160     1.0000 0.18510  0.89890  0.76160  Biso   1.000  H
  C207     1.0000 0.23307  0.92280  0.90320  Biso   1.000  C
  H161     1.0000 0.24850  0.94320  0.83920  Biso   1.000  H
  C208     1.0000 0.13104  0.61427  0.06530  Biso   1.000  C
  H162     1.0000 0.15520  0.61500  0.99750  Biso   1.000  H
  C209     1.0000 0.08030  0.58975  0.21800  Biso   1.000  C
  H163     1.0000 0.06270  0.56950  0.27700  Biso   1.000  H
  C210     1.0000 0.07569  0.63740  0.20990  Biso   1.000  C
  H164     1.0000 0.05430  0.65630  0.26050  Biso   1.000  H
  C211     1.0000 0.11483  0.70148  0.06450  Biso   1.000  C
  C212     1.0000 0.07733  0.73286  0.06650  Biso   1.000  C
  H165     1.0000 0.04850  0.72310  0.10360  Biso   1.000  H
  C213     1.0000 0.08276  0.77869  0.01340  Biso   1.000  C
  H166     1.0000 0.05760  0.80000  0.01540  Biso   1.000  H
  C214     1.0000 0.12521  0.79321  0.95750  Biso   1.000  C
  C215     1.0000 0.16261  0.76163  0.95570  Biso   1.000  C
  H167     1.0000 0.19130  0.77130  0.91760  Biso   1.000  H
  C216     1.0000 0.15756  0.71608  0.00980  Biso   1.000  C
  H168     1.0000 0.18290  0.69500  0.00960  Biso   1.000  H
  N50      1.0000 0.92190  0.96817  0.54580  Biso   1.000  N
  N51      1.0000 0.98420  0.92565  0.58570  Biso   1.000  N
  N52      1.0000 0.11517  0.57537  0.12530  Biso   1.000  N
  N53      1.0000 0.10846  0.65304  0.11280  Biso   1.000  N
  N54      1.0000 0.28783  0.94586  0.09180  Biso   1.000  N
  N55      1.0000 0.33619  0.98285  0.23610  Biso   1.000  N
  N56      1.0000 0.13094  0.84072  0.90290  Biso   1.000  N
