data_image0
_cell_length_a       9.3531
_cell_length_b       9.8055
_cell_length_c       16.1941
_cell_angle_alpha    90
_cell_angle_beta     90
_cell_angle_gamma    90

_symmetry_space_group_name_H-M    P 1
_symmetry_int_tables_number       1

loop_
  _symmetry_equiv_pos_as_xyz
  'x, y, z'

loop_
  _atom_site_label
  _atom_site_occupancy
  _atom_site_fract_x
  _atom_site_fract_y
  _atom_site_fract_z
  _atom_site_thermal_displace_type
  _atom_site_B_iso_or_equiv
  _atom_site_type_symbol
  Zn1      1.0000 0.94050  0.12002  0.58234  Biso   1.000  Zn
  Zn2      1.0000 0.44050  0.37998  0.41766  Biso   1.000  Zn
  Zn3      1.0000 0.05950  0.87998  0.08234  Biso   1.000  Zn
  Zn4      1.0000 0.55950  0.62002  0.91766  Biso   1.000  Zn
  Zn5      1.0000 0.05950  0.87998  0.41766  Biso   1.000  Zn
  Zn6      1.0000 0.55950  0.62002  0.58234  Biso   1.000  Zn
  Zn7      1.0000 0.94050  0.12002  0.91766  Biso   1.000  Zn
  Zn8      1.0000 0.44050  0.37998  0.08234  Biso   1.000  Zn
  H1       1.0000 0.67040  0.02130  0.66480  Biso   1.000  H
  H2       1.0000 0.58120  0.89560  0.66830  Biso   1.000  H
  H3       1.0000 0.82740  0.67080  0.46810  Biso   1.000  H
  H4       1.0000 0.17040  0.47870  0.33520  Biso   1.000  H
  H5       1.0000 0.08120  0.60440  0.33170  Biso   1.000  H
  H6       1.0000 0.32740  0.82920  0.53190  Biso   1.000  H
  H7       1.0000 0.32960  0.97870  0.16480  Biso   1.000  H
  H8       1.0000 0.41880  0.10440  0.16830  Biso   1.000  H
  H9       1.0000 0.17260  0.32920  0.96810  Biso   1.000  H
  H10      1.0000 0.82960  0.52130  0.83520  Biso   1.000  H
  H11      1.0000 0.91880  0.39560  0.83170  Biso   1.000  H
  H12      1.0000 0.67260  0.17080  0.03190  Biso   1.000  H
  H13      1.0000 0.32960  0.97870  0.33520  Biso   1.000  H
  H14      1.0000 0.41880  0.10440  0.33170  Biso   1.000  H
  H15      1.0000 0.17260  0.32920  0.53190  Biso   1.000  H
  H16      1.0000 0.82960  0.52130  0.66480  Biso   1.000  H
  H17      1.0000 0.91880  0.39560  0.66830  Biso   1.000  H
  H18      1.0000 0.67260  0.17080  0.46810  Biso   1.000  H
  H19      1.0000 0.67040  0.02130  0.83520  Biso   1.000  H
  H20      1.0000 0.58120  0.89560  0.83170  Biso   1.000  H
  H21      1.0000 0.82740  0.67080  0.03190  Biso   1.000  H
  H22      1.0000 0.17040  0.47870  0.16480  Biso   1.000  H
  H23      1.0000 0.08120  0.60440  0.16830  Biso   1.000  H
  H24      1.0000 0.32740  0.82920  0.96810  Biso   1.000  H
  C1       1.0000 0.74030  0.87900  0.59320  Biso   1.000  C
  C2       1.0000 0.81760  0.74580  0.50280  Biso   1.000  C
  C3       1.0000 0.24030  0.62100  0.40680  Biso   1.000  C
  C4       1.0000 0.31760  0.75420  0.49720  Biso   1.000  C
  C5       1.0000 0.25970  0.12100  0.09320  Biso   1.000  C
  C6       1.0000 0.18240  0.25420  0.00280  Biso   1.000  C
  C7       1.0000 0.75970  0.37900  0.90680  Biso   1.000  C
  C8       1.0000 0.68240  0.24580  0.99720  Biso   1.000  C
  C9       1.0000 0.25970  0.12100  0.40680  Biso   1.000  C
  C10      1.0000 0.18240  0.25420  0.49720  Biso   1.000  C
  C11      1.0000 0.75970  0.37900  0.59320  Biso   1.000  C
  C12      1.0000 0.68240  0.24580  0.50280  Biso   1.000  C
  C13      1.0000 0.74030  0.87900  0.90680  Biso   1.000  C
  C14      1.0000 0.81760  0.74580  0.99720  Biso   1.000  C
  C15      1.0000 0.24030  0.62100  0.09320  Biso   1.000  C
  C16      1.0000 0.31760  0.75420  0.00280  Biso   1.000  C
  C17      1.0000 0.97530  0.14040  0.75000  Biso   1.000  C
  C18      1.0000 0.47530  0.35960  0.25000  Biso   1.000  C
  C19      1.0000 0.02470  0.85960  0.25000  Biso   1.000  C
  C20      1.0000 0.52470  0.64040  0.75000  Biso   1.000  C
  N1       1.0000 0.85450  0.93910  0.55980  Biso   1.000  N
  N2       1.0000 0.90240  0.84870  0.50110  Biso   1.000  N
  N3       1.0000 0.71370  0.75720  0.55920  Biso   1.000  N
  N4       1.0000 0.65340  0.93920  0.64880  Biso   1.000  N
  N5       1.0000 0.35450  0.56090  0.44020  Biso   1.000  N
  N6       1.0000 0.40240  0.65130  0.49890  Biso   1.000  N
  N7       1.0000 0.21370  0.74280  0.44080  Biso   1.000  N
  N8       1.0000 0.15340  0.56080  0.35120  Biso   1.000  N
  N9       1.0000 0.14550  0.06090  0.05980  Biso   1.000  N
  N10      1.0000 0.09760  0.15130  0.00110  Biso   1.000  N
  N11      1.0000 0.28630  0.24280  0.05920  Biso   1.000  N
  N12      1.0000 0.34660  0.06080  0.14880  Biso   1.000  N
  N13      1.0000 0.64550  0.43910  0.94020  Biso   1.000  N
  N14      1.0000 0.59760  0.34870  0.99890  Biso   1.000  N
  N15      1.0000 0.78630  0.25720  0.94080  Biso   1.000  N
  N16      1.0000 0.84660  0.43920  0.85120  Biso   1.000  N
  N17      1.0000 0.14550  0.06090  0.44020  Biso   1.000  N
  N18      1.0000 0.09760  0.15130  0.49890  Biso   1.000  N
  N19      1.0000 0.28630  0.24280  0.44080  Biso   1.000  N
  N20      1.0000 0.34660  0.06080  0.35120  Biso   1.000  N
  N21      1.0000 0.64550  0.43910  0.55980  Biso   1.000  N
  N22      1.0000 0.59760  0.34870  0.50110  Biso   1.000  N
  N23      1.0000 0.78630  0.25720  0.55920  Biso   1.000  N
  N24      1.0000 0.84660  0.43920  0.64880  Biso   1.000  N
  N25      1.0000 0.85450  0.93910  0.94020  Biso   1.000  N
  N26      1.0000 0.90240  0.84870  0.99890  Biso   1.000  N
  N27      1.0000 0.71370  0.75720  0.94080  Biso   1.000  N
  N28      1.0000 0.65340  0.93920  0.85120  Biso   1.000  N
  N29      1.0000 0.35450  0.56090  0.05980  Biso   1.000  N
  N30      1.0000 0.40240  0.65130  0.00110  Biso   1.000  N
  N31      1.0000 0.21370  0.74280  0.05920  Biso   1.000  N
  N32      1.0000 0.15340  0.56080  0.14880  Biso   1.000  N
  O1       1.0000 0.04180  0.16220  0.68200  Biso   1.000  O
  O2       1.0000 0.54180  0.33780  0.31800  Biso   1.000  O
  O3       1.0000 0.95820  0.83780  0.18200  Biso   1.000  O
  O4       1.0000 0.45820  0.66220  0.81800  Biso   1.000  O
  O5       1.0000 0.95820  0.83780  0.31800  Biso   1.000  O
  O6       1.0000 0.45820  0.66220  0.68200  Biso   1.000  O
  O7       1.0000 0.04180  0.16220  0.81800  Biso   1.000  O
  O8       1.0000 0.54180  0.33780  0.18200  Biso   1.000  O
  O9       1.0000 0.84980  0.10990  0.75000  Biso   1.000  O
  O10      1.0000 0.34980  0.39010  0.25000  Biso   1.000  O
  O11      1.0000 0.15020  0.89010  0.25000  Biso   1.000  O
  O12      1.0000 0.65020  0.60990  0.75000  Biso   1.000  O
