data_image0
_cell_length_a       9.0436
_cell_length_b       9.7308
_cell_length_c       17.3916
_cell_angle_alpha    94.4309
_cell_angle_beta     105.07
_cell_angle_gamma    90

_symmetry_space_group_name_H-M    P 1
_symmetry_int_tables_number       1

loop_
  _symmetry_equiv_pos_as_xyz
  'x, y, z'

loop_
  _atom_site_label
  _atom_site_occupancy
  _atom_site_fract_x
  _atom_site_fract_y
  _atom_site_fract_z
  _atom_site_thermal_displace_type
  _atom_site_B_iso_or_equiv
  _atom_site_type_symbol
  Zn1      1.0000 0.78166  0.75961  0.16426  Biso   1.000  Zn
  Zn2      1.0000 0.96659  0.55304  0.34292  Biso   1.000  Zn
  Zn3      1.0000 0.61740  0.74039  0.83574  Biso   1.000  Zn
  Zn4      1.0000 0.62367  0.94696  0.65708  Biso   1.000  Zn
  Zn5      1.0000 0.21834  0.24039  0.83574  Biso   1.000  Zn
  Zn6      1.0000 0.03341  0.44696  0.65708  Biso   1.000  Zn
  Zn7      1.0000 0.38260  0.25961  0.16426  Biso   1.000  Zn
  Zn8      1.0000 0.37633  0.05304  0.34292  Biso   1.000  Zn
  H1       1.0000 0.47990  0.64000  0.06920  Biso   1.000  H
  H2       1.0000 0.37920  0.51800  0.06740  Biso   1.000  H
  H3       1.0000 0.13220  0.04760  0.18420  Biso   1.000  H
  H4       1.0000 0.99200  0.96790  0.13880  Biso   1.000  H
  H5       1.0000 0.69830  0.33480  0.28200  Biso   1.000  H
  H6       1.0000 0.22670  0.78900  0.39940  Biso   1.000  H
  H7       1.0000 0.41070  0.86000  0.93080  Biso   1.000  H
  H8       1.0000 0.31180  0.98200  0.93260  Biso   1.000  H
  H9       1.0000 0.94800  0.45240  0.81580  Biso   1.000  H
  H10      1.0000 0.85320  0.53210  0.86120  Biso   1.000  H
  H11      1.0000 0.41630  0.16520  0.71800  Biso   1.000  H
  H12      1.0000 0.82730  0.71100  0.60060  Biso   1.000  H
  H13      1.0000 0.52010  0.36000  0.93080  Biso   1.000  H
  H14      1.0000 0.62080  0.48200  0.93260  Biso   1.000  H
  H15      1.0000 0.86780  0.95240  0.81580  Biso   1.000  H
  H16      1.0000 0.00800  0.03210  0.86120  Biso   1.000  H
  H17      1.0000 0.30170  0.66520  0.71800  Biso   1.000  H
  H18      1.0000 0.77330  0.21100  0.60060  Biso   1.000  H
  H19      1.0000 0.58930  0.14000  0.06920  Biso   1.000  H
  H20      1.0000 0.68820  0.01800  0.06740  Biso   1.000  H
  H21      1.0000 0.05200  0.54760  0.18420  Biso   1.000  H
  H22      1.0000 0.14680  0.46790  0.13880  Biso   1.000  H
  H23      1.0000 0.58370  0.83480  0.28200  Biso   1.000  H
  H24      1.0000 0.17270  0.28900  0.39940  Biso   1.000  H
  C1       1.0000 0.56740  0.51890  0.15220  Biso   1.000  C
  C2       1.0000 0.67725  0.40340  0.24650  Biso   1.000  C
  C3       1.0000 0.08394  0.89660  0.24188  Biso   1.000  C
  C4       1.0000 0.16648  0.80680  0.34916  Biso   1.000  C
  C5       1.0000 0.93174  0.45120  0.48648  Biso   1.000  C
  C6       1.0000 0.41520  0.98110  0.84780  Biso   1.000  C
  C7       1.0000 0.43075  0.09660  0.75350  Biso   1.000  C
  C8       1.0000 0.84206  0.60340  0.75812  Biso   1.000  C
  C9       1.0000 0.81732  0.69320  0.65084  Biso   1.000  C
  C10      1.0000 0.44526  0.04880  0.51352  Biso   1.000  C
  C11      1.0000 0.43260  0.48110  0.84780  Biso   1.000  C
  C12      1.0000 0.32275  0.59660  0.75350  Biso   1.000  C
  C13      1.0000 0.91606  0.10340  0.75812  Biso   1.000  C
  C14      1.0000 0.83352  0.19320  0.65084  Biso   1.000  C
  C15      1.0000 0.06826  0.54880  0.51352  Biso   1.000  C
  C16      1.0000 0.58480  0.01890  0.15220  Biso   1.000  C
  C17      1.0000 0.56925  0.90340  0.24650  Biso   1.000  C
  C18      1.0000 0.15794  0.39660  0.24188  Biso   1.000  C
  C19      1.0000 0.18268  0.30680  0.34916  Biso   1.000  C
  C20      1.0000 0.55474  0.95120  0.48648  Biso   1.000  C
  C21      1.0000 0.73680  0.75000  0.00000  Biso   1.000  C
  C22      1.0000 0.26320  0.25000  0.00000  Biso   1.000  C
  N1       1.0000 0.69888  0.58410  0.18836  Biso   1.000  N
  N2       1.0000 0.76849  0.50690  0.25058  Biso   1.000  N
  N3       1.0000 0.54913  0.40350  0.18646  Biso   1.000  N
  N4       1.0000 0.46259  0.56460  0.08838  Biso   1.000  N
  N5       1.0000 0.98807  0.79340  0.24094  Biso   1.000  N
  N6       1.0000 0.04413  0.73380  0.31126  Biso   1.000  N
  N7       1.0000 0.19628  0.91040  0.30796  Biso   1.000  N
  N8       1.0000 0.06733  0.98120  0.18066  Biso   1.000  N
  N9       1.0000 0.51052  0.91590  0.81164  Biso   1.000  N
  N10      1.0000 0.51791  0.99310  0.74942  Biso   1.000  N
  N11      1.0000 0.36267  0.09650  0.81354  Biso   1.000  N
  N12      1.0000 0.37421  0.93540  0.91162  Biso   1.000  N
  N13      1.0000 0.74713  0.70660  0.75906  Biso   1.000  N
  N14      1.0000 0.73287  0.76620  0.68874  Biso   1.000  N
  N15      1.0000 0.88832  0.58960  0.69204  Biso   1.000  N
  N16      1.0000 0.88667  0.51880  0.81934  Biso   1.000  N
  N17      1.0000 0.30112  0.41590  0.81164  Biso   1.000  N
  N18      1.0000 0.23151  0.49310  0.74942  Biso   1.000  N
  N19      1.0000 0.45087  0.59650  0.81354  Biso   1.000  N
  N20      1.0000 0.53741  0.43540  0.91162  Biso   1.000  N
  N21      1.0000 0.01193  0.20660  0.75906  Biso   1.000  N
  N22      1.0000 0.95587  0.26620  0.68874  Biso   1.000  N
  N23      1.0000 0.80372  0.08960  0.69204  Biso   1.000  N
  N24      1.0000 0.93267  0.01880  0.81934  Biso   1.000  N
  N25      1.0000 0.48948  0.08410  0.18836  Biso   1.000  N
  N26      1.0000 0.48209  0.00690  0.25058  Biso   1.000  N
  N27      1.0000 0.63733  0.90350  0.18646  Biso   1.000  N
  N28      1.0000 0.62579  0.06460  0.08838  Biso   1.000  N
  N29      1.0000 0.25287  0.29340  0.24094  Biso   1.000  N
  N30      1.0000 0.26713  0.23380  0.31126  Biso   1.000  N
  N31      1.0000 0.11168  0.41040  0.30796  Biso   1.000  N
  N32      1.0000 0.11333  0.48120  0.18066  Biso   1.000  N
  O1       1.0000 0.84255  0.75920  0.06570  Biso   1.000  O
  O2       1.0000 0.87747  0.42440  0.41374  Biso   1.000  O
  O3       1.0000 0.88703  0.39750  0.54006  Biso   1.000  O
  O4       1.0000 0.77685  0.74080  0.93430  Biso   1.000  O
  O5       1.0000 0.46373  0.07560  0.58626  Biso   1.000  O
  O6       1.0000 0.34697  0.10250  0.45994  Biso   1.000  O
  O7       1.0000 0.15745  0.24080  0.93430  Biso   1.000  O
  O8       1.0000 0.12253  0.57560  0.58626  Biso   1.000  O
  O9       1.0000 0.11297  0.60250  0.45994  Biso   1.000  O
  O10      1.0000 0.22315  0.25920  0.06570  Biso   1.000  O
  O11      1.0000 0.53627  0.92440  0.41374  Biso   1.000  O
  O12      1.0000 0.65303  0.89750  0.54006  Biso   1.000  O
  O13      1.0000 0.59800  0.75000  0.00000  Biso   1.000  O
  O14      1.0000 0.40200  0.25000  0.00000  Biso   1.000  O
