data_KOQLUZ_freeONLY
_audit_creation_date              2015-10-16
_audit_creation_method            'Materials Studio'
_symmetry_space_group_name_H-M    'P1'
_symmetry_Int_Tables_number       1
_symmetry_cell_setting            triclinic
loop_
_symmetry_equiv_pos_as_xyz
  x,y,z
_cell_length_a                    10.6010
_cell_length_b                    13.4564
_cell_length_c                    20.0380
_cell_angle_alpha                 98.6386
_cell_angle_beta                  90.0000
_cell_angle_gamma                 113.1970
loop_
_atom_site_label
_atom_site_type_symbol
_atom_site_fract_x
_atom_site_fract_y
_atom_site_fract_z
_atom_site_U_iso_or_equiv
_atom_site_adp_type
_atom_site_occupancy
Cu1    Cu    0.00000   0.00000   0.00000   0.01267  Uiso   1.00
Cu2    Cu    0.00000   0.00000   0.50000   0.01267  Uiso   1.00
Si1    Si    0.50210   0.00000   0.25000   0.01267  Uiso   1.00
Si2    Si    0.49790  -0.00000   0.75000   0.01267  Uiso   1.00
H1     H     0.46050   0.36620   0.56710   0.01267  Uiso   1.00
H2     H     0.29060   0.19700   0.51840   0.01267  Uiso   1.00
H3     H     0.90570   0.36620   0.06710   0.01267  Uiso   1.00
H4     H     0.90640   0.19700   0.01840   0.01267  Uiso   1.00
H5     H     0.34640   0.47520   0.41190   0.01267  Uiso   1.00
H6     H     0.76640   0.64340   0.07620   0.01267  Uiso   1.00
H7     H     0.95260   0.17800   0.43160   0.01267  Uiso   1.00
H8     H     0.12300   0.35660   0.42380   0.01267  Uiso   1.00
H9     H     0.87700   0.64340   0.57620   0.01267  Uiso   1.00
H10    H     0.09360   0.80300   0.98160   0.01267  Uiso   1.00
H11    H     0.77460   0.82200   0.06840   0.01267  Uiso   1.00
H12    H     0.09430   0.63380   0.93290   0.01267  Uiso   1.00
H13    H     0.04740   0.82200   0.56840   0.01267  Uiso   1.00
H14    H     0.70940   0.80300   0.48160   0.01267  Uiso   1.00
H15    H     0.23360   0.35660   0.92380   0.01267  Uiso   1.00
H16    H     0.53950   0.63380   0.43290   0.01267  Uiso   1.00
H17    H     0.12880   0.47520   0.91190   0.01267  Uiso   1.00
H18    H     0.87120   0.52480   0.08810   0.01267  Uiso   1.00
H19    H     0.22540   0.17800   0.93160   0.01267  Uiso   1.00
H20    H     0.65360   0.52480   0.58810   0.01267  Uiso   1.00
W1     W     0.76600   0.04880   0.13669   0.01267  Uiso   1.00
W2     W     0.16650   0.79328   0.71055   0.01267  Uiso   1.00
W3     W     0.39323   0.76302   0.32823   0.01267  Uiso   1.00
W4     W     0.24485   0.97072   0.36770   0.01267  Uiso   1.00
W5     W     0.71720   0.95120   0.36331   0.01267  Uiso   1.00
W6     W     0.23400   0.95120   0.86331   0.01267  Uiso   1.00
W7     W     0.27413   0.02928   0.13230   0.01267  Uiso   1.00
W8     W     0.62729   0.79664   0.69872   0.01267  Uiso   1.00
W9     W     0.83350   0.20672   0.28945   0.01267  Uiso   1.00
W10    W     0.63021   0.23698   0.17177   0.01267  Uiso   1.00
W11    W     0.75515   0.02928   0.63230   0.01267  Uiso   1.00
W12    W     0.37322   0.20672   0.78945   0.01267  Uiso   1.00
W13    W     0.72587   0.97072   0.86770   0.01267  Uiso   1.00
W14    W     0.62678   0.79328   0.21055   0.01267  Uiso   1.00
W15    W     0.58819   0.15364   0.91477   0.01267  Uiso   1.00
W16    W     0.37271   0.20336   0.30128   0.01267  Uiso   1.00
W17    W     0.56545   0.15364   0.41477   0.01267  Uiso   1.00
W18    W     0.41181   0.84636   0.08523   0.01267  Uiso   1.00
W19    W     0.36979   0.76302   0.82823   0.01267  Uiso   1.00
W20    W     0.83065   0.20336   0.80128   0.01267  Uiso   1.00
W21    W     0.60677   0.23698   0.67177   0.01267  Uiso   1.00
W22    W     0.16935   0.79664   0.19872   0.01267  Uiso   1.00
W23    W     0.43455   0.84636   0.58523   0.01267  Uiso   1.00
W24    W     0.28280   0.04880   0.63669   0.01267  Uiso   1.00
C1     C     0.83840   0.79480   0.05130   0.01267  Uiso   1.00
C2     C     0.59100   0.51420   0.55250   0.01267  Uiso   1.00
C3     C     0.22720   0.21500   0.49640   0.01267  Uiso   1.00
C4     C     0.02120   0.40520   0.98720   0.01267  Uiso   1.00
C5     C     0.98780   0.21500   0.99640   0.01267  Uiso   1.00
C6     C     0.77280   0.78500   0.50360   0.01267  Uiso   1.00
C7     C     0.13590   0.30340   0.44430   0.01267  Uiso   1.00
C8     C     0.05660   0.58000   0.95980   0.01267  Uiso   1.00
C9     C     0.52340   0.58000   0.45980   0.01267  Uiso   1.00
C10    C     0.92320   0.51420   0.05250   0.01267  Uiso   1.00
C11    C     0.47660   0.42000   0.54020   0.01267  Uiso   1.00
C12    C     0.16750   0.30340   0.94430   0.01267  Uiso   1.00
C13    C     0.61600   0.59480   0.51280   0.01267  Uiso   1.00
C14    C     0.83250   0.69660   0.05570   0.01267  Uiso   1.00
C15    C     0.94340   0.42000   0.04020   0.01267  Uiso   1.00
C16    C     0.97880   0.59480   0.01280   0.01267  Uiso   1.00
C17    C     0.16160   0.20520   0.94870   0.01267  Uiso   1.00
C18    C     0.01220   0.78500   0.00360   0.01267  Uiso   1.00
C19    C     0.40900   0.48580   0.44750   0.01267  Uiso   1.00
C20    C     0.38400   0.40520   0.48720   0.01267  Uiso   1.00
C21    C     0.95640   0.79480   0.55130   0.01267  Uiso   1.00
C22    C     0.86410   0.69660   0.55570   0.01267  Uiso   1.00
C23    C     0.04360   0.20520   0.44870   0.01267  Uiso   1.00
C24    C     0.07680   0.48580   0.94750   0.01267  Uiso   1.00
N1     N     0.04960   0.14800   0.98160   0.01267  Uiso   1.00
N2     N     0.74210   0.68840   0.52330   0.01267  Uiso   1.00
N3     N     0.94630   0.68840   0.02330   0.01267  Uiso   1.00
N4     N     0.90160   0.85200   0.51840   0.01267  Uiso   1.00
N5     N     0.25790   0.31160   0.47670   0.01267  Uiso   1.00
N6     N     0.09840   0.14800   0.48160   0.01267  Uiso   1.00
N7     N     0.95040   0.85200   0.01840   0.01267  Uiso   1.00
N8     N     0.05370   0.31160   0.97670   0.01267  Uiso   1.00
O1     O     0.44280   0.05980   0.31180   0.01267  Uiso   1.00
O2     O     0.63330   0.09040   0.22250   0.01267  Uiso   1.00
O3     O     0.71740   0.22120   0.35810   0.01267  Uiso   1.00
O4     O     0.49120   0.70340   0.26230   0.01267  Uiso   1.00
O5     O     0.23220   0.09800   0.34670   0.01267  Uiso   1.00
O6     O     0.43910   0.17280   0.61560   0.01267  Uiso   1.00
O7     O     0.34200   0.64640   0.85890   0.01267  Uiso   1.00
O8     O     0.25740   0.07280   0.82270   0.01267  Uiso   1.00
O9     O     0.68850   0.70020   0.17590   0.01267  Uiso   1.00
O10    O     0.67510   0.13620   0.62930   0.01267  Uiso   1.00
O11    O     0.18460   0.92720   0.67730   0.01267  Uiso   1.00
O12    O     0.13420   0.90200   0.15330   0.01267  Uiso   1.00
O13    O     0.62760   0.03980   0.40820   0.01267  Uiso   1.00
O14    O     0.54290   0.90960   0.27750   0.01267  Uiso   1.00
O15    O     0.55720   0.94020   0.68820   0.01267  Uiso   1.00
O16    O     0.25250   0.14700   0.70650   0.01267  Uiso   1.00
O17    O     0.38300   0.94020   0.18820   0.01267  Uiso   1.00
O18    O     0.72190   0.89000   0.78200   0.01267  Uiso   1.00
O19    O     0.81540   0.07280   0.32270   0.01267  Uiso   1.00
O20    O     0.61260   0.93620   0.56270   0.01267  Uiso   1.00
O21    O     0.73370   0.17280   0.11560   0.01267  Uiso   1.00
O22    O     0.69560   0.35360   0.64110   0.01267  Uiso   1.00
O23    O     0.10650   0.92600   0.41810   0.01267  Uiso   1.00
O24    O     0.23690   0.75220   0.11690   0.01267  Uiso   1.00
O25    O     0.37240   0.96020   0.59180   0.01267  Uiso   1.00
O26    O     0.87460   0.03660   0.07390   0.01267  Uiso   1.00
O27    O     0.31150   0.29980   0.82410   0.01267  Uiso   1.00
O28    O     0.74750   0.85300   0.29350   0.01267  Uiso   1.00
O29    O     0.12540   0.96340   0.92610   0.01267  Uiso   1.00
O30    O     0.89450   0.14700   0.20650   0.01267  Uiso   1.00
O31    O     0.16810   0.89000   0.28200   0.01267  Uiso   1.00
O32    O     0.76780   0.90200   0.65330   0.01267  Uiso   1.00
O33    O     0.81950   0.92600   0.91810   0.01267  Uiso   1.00
O34    O     0.46110   0.13620   0.12930   0.01267  Uiso   1.00
O35    O     0.01170   0.70020   0.67590   0.01267  Uiso   1.00
O36    O     0.18050   0.07400   0.08190   0.01267  Uiso   1.00
O37    O     0.32490   0.86380   0.37070   0.01267  Uiso   1.00
O38    O     0.36610   0.77240   0.50810   0.01267  Uiso   1.00
O39    O     0.27810   0.11000   0.21800   0.01267  Uiso   1.00
O40    O     0.16200   0.03660   0.57390   0.01267  Uiso   1.00
O41    O     0.61700   0.05980   0.81180   0.01267  Uiso   1.00
O42    O     0.72680   0.25360   0.74880   0.01267  Uiso   1.00
O43    O     0.27320   0.74640   0.25120   0.01267  Uiso   1.00
O44    O     0.28260   0.77880   0.64190   0.01267  Uiso   1.00
O45    O     0.50880   0.29660   0.73770   0.01267  Uiso   1.00
O46    O     0.41220   0.03980   0.90820   0.01267  Uiso   1.00
O47    O     0.59370   0.22760   0.99190   0.01267  Uiso   1.00
O48    O     0.36670   0.90960   0.77750   0.01267  Uiso   1.00
O49    O     0.58780   0.96020   0.09180   0.01267  Uiso   1.00
O50    O     0.50380   0.22120   0.85810   0.01267  Uiso   1.00
O51    O     0.98830   0.29980   0.32410   0.01267  Uiso   1.00
O52    O     0.48470   0.24780   0.38310   0.01267  Uiso   1.00
O53    O     0.86580   0.09800   0.84670   0.01267  Uiso   1.00
O54    O     0.67640   0.06380   0.93730   0.01267  Uiso   1.00
O55    O     0.56090   0.82720   0.38440   0.01267  Uiso   1.00
O56    O     0.76310   0.24780   0.88310   0.01267  Uiso   1.00
O57    O     0.30440   0.64640   0.35890   0.01267  Uiso   1.00
O58    O     0.74260   0.92720   0.17730   0.01267  Uiso   1.00
O59    O     0.63390   0.22760   0.49190   0.01267  Uiso   1.00
O60    O     0.53890   0.86380   0.87070   0.01267  Uiso   1.00
O61    O     0.49620   0.77880   0.14190   0.01267  Uiso   1.00
O62    O     0.32360   0.93620   0.06270   0.01267  Uiso   1.00
O63    O     0.52680   0.25360   0.24880   0.01267  Uiso   1.00
O64    O     0.51530   0.75220   0.61690   0.01267  Uiso   1.00
O65    O     0.65800   0.35360   0.14110   0.01267  Uiso   1.00
O66    O     0.26630   0.82720   0.88440   0.01267  Uiso   1.00
O67    O     0.21220   0.70340   0.76230   0.01267  Uiso   1.00
O68    O     0.47320   0.74640   0.75120   0.01267  Uiso   1.00
O69    O     0.38740   0.06380   0.43730   0.01267  Uiso   1.00
O70    O     0.78780   0.29660   0.23770   0.01267  Uiso   1.00
O71    O     0.40630   0.77240   0.00810   0.01267  Uiso   1.00
O72    O     0.10550   0.85300   0.79350   0.01267  Uiso   1.00
O73    O     0.68610   0.69340   0.69260   0.01267  Uiso   1.00
O74    O     0.99270   0.30660   0.80740   0.01267  Uiso   1.00
O75    O     0.00730   0.69340   0.19260   0.01267  Uiso   1.00
O76    O     0.83190   0.11000   0.71800   0.01267  Uiso   1.00
O77    O     0.31390   0.30660   0.30740   0.01267  Uiso   1.00
O78    O     0.83800   0.96340   0.42610   0.01267  Uiso   1.00
O79    O     0.45710   0.09040   0.72250   0.01267  Uiso   1.00
O80    O     0.89350   0.07400   0.58190   0.01267  Uiso   1.00
