data_KORMOV_freeONLY
_audit_creation_date              2015-10-16
_audit_creation_method            'Materials Studio'
_symmetry_space_group_name_H-M    'P1'
_symmetry_Int_Tables_number       1
_symmetry_cell_setting            triclinic
loop_
_symmetry_equiv_pos_as_xyz
  x,y,z
_cell_length_a                    6.1210
_cell_length_b                    10.7810
_cell_length_c                    13.9870
_cell_angle_alpha                 98.9010
_cell_angle_beta                  96.7150
_cell_angle_gamma                 103.8610
loop_
_atom_site_label
_atom_site_type_symbol
_atom_site_fract_x
_atom_site_fract_y
_atom_site_fract_z
_atom_site_U_iso_or_equiv
_atom_site_adp_type
_atom_site_occupancy
Co1    Co    0.64868   0.27667   0.44309   0.01267  Uiso   1.00
Co2    Co    0.40069   0.47772   0.38638   0.01267  Uiso   1.00
Co3    Co    0.59931   0.52228   0.61362   0.01267  Uiso   1.00
Co4    Co    0.35132   0.72333   0.55691   0.01267  Uiso   1.00
H1     H     0.24900   0.08320   0.28350   0.01267  Uiso   1.00
H2     H     0.19400   0.47300   0.53000   0.01267  Uiso   1.00
H3     H     0.96100   0.41800   0.30200   0.01267  Uiso   1.00
H4     H     0.34630   0.30500   0.06450   0.01267  Uiso   1.00
H5     H     0.03900   0.58200   0.69800   0.01267  Uiso   1.00
H6     H     0.65370   0.69500   0.93550   0.01267  Uiso   1.00
H7     H     0.87270   0.18670   0.17120   0.01267  Uiso   1.00
H8     H     0.91050   0.10240   0.01540   0.01267  Uiso   1.00
H9     H     0.82690   0.73010   0.26100   0.01267  Uiso   1.00
H10    H     0.08400   0.50100   0.24830   0.01267  Uiso   1.00
H11    H     0.47390   0.93320   0.19880   0.01267  Uiso   1.00
H12    H     0.75100   0.91680   0.71650   0.01267  Uiso   1.00
H13    H     0.62760   0.79030   0.09140   0.01267  Uiso   1.00
H14    H     0.12730   0.81330   0.82880   0.01267  Uiso   1.00
H15    H     0.68900   0.99350   0.85030   0.01267  Uiso   1.00
H16    H     0.74910   0.03250   0.44740   0.01267  Uiso   1.00
H17    H     0.37240   0.20970   0.90860   0.01267  Uiso   1.00
H18    H     0.08950   0.89760   0.98460   0.01267  Uiso   1.00
H19    H     0.80600   0.52700   0.47000   0.01267  Uiso   1.00
H20    H     0.52610   0.06680   0.80120   0.01267  Uiso   1.00
H21    H     0.17310   0.26990   0.73900   0.01267  Uiso   1.00
H22    H     0.25090   0.96750   0.55260   0.01267  Uiso   1.00
H23    H     0.91600   0.49900   0.75170   0.01267  Uiso   1.00
H24    H     0.31100   0.00650   0.14970   0.01267  Uiso   1.00
C1     C     0.12430   0.02920   0.30170   0.01267  Uiso   1.00
C2     C     0.77150   0.19290   0.11830   0.01267  Uiso   1.00
C3     C     0.82710   0.99890   0.40090   0.01267  Uiso   1.00
C4     C     0.09380   0.22210   0.41550   0.01267  Uiso   1.00
C5     C     0.42140   0.69350   0.76300   0.01267  Uiso   1.00
C6     C     0.12710   0.18180   0.71110   0.01267  Uiso   1.00
C7     C     0.17290   0.00110   0.59910   0.01267  Uiso   1.00
C8     C     0.20770   0.85890   0.97510   0.01267  Uiso   1.00
C9     C     0.57860   0.30650   0.23700   0.01267  Uiso   1.00
C10    C     0.45860   0.26150   0.05530   0.01267  Uiso   1.00
C11    C     0.79230   0.14110   0.02490   0.01267  Uiso   1.00
C12    C     0.00930   0.07920   0.37200   0.01267  Uiso   1.00
C13    C     0.66460   0.07840   0.84690   0.01267  Uiso   1.00
C14    C     0.22850   0.80710   0.88170   0.01267  Uiso   1.00
C15    C     0.41850   0.22580   0.60390   0.01267  Uiso   1.00
C16    C     0.64350   0.14530   0.94600   0.01267  Uiso   1.00
C17    C     0.54140   0.73850   0.94470   0.01267  Uiso   1.00
C18    C     0.90620   0.77790   0.58450   0.01267  Uiso   1.00
C19    C     0.87570   0.97080   0.69830   0.01267  Uiso   1.00
C20    C     0.35650   0.85470   0.05400   0.01267  Uiso   1.00
C21    C     0.47610   0.20580   0.96150   0.01267  Uiso   1.00
C22    C     0.99070   0.92080   0.62800   0.01267  Uiso   1.00
C23    C     0.39740   0.74630   0.86590   0.01267  Uiso   1.00
C24    C     0.23790   0.13260   0.64020   0.01267  Uiso   1.00
C25    C     0.58150   0.77420   0.39610   0.01267  Uiso   1.00
C26    C     0.60260   0.25370   0.13410   0.01267  Uiso   1.00
C27    C     0.94730   0.10050   0.74090   0.01267  Uiso   1.00
C28    C     0.05270   0.89950   0.25910   0.01267  Uiso   1.00
C29    C     0.87290   0.81820   0.28890   0.01267  Uiso   1.00
C30    C     0.33540   0.92160   0.15310   0.01267  Uiso   1.00
C31    C     0.52390   0.79420   0.03850   0.01267  Uiso   1.00
C32    C     0.76210   0.86740   0.35980   0.01267  Uiso   1.00
O1     O     0.45430   0.34300   0.63960   0.01267  Uiso   1.00
O2     O     0.65650   0.24950   0.30110   0.01267  Uiso   1.00
O3     O     0.51230   0.60280   0.74710   0.01267  Uiso   1.00
O4     O     0.68830   0.46550   0.47830   0.01267  Uiso   1.00
O5     O     0.51690   0.17850   0.53855   0.01267  Uiso   1.00
O6     O     0.48310   0.82150   0.46145   0.01267  Uiso   1.00
O7     O     0.14670   0.84240   0.18510   0.01267  Uiso   1.00
O8     O     0.31170   0.53450   0.52170   0.01267  Uiso   1.00
O9     O     0.02000   0.72330   0.53084   0.01267  Uiso   1.00
O10    O     0.98000   0.27670   0.46916   0.01267  Uiso   1.00
O11    O     0.54570   0.65700   0.36040   0.01267  Uiso   1.00
O12    O     0.34350   0.75050   0.69890   0.01267  Uiso   1.00
O13    O     0.71760   0.71840   0.60347   0.01267  Uiso   1.00
O14    O     0.91260   0.51740   0.69150   0.01267  Uiso   1.00
O15    O     0.08740   0.48260   0.30850   0.01267  Uiso   1.00
O16    O     0.28240   0.28160   0.39653   0.01267  Uiso   1.00
O17    O     0.85330   0.15760   0.81490   0.01267  Uiso   1.00
O18    O     0.48770   0.39720   0.25290   0.01267  Uiso   1.00
