data_image0
_cell_length_a       18.369
_cell_length_b       17.305
_cell_length_c       28.133
_cell_angle_alpha    90
_cell_angle_beta     91.083
_cell_angle_gamma    90

_symmetry_space_group_name_H-M    "P 1"
_symmetry_int_tables_number       1

loop_
  _symmetry_equiv_pos_as_xyz
  'x, y, z'

loop_
  _atom_site_label
  _atom_site_occupancy
  _atom_site_fract_x
  _atom_site_fract_y
  _atom_site_fract_z
  _atom_site_thermal_displace_type
  _atom_site_B_iso_or_equiv
  _atom_site_type_symbol
  Cd1      1.0000 0.44030  0.73761  0.52442  Biso   1.000  Cd
  Cl1      1.0000 0.54095  0.62699  0.53146  Biso   1.000  Cl
  Cl2      1.0000 0.34791  0.85010  0.51819  Biso   1.000  Cl
  O1       1.0000 0.58714  0.89425  0.30385  Biso   1.000  O
  O2       1.0000 0.77485  0.08448  0.29757  Biso   1.000  O
  O3       1.0000 0.76135  0.88547  0.24634  Biso   1.000  O
  O4       1.0000 0.58901  0.09099  0.25017  Biso   1.000  O
  N1       1.0000 0.51130  0.80560  0.46946  Biso   1.000  N
  N2       1.0000 0.88700  0.16510  0.46217  Biso   1.000  N
  N3       1.0000 0.86670  0.82120  0.08055  Biso   1.000  N
  N4       1.0000 0.50631  0.19810  0.08476  Biso   1.000  N
  C1       1.0000 0.47590  0.16000  0.11997  Biso   1.000  C
  H1       1.0000 0.42590  0.16430  0.12350  Biso   1.000  H
  C2       1.0000 0.51440  0.11410  0.15176  Biso   1.000  C
  H2       1.0000 0.49060  0.08990  0.17660  Biso   1.000  H
  C3       1.0000 0.58980  0.10450  0.14626  Biso   1.000  C
  C4       1.0000 0.57880  0.19190  0.08047  Biso   1.000  C
  H3       1.0000 0.60130  0.22020  0.05680  Biso   1.000  H
  C5       1.0000 0.62110  0.14600  0.10923  Biso   1.000  C
  H4       1.0000 0.67090  0.14240  0.10420  Biso   1.000  H
  C6       1.0000 0.51790  0.88200  0.47479  Biso   1.000  C
  H5       1.0000 0.49300  0.90590  0.49920  Biso   1.000  H
  C7       1.0000 0.56020  0.92710  0.44546  Biso   1.000  C
  H6       1.0000 0.56550  0.97970  0.45130  Biso   1.000  H
  C8       1.0000 0.59440  0.89320  0.40770  Biso   1.000  C
  C9       1.0000 0.58640  0.81400  0.40172  Biso   1.000  C
  H7       1.0000 0.60840  0.78900  0.37650  Biso   1.000  H
  C10      1.0000 0.54580  0.77280  0.43346  Biso   1.000  C
  H8       1.0000 0.54220  0.71960  0.42960  Biso   1.000  H
  C11      1.0000 0.64090  0.94180  0.37710  Biso   1.000  C
  C12      1.0000 0.69290  0.98850  0.39933  Biso   1.000  C
  H9       1.0000 0.69680  0.98830  0.43230  Biso   1.000  H
  C13      1.0000 0.73950  0.03570  0.37364  Biso   1.000  C
  C14      1.0000 0.73280  0.03620  0.32426  Biso   1.000  C
  C15      1.0000 0.63590  0.94200  0.32777  Biso   1.000  C
  C16      1.0000 0.68070  0.98860  0.30097  Biso   1.000  C
  C17      1.0000 0.51150  0.91630  0.30876  Biso   1.000  C
  H10      1.0000 0.50060  0.92110  0.34190  Biso   1.000  H
  H11      1.0000 0.48080  0.87760  0.29450  Biso   1.000  H
  H12      1.0000 0.50320  0.96500  0.29320  Biso   1.000  H
  C18      1.0000 0.84770  0.05510  0.29053  Biso   1.000  C
  H13      1.0000 0.87180  0.04820  0.32080  Biso   1.000  H
  H14      1.0000 0.87470  0.09120  0.27190  Biso   1.000  H
  H15      1.0000 0.84500  0.00640  0.27430  Biso   1.000  H
  C19      1.0000 0.79430  0.08180  0.40128  Biso   1.000  C
  C20      1.0000 0.83640  0.04530  0.43649  Biso   1.000  C
  H16      1.0000 0.83400  0.99200  0.44030  Biso   1.000  H
  C21      1.0000 0.88140  0.08850  0.46537  Biso   1.000  C
  H17      1.0000 0.90950  0.06310  0.48840  Biso   1.000  H
  C22      1.0000 0.84820  0.20020  0.42749  Biso   1.000  C
  H18      1.0000 0.85240  0.25350  0.42430  Biso   1.000  H
  C23      1.0000 0.80240  0.16080  0.39616  Biso   1.000  C
  H19      1.0000 0.77750  0.18710  0.37210  Biso   1.000  H
  C24      1.0000 0.67710  0.98980  0.24813  Biso   1.000  C
  C25      1.0000 0.71990  0.93990  0.22193  Biso   1.000  C
  C26      1.0000 0.72330  0.94520  0.17242  Biso   1.000  C
  C27      1.0000 0.67990  0.00060  0.14973  Biso   1.000  C
  H20      1.0000 0.68160  0.00480  0.11680  Biso   1.000  H
  C28      1.0000 0.63420  0.04980  0.17450  Biso   1.000  C
  C29      1.0000 0.63400  0.04450  0.22383  Biso   1.000  C
  C30      1.0000 0.61260  0.16910  0.25511  Biso   1.000  C
  H21      1.0000 0.65750  0.17060  0.27310  Biso   1.000  H
  H22      1.0000 0.57630  0.19840  0.27130  Biso   1.000  H
  H23      1.0000 0.62000  0.19100  0.22420  Biso   1.000  H
  C31      1.0000 0.72810  0.80960  0.24640  Biso   1.000  C
  H24      1.0000 0.68050  0.81290  0.25970  Biso   1.000  H
  H25      1.0000 0.75770  0.77490  0.26510  Biso   1.000  H
  H26      1.0000 0.72420  0.79070  0.21440  Biso   1.000  H
  C32      1.0000 0.77250  0.89780  0.14277  Biso   1.000  C
  C33      1.0000 0.84420  0.87960  0.15663  Biso   1.000  C
  H27      1.0000 0.86170  0.89220  0.18690  Biso   1.000  H
  C34      1.0000 0.88830  0.84270  0.12465  Biso   1.000  C
  H28      1.0000 0.93610  0.83200  0.13410  Biso   1.000  H
  C35      1.0000 0.79720  0.83590  0.06825  Biso   1.000  C
  H29      1.0000 0.78020  0.81940  0.03860  Biso   1.000  H
  C36      1.0000 0.74970  0.87430  0.09741  Biso   1.000  C
  H30      1.0000 0.70240  0.88460  0.08680  Biso   1.000  H
  Cd2      1.0000 0.94030  0.23761  0.52442  Biso   1.000  Cd
  Cl3      1.0000 0.04095  0.12699  0.53146  Biso   1.000  Cl
  Cl4      1.0000 0.84791  0.35010  0.51819  Biso   1.000  Cl
  O5       1.0000 0.08714  0.39425  0.30385  Biso   1.000  O
  O6       1.0000 0.27485  0.58448  0.29757  Biso   1.000  O
  O7       1.0000 0.26135  0.38547  0.24634  Biso   1.000  O
  O8       1.0000 0.08901  0.59099  0.25017  Biso   1.000  O
  N5       1.0000 0.01130  0.30560  0.46946  Biso   1.000  N
  N6       1.0000 0.38700  0.66510  0.46217  Biso   1.000  N
  N7       1.0000 0.36670  0.32120  0.08055  Biso   1.000  N
  N8       1.0000 0.00631  0.69810  0.08476  Biso   1.000  N
  C37      1.0000 0.97590  0.66000  0.11997  Biso   1.000  C
  H31      1.0000 0.92590  0.66430  0.12350  Biso   1.000  H
  C38      1.0000 0.01440  0.61410  0.15176  Biso   1.000  C
  H32      1.0000 0.99060  0.58990  0.17660  Biso   1.000  H
  C39      1.0000 0.08980  0.60450  0.14626  Biso   1.000  C
  C40      1.0000 0.07880  0.69190  0.08047  Biso   1.000  C
  H33      1.0000 0.10130  0.72020  0.05680  Biso   1.000  H
  C41      1.0000 0.12110  0.64600  0.10923  Biso   1.000  C
  H34      1.0000 0.17090  0.64240  0.10420  Biso   1.000  H
  C42      1.0000 0.01790  0.38200  0.47479  Biso   1.000  C
  H35      1.0000 0.99300  0.40590  0.49920  Biso   1.000  H
  C43      1.0000 0.06020  0.42710  0.44546  Biso   1.000  C
  H36      1.0000 0.06550  0.47970  0.45130  Biso   1.000  H
  C44      1.0000 0.09440  0.39320  0.40770  Biso   1.000  C
  C45      1.0000 0.08640  0.31400  0.40172  Biso   1.000  C
  H37      1.0000 0.10840  0.28900  0.37650  Biso   1.000  H
  C46      1.0000 0.04580  0.27280  0.43346  Biso   1.000  C
  H38      1.0000 0.04220  0.21960  0.42960  Biso   1.000  H
  C47      1.0000 0.14090  0.44180  0.37710  Biso   1.000  C
  C48      1.0000 0.19290  0.48850  0.39933  Biso   1.000  C
  H39      1.0000 0.19680  0.48830  0.43230  Biso   1.000  H
  C49      1.0000 0.23950  0.53570  0.37364  Biso   1.000  C
  C50      1.0000 0.23280  0.53620  0.32426  Biso   1.000  C
  C51      1.0000 0.13590  0.44200  0.32777  Biso   1.000  C
  C52      1.0000 0.18070  0.48860  0.30097  Biso   1.000  C
  C53      1.0000 0.01150  0.41630  0.30876  Biso   1.000  C
  H40      1.0000 0.00060  0.42110  0.34190  Biso   1.000  H
  H41      1.0000 0.98080  0.37760  0.29450  Biso   1.000  H
  H42      1.0000 0.00320  0.46500  0.29320  Biso   1.000  H
  C54      1.0000 0.34770  0.55510  0.29053  Biso   1.000  C
  H43      1.0000 0.37180  0.54820  0.32080  Biso   1.000  H
  H44      1.0000 0.37470  0.59120  0.27190  Biso   1.000  H
  H45      1.0000 0.34500  0.50640  0.27430  Biso   1.000  H
  C55      1.0000 0.29430  0.58180  0.40128  Biso   1.000  C
  C56      1.0000 0.33640  0.54530  0.43649  Biso   1.000  C
  H46      1.0000 0.33400  0.49200  0.44030  Biso   1.000  H
  C57      1.0000 0.38140  0.58850  0.46537  Biso   1.000  C
  H47      1.0000 0.40950  0.56310  0.48840  Biso   1.000  H
  C58      1.0000 0.34820  0.70020  0.42749  Biso   1.000  C
  H48      1.0000 0.35240  0.75350  0.42430  Biso   1.000  H
  C59      1.0000 0.30240  0.66080  0.39616  Biso   1.000  C
  H49      1.0000 0.27750  0.68710  0.37210  Biso   1.000  H
  C60      1.0000 0.17710  0.48980  0.24813  Biso   1.000  C
  C61      1.0000 0.21990  0.43990  0.22193  Biso   1.000  C
  C62      1.0000 0.22330  0.44520  0.17242  Biso   1.000  C
  C63      1.0000 0.17990  0.50060  0.14973  Biso   1.000  C
  H50      1.0000 0.18160  0.50480  0.11680  Biso   1.000  H
  C64      1.0000 0.13420  0.54980  0.17450  Biso   1.000  C
  C65      1.0000 0.13400  0.54450  0.22383  Biso   1.000  C
  C66      1.0000 0.11260  0.66910  0.25511  Biso   1.000  C
  H51      1.0000 0.15750  0.67060  0.27310  Biso   1.000  H
  H52      1.0000 0.07630  0.69840  0.27130  Biso   1.000  H
  H53      1.0000 0.12000  0.69100  0.22420  Biso   1.000  H
  C67      1.0000 0.22810  0.30960  0.24640  Biso   1.000  C
  H54      1.0000 0.18050  0.31290  0.25970  Biso   1.000  H
  H55      1.0000 0.25770  0.27490  0.26510  Biso   1.000  H
  H56      1.0000 0.22420  0.29070  0.21440  Biso   1.000  H
  C68      1.0000 0.27250  0.39780  0.14277  Biso   1.000  C
  C69      1.0000 0.34420  0.37960  0.15663  Biso   1.000  C
  H57      1.0000 0.36170  0.39220  0.18690  Biso   1.000  H
  C70      1.0000 0.38830  0.34270  0.12465  Biso   1.000  C
  H58      1.0000 0.43610  0.33200  0.13410  Biso   1.000  H
  C71      1.0000 0.29720  0.33590  0.06825  Biso   1.000  C
  H59      1.0000 0.28020  0.31940  0.03860  Biso   1.000  H
  C72      1.0000 0.24970  0.37430  0.09741  Biso   1.000  C
  H60      1.0000 0.20240  0.38460  0.08680  Biso   1.000  H
  Cd3      1.0000 0.44030  0.26239  0.02442  Biso   1.000  Cd
  Cl5      1.0000 0.54095  0.37301  0.03146  Biso   1.000  Cl
  Cl6      1.0000 0.34791  0.14990  0.01819  Biso   1.000  Cl
  O9       1.0000 0.58714  0.10575  0.80385  Biso   1.000  O
  O10      1.0000 0.77485  0.91552  0.79757  Biso   1.000  O
  O11      1.0000 0.76135  0.11453  0.74634  Biso   1.000  O
  O12      1.0000 0.58901  0.90901  0.75017  Biso   1.000  O
  N9       1.0000 0.51130  0.19440  0.96946  Biso   1.000  N
  N10      1.0000 0.88700  0.83490  0.96217  Biso   1.000  N
  N11      1.0000 0.86670  0.17880  0.58055  Biso   1.000  N
  N12      1.0000 0.50631  0.80190  0.58476  Biso   1.000  N
  C73      1.0000 0.47590  0.84000  0.61997  Biso   1.000  C
  H61      1.0000 0.42590  0.83570  0.62350  Biso   1.000  H
  C74      1.0000 0.51440  0.88590  0.65176  Biso   1.000  C
  H62      1.0000 0.49060  0.91010  0.67660  Biso   1.000  H
  C75      1.0000 0.58980  0.89550  0.64626  Biso   1.000  C
  C76      1.0000 0.57880  0.80810  0.58047  Biso   1.000  C
  H63      1.0000 0.60130  0.77980  0.55680  Biso   1.000  H
  C77      1.0000 0.62110  0.85400  0.60923  Biso   1.000  C
  H64      1.0000 0.67090  0.85760  0.60420  Biso   1.000  H
  C78      1.0000 0.51790  0.11800  0.97479  Biso   1.000  C
  H65      1.0000 0.49300  0.09410  0.99920  Biso   1.000  H
  C79      1.0000 0.56020  0.07290  0.94546  Biso   1.000  C
  H66      1.0000 0.56550  0.02030  0.95130  Biso   1.000  H
  C80      1.0000 0.59440  0.10680  0.90770  Biso   1.000  C
  C81      1.0000 0.58640  0.18600  0.90172  Biso   1.000  C
  H67      1.0000 0.60840  0.21100  0.87650  Biso   1.000  H
  C82      1.0000 0.54580  0.22720  0.93346  Biso   1.000  C
  H68      1.0000 0.54220  0.28040  0.92960  Biso   1.000  H
  C83      1.0000 0.64090  0.05820  0.87710  Biso   1.000  C
  C84      1.0000 0.69290  0.01150  0.89933  Biso   1.000  C
  H69      1.0000 0.69680  0.01170  0.93230  Biso   1.000  H
  C85      1.0000 0.73950  0.96430  0.87364  Biso   1.000  C
  C86      1.0000 0.73280  0.96380  0.82426  Biso   1.000  C
  C87      1.0000 0.63590  0.05800  0.82777  Biso   1.000  C
  C88      1.0000 0.68070  0.01140  0.80097  Biso   1.000  C
  C89      1.0000 0.51150  0.08370  0.80876  Biso   1.000  C
  H70      1.0000 0.50060  0.07890  0.84190  Biso   1.000  H
  H71      1.0000 0.48080  0.12240  0.79450  Biso   1.000  H
  H72      1.0000 0.50320  0.03500  0.79320  Biso   1.000  H
  C90      1.0000 0.84770  0.94490  0.79053  Biso   1.000  C
  H73      1.0000 0.87180  0.95180  0.82080  Biso   1.000  H
  H74      1.0000 0.87470  0.90880  0.77190  Biso   1.000  H
  H75      1.0000 0.84500  0.99360  0.77430  Biso   1.000  H
  C91      1.0000 0.79430  0.91820  0.90128  Biso   1.000  C
  C92      1.0000 0.83640  0.95470  0.93649  Biso   1.000  C
  H76      1.0000 0.83400  0.00800  0.94030  Biso   1.000  H
  C93      1.0000 0.88140  0.91150  0.96537  Biso   1.000  C
  H77      1.0000 0.90950  0.93690  0.98840  Biso   1.000  H
  C94      1.0000 0.84820  0.79980  0.92749  Biso   1.000  C
  H78      1.0000 0.85240  0.74650  0.92430  Biso   1.000  H
  C95      1.0000 0.80240  0.83920  0.89616  Biso   1.000  C
  H79      1.0000 0.77750  0.81290  0.87210  Biso   1.000  H
  C96      1.0000 0.67710  0.01020  0.74813  Biso   1.000  C
  C97      1.0000 0.71990  0.06010  0.72193  Biso   1.000  C
  C98      1.0000 0.72330  0.05480  0.67242  Biso   1.000  C
  C99      1.0000 0.67990  0.99940  0.64973  Biso   1.000  C
  H80      1.0000 0.68160  0.99520  0.61680  Biso   1.000  H
  C100     1.0000 0.63420  0.95020  0.67450  Biso   1.000  C
  C101     1.0000 0.63400  0.95550  0.72383  Biso   1.000  C
  C102     1.0000 0.61260  0.83090  0.75511  Biso   1.000  C
  H81      1.0000 0.65750  0.82940  0.77310  Biso   1.000  H
  H82      1.0000 0.57630  0.80160  0.77130  Biso   1.000  H
  H83      1.0000 0.62000  0.80900  0.72420  Biso   1.000  H
  C103     1.0000 0.72810  0.19040  0.74640  Biso   1.000  C
  H84      1.0000 0.68050  0.18710  0.75970  Biso   1.000  H
  H85      1.0000 0.75770  0.22510  0.76510  Biso   1.000  H
  H86      1.0000 0.72420  0.20930  0.71440  Biso   1.000  H
  C104     1.0000 0.77250  0.10220  0.64277  Biso   1.000  C
  C105     1.0000 0.84420  0.12040  0.65663  Biso   1.000  C
  H87      1.0000 0.86170  0.10780  0.68690  Biso   1.000  H
  C106     1.0000 0.88830  0.15730  0.62465  Biso   1.000  C
  H88      1.0000 0.93610  0.16800  0.63410  Biso   1.000  H
  C107     1.0000 0.79720  0.16410  0.56825  Biso   1.000  C
  H89      1.0000 0.78020  0.18060  0.53860  Biso   1.000  H
  C108     1.0000 0.74970  0.12570  0.59741  Biso   1.000  C
  H90      1.0000 0.70240  0.11540  0.58680  Biso   1.000  H
  Cd4      1.0000 0.94030  0.76239  0.02442  Biso   1.000  Cd
  Cl7      1.0000 0.04095  0.87301  0.03146  Biso   1.000  Cl
  Cl8      1.0000 0.84791  0.64990  0.01819  Biso   1.000  Cl
  O13      1.0000 0.08714  0.60575  0.80385  Biso   1.000  O
  O14      1.0000 0.27485  0.41552  0.79757  Biso   1.000  O
  O15      1.0000 0.26135  0.61453  0.74634  Biso   1.000  O
  O16      1.0000 0.08901  0.40901  0.75017  Biso   1.000  O
  N13      1.0000 0.01130  0.69440  0.96946  Biso   1.000  N
  N14      1.0000 0.38700  0.33490  0.96217  Biso   1.000  N
  N15      1.0000 0.36670  0.67880  0.58055  Biso   1.000  N
  N16      1.0000 0.00631  0.30190  0.58476  Biso   1.000  N
  C109     1.0000 0.97590  0.34000  0.61997  Biso   1.000  C
  H91      1.0000 0.92590  0.33570  0.62350  Biso   1.000  H
  C110     1.0000 0.01440  0.38590  0.65176  Biso   1.000  C
  H92      1.0000 0.99060  0.41010  0.67660  Biso   1.000  H
  C111     1.0000 0.08980  0.39550  0.64626  Biso   1.000  C
  C112     1.0000 0.07880  0.30810  0.58047  Biso   1.000  C
  H93      1.0000 0.10130  0.27980  0.55680  Biso   1.000  H
  C113     1.0000 0.12110  0.35400  0.60923  Biso   1.000  C
  H94      1.0000 0.17090  0.35760  0.60420  Biso   1.000  H
  C114     1.0000 0.01790  0.61800  0.97479  Biso   1.000  C
  H95      1.0000 0.99300  0.59410  0.99920  Biso   1.000  H
  C115     1.0000 0.06020  0.57290  0.94546  Biso   1.000  C
  H96      1.0000 0.06550  0.52030  0.95130  Biso   1.000  H
  C116     1.0000 0.09440  0.60680  0.90770  Biso   1.000  C
  C117     1.0000 0.08640  0.68600  0.90172  Biso   1.000  C
  H97      1.0000 0.10840  0.71100  0.87650  Biso   1.000  H
  C118     1.0000 0.04580  0.72720  0.93346  Biso   1.000  C
  H98      1.0000 0.04220  0.78040  0.92960  Biso   1.000  H
  C119     1.0000 0.14090  0.55820  0.87710  Biso   1.000  C
  C120     1.0000 0.19290  0.51150  0.89933  Biso   1.000  C
  H99      1.0000 0.19680  0.51170  0.93230  Biso   1.000  H
  C121     1.0000 0.23950  0.46430  0.87364  Biso   1.000  C
  C122     1.0000 0.23280  0.46380  0.82426  Biso   1.000  C
  C123     1.0000 0.13590  0.55800  0.82777  Biso   1.000  C
  C124     1.0000 0.18070  0.51140  0.80097  Biso   1.000  C
  C125     1.0000 0.01150  0.58370  0.80876  Biso   1.000  C
  H100     1.0000 0.00060  0.57890  0.84190  Biso   1.000  H
  H101     1.0000 0.98080  0.62240  0.79450  Biso   1.000  H
  H102     1.0000 0.00320  0.53500  0.79320  Biso   1.000  H
  C126     1.0000 0.34770  0.44490  0.79053  Biso   1.000  C
  H103     1.0000 0.37180  0.45180  0.82080  Biso   1.000  H
  H104     1.0000 0.37470  0.40880  0.77190  Biso   1.000  H
  H105     1.0000 0.34500  0.49360  0.77430  Biso   1.000  H
  C127     1.0000 0.29430  0.41820  0.90128  Biso   1.000  C
  C128     1.0000 0.33640  0.45470  0.93649  Biso   1.000  C
  H106     1.0000 0.33400  0.50800  0.94030  Biso   1.000  H
  C129     1.0000 0.38140  0.41150  0.96537  Biso   1.000  C
  H107     1.0000 0.40950  0.43690  0.98840  Biso   1.000  H
  C130     1.0000 0.34820  0.29980  0.92749  Biso   1.000  C
  H108     1.0000 0.35240  0.24650  0.92430  Biso   1.000  H
  C131     1.0000 0.30240  0.33920  0.89616  Biso   1.000  C
  H109     1.0000 0.27750  0.31290  0.87210  Biso   1.000  H
  C132     1.0000 0.17710  0.51020  0.74813  Biso   1.000  C
  C133     1.0000 0.21990  0.56010  0.72193  Biso   1.000  C
  C134     1.0000 0.22330  0.55480  0.67242  Biso   1.000  C
  C135     1.0000 0.17990  0.49940  0.64973  Biso   1.000  C
  H110     1.0000 0.18160  0.49520  0.61680  Biso   1.000  H
  C136     1.0000 0.13420  0.45020  0.67450  Biso   1.000  C
  C137     1.0000 0.13400  0.45550  0.72383  Biso   1.000  C
  C138     1.0000 0.11260  0.33090  0.75511  Biso   1.000  C
  H111     1.0000 0.15750  0.32940  0.77310  Biso   1.000  H
  H112     1.0000 0.07630  0.30160  0.77130  Biso   1.000  H
  H113     1.0000 0.12000  0.30900  0.72420  Biso   1.000  H
  C139     1.0000 0.22810  0.69040  0.74640  Biso   1.000  C
  H114     1.0000 0.18050  0.68710  0.75970  Biso   1.000  H
  H115     1.0000 0.25770  0.72510  0.76510  Biso   1.000  H
  H116     1.0000 0.22420  0.70930  0.71440  Biso   1.000  H
  C140     1.0000 0.27250  0.60220  0.64277  Biso   1.000  C
  C141     1.0000 0.34420  0.62040  0.65663  Biso   1.000  C
  H117     1.0000 0.36170  0.60780  0.68690  Biso   1.000  H
  C142     1.0000 0.38830  0.65730  0.62465  Biso   1.000  C
  H118     1.0000 0.43610  0.66800  0.63410  Biso   1.000  H
  C143     1.0000 0.29720  0.66410  0.56825  Biso   1.000  C
  H119     1.0000 0.28020  0.68060  0.53860  Biso   1.000  H
  C144     1.0000 0.24970  0.62570  0.59741  Biso   1.000  C
  H120     1.0000 0.20240  0.61540  0.58680  Biso   1.000  H
  Cd5      1.0000 0.55970  0.73761  0.97558  Biso   1.000  Cd
  Cl9      1.0000 0.45905  0.62699  0.96854  Biso   1.000  Cl
  Cl10     1.0000 0.65209  0.85010  0.98181  Biso   1.000  Cl
  O17      1.0000 0.41286  0.89425  0.19615  Biso   1.000  O
  O18      1.0000 0.22515  0.08448  0.20243  Biso   1.000  O
  O19      1.0000 0.23865  0.88547  0.25366  Biso   1.000  O
  O20      1.0000 0.41099  0.09099  0.24983  Biso   1.000  O
  N17      1.0000 0.48870  0.80560  0.03054  Biso   1.000  N
  N18      1.0000 0.11300  0.16510  0.03783  Biso   1.000  N
  N19      1.0000 0.13330  0.82120  0.41945  Biso   1.000  N
  N20      1.0000 0.49369  0.19810  0.41524  Biso   1.000  N
  C145     1.0000 0.52410  0.16000  0.38003  Biso   1.000  C
  H121     1.0000 0.57410  0.16430  0.37650  Biso   1.000  H
  C146     1.0000 0.48560  0.11410  0.34824  Biso   1.000  C
  H122     1.0000 0.50940  0.08990  0.32340  Biso   1.000  H
  C147     1.0000 0.41020  0.10450  0.35374  Biso   1.000  C
  C148     1.0000 0.42120  0.19190  0.41953  Biso   1.000  C
  H123     1.0000 0.39870  0.22020  0.44320  Biso   1.000  H
  C149     1.0000 0.37890  0.14600  0.39077  Biso   1.000  C
  H124     1.0000 0.32910  0.14240  0.39580  Biso   1.000  H
  C150     1.0000 0.48210  0.88200  0.02521  Biso   1.000  C
  H125     1.0000 0.50700  0.90590  0.00080  Biso   1.000  H
  C151     1.0000 0.43980  0.92710  0.05454  Biso   1.000  C
  H126     1.0000 0.43450  0.97970  0.04870  Biso   1.000  H
  C152     1.0000 0.40560  0.89320  0.09230  Biso   1.000  C
  C153     1.0000 0.41360  0.81400  0.09828  Biso   1.000  C
  H127     1.0000 0.39160  0.78900  0.12350  Biso   1.000  H
  C154     1.0000 0.45420  0.77280  0.06654  Biso   1.000  C
  H128     1.0000 0.45780  0.71960  0.07040  Biso   1.000  H
  C155     1.0000 0.35910  0.94180  0.12290  Biso   1.000  C
  C156     1.0000 0.30710  0.98850  0.10067  Biso   1.000  C
  H129     1.0000 0.30320  0.98830  0.06770  Biso   1.000  H
  C157     1.0000 0.26050  0.03570  0.12636  Biso   1.000  C
  C158     1.0000 0.26720  0.03620  0.17574  Biso   1.000  C
  C159     1.0000 0.36410  0.94200  0.17223  Biso   1.000  C
  C160     1.0000 0.31930  0.98860  0.19903  Biso   1.000  C
  C161     1.0000 0.48850  0.91630  0.19124  Biso   1.000  C
  H130     1.0000 0.49940  0.92110  0.15810  Biso   1.000  H
  H131     1.0000 0.51920  0.87760  0.20550  Biso   1.000  H
  H132     1.0000 0.49680  0.96500  0.20680  Biso   1.000  H
  C162     1.0000 0.15230  0.05510  0.20947  Biso   1.000  C
  H133     1.0000 0.12820  0.04820  0.17920  Biso   1.000  H
  H134     1.0000 0.12530  0.09120  0.22810  Biso   1.000  H
  H135     1.0000 0.15500  0.00640  0.22570  Biso   1.000  H
  C163     1.0000 0.20570  0.08180  0.09872  Biso   1.000  C
  C164     1.0000 0.16360  0.04530  0.06351  Biso   1.000  C
  H136     1.0000 0.16600  0.99200  0.05970  Biso   1.000  H
  C165     1.0000 0.11860  0.08850  0.03463  Biso   1.000  C
  H137     1.0000 0.09050  0.06310  0.01160  Biso   1.000  H
  C166     1.0000 0.15180  0.20020  0.07251  Biso   1.000  C
  H138     1.0000 0.14760  0.25350  0.07570  Biso   1.000  H
  C167     1.0000 0.19760  0.16080  0.10384  Biso   1.000  C
  H139     1.0000 0.22250  0.18710  0.12790  Biso   1.000  H
  C168     1.0000 0.32290  0.98980  0.25187  Biso   1.000  C
  C169     1.0000 0.28010  0.93990  0.27807  Biso   1.000  C
  C170     1.0000 0.27670  0.94520  0.32758  Biso   1.000  C
  C171     1.0000 0.32010  0.00060  0.35027  Biso   1.000  C
  H140     1.0000 0.31840  0.00480  0.38320  Biso   1.000  H
  C172     1.0000 0.36580  0.04980  0.32550  Biso   1.000  C
  C173     1.0000 0.36600  0.04450  0.27617  Biso   1.000  C
  C174     1.0000 0.38740  0.16910  0.24489  Biso   1.000  C
  H141     1.0000 0.34250  0.17060  0.22690  Biso   1.000  H
  H142     1.0000 0.42370  0.19840  0.22870  Biso   1.000  H
  H143     1.0000 0.38000  0.19100  0.27580  Biso   1.000  H
  C175     1.0000 0.27190  0.80960  0.25360  Biso   1.000  C
  H144     1.0000 0.31950  0.81290  0.24030  Biso   1.000  H
  H145     1.0000 0.24230  0.77490  0.23490  Biso   1.000  H
  H146     1.0000 0.27580  0.79070  0.28560  Biso   1.000  H
  C176     1.0000 0.22750  0.89780  0.35723  Biso   1.000  C
  C177     1.0000 0.15580  0.87960  0.34337  Biso   1.000  C
  H147     1.0000 0.13830  0.89220  0.31310  Biso   1.000  H
  C178     1.0000 0.11170  0.84270  0.37535  Biso   1.000  C
  H148     1.0000 0.06390  0.83200  0.36590  Biso   1.000  H
  C179     1.0000 0.20280  0.83590  0.43175  Biso   1.000  C
  H149     1.0000 0.21980  0.81940  0.46140  Biso   1.000  H
  C180     1.0000 0.25030  0.87430  0.40259  Biso   1.000  C
  H150     1.0000 0.29760  0.88460  0.41320  Biso   1.000  H
  Cd6      1.0000 0.05970  0.23761  0.97558  Biso   1.000  Cd
  Cl11     1.0000 0.95905  0.12699  0.96854  Biso   1.000  Cl
  Cl12     1.0000 0.15209  0.35010  0.98181  Biso   1.000  Cl
  O21      1.0000 0.91286  0.39425  0.19615  Biso   1.000  O
  O22      1.0000 0.72515  0.58448  0.20243  Biso   1.000  O
  O23      1.0000 0.73865  0.38547  0.25366  Biso   1.000  O
  O24      1.0000 0.91099  0.59099  0.24983  Biso   1.000  O
  N21      1.0000 0.98870  0.30560  0.03054  Biso   1.000  N
  N22      1.0000 0.61300  0.66510  0.03783  Biso   1.000  N
  N23      1.0000 0.63330  0.32120  0.41945  Biso   1.000  N
  N24      1.0000 0.99369  0.69810  0.41524  Biso   1.000  N
  C181     1.0000 0.02410  0.66000  0.38003  Biso   1.000  C
  H151     1.0000 0.07410  0.66430  0.37650  Biso   1.000  H
  C182     1.0000 0.98560  0.61410  0.34824  Biso   1.000  C
  H152     1.0000 0.00940  0.58990  0.32340  Biso   1.000  H
  C183     1.0000 0.91020  0.60450  0.35374  Biso   1.000  C
  C184     1.0000 0.92120  0.69190  0.41953  Biso   1.000  C
  H153     1.0000 0.89870  0.72020  0.44320  Biso   1.000  H
  C185     1.0000 0.87890  0.64600  0.39077  Biso   1.000  C
  H154     1.0000 0.82910  0.64240  0.39580  Biso   1.000  H
  C186     1.0000 0.98210  0.38200  0.02521  Biso   1.000  C
  H155     1.0000 0.00700  0.40590  0.00080  Biso   1.000  H
  C187     1.0000 0.93980  0.42710  0.05454  Biso   1.000  C
  H156     1.0000 0.93450  0.47970  0.04870  Biso   1.000  H
  C188     1.0000 0.90560  0.39320  0.09230  Biso   1.000  C
  C189     1.0000 0.91360  0.31400  0.09828  Biso   1.000  C
  H157     1.0000 0.89160  0.28900  0.12350  Biso   1.000  H
  C190     1.0000 0.95420  0.27280  0.06654  Biso   1.000  C
  H158     1.0000 0.95780  0.21960  0.07040  Biso   1.000  H
  C191     1.0000 0.85910  0.44180  0.12290  Biso   1.000  C
  C192     1.0000 0.80710  0.48850  0.10067  Biso   1.000  C
  H159     1.0000 0.80320  0.48830  0.06770  Biso   1.000  H
  C193     1.0000 0.76050  0.53570  0.12636  Biso   1.000  C
  C194     1.0000 0.76720  0.53620  0.17574  Biso   1.000  C
  C195     1.0000 0.86410  0.44200  0.17223  Biso   1.000  C
  C196     1.0000 0.81930  0.48860  0.19903  Biso   1.000  C
  C197     1.0000 0.98850  0.41630  0.19124  Biso   1.000  C
  H160     1.0000 0.99940  0.42110  0.15810  Biso   1.000  H
  H161     1.0000 0.01920  0.37760  0.20550  Biso   1.000  H
  H162     1.0000 0.99680  0.46500  0.20680  Biso   1.000  H
  C198     1.0000 0.65230  0.55510  0.20947  Biso   1.000  C
  H163     1.0000 0.62820  0.54820  0.17920  Biso   1.000  H
  H164     1.0000 0.62530  0.59120  0.22810  Biso   1.000  H
  H165     1.0000 0.65500  0.50640  0.22570  Biso   1.000  H
  C199     1.0000 0.70570  0.58180  0.09872  Biso   1.000  C
  C200     1.0000 0.66360  0.54530  0.06351  Biso   1.000  C
  H166     1.0000 0.66600  0.49200  0.05970  Biso   1.000  H
  C201     1.0000 0.61860  0.58850  0.03463  Biso   1.000  C
  H167     1.0000 0.59050  0.56310  0.01160  Biso   1.000  H
  C202     1.0000 0.65180  0.70020  0.07251  Biso   1.000  C
  H168     1.0000 0.64760  0.75350  0.07570  Biso   1.000  H
  C203     1.0000 0.69760  0.66080  0.10384  Biso   1.000  C
  H169     1.0000 0.72250  0.68710  0.12790  Biso   1.000  H
  C204     1.0000 0.82290  0.48980  0.25187  Biso   1.000  C
  C205     1.0000 0.78010  0.43990  0.27807  Biso   1.000  C
  C206     1.0000 0.77670  0.44520  0.32758  Biso   1.000  C
  C207     1.0000 0.82010  0.50060  0.35027  Biso   1.000  C
  H170     1.0000 0.81840  0.50480  0.38320  Biso   1.000  H
  C208     1.0000 0.86580  0.54980  0.32550  Biso   1.000  C
  C209     1.0000 0.86600  0.54450  0.27617  Biso   1.000  C
  C210     1.0000 0.88740  0.66910  0.24489  Biso   1.000  C
  H171     1.0000 0.84250  0.67060  0.22690  Biso   1.000  H
  H172     1.0000 0.92370  0.69840  0.22870  Biso   1.000  H
  H173     1.0000 0.88000  0.69100  0.27580  Biso   1.000  H
  C211     1.0000 0.77190  0.30960  0.25360  Biso   1.000  C
  H174     1.0000 0.81950  0.31290  0.24030  Biso   1.000  H
  H175     1.0000 0.74230  0.27490  0.23490  Biso   1.000  H
  H176     1.0000 0.77580  0.29070  0.28560  Biso   1.000  H
  C212     1.0000 0.72750  0.39780  0.35723  Biso   1.000  C
  C213     1.0000 0.65580  0.37960  0.34337  Biso   1.000  C
  H177     1.0000 0.63830  0.39220  0.31310  Biso   1.000  H
  C214     1.0000 0.61170  0.34270  0.37535  Biso   1.000  C
  H178     1.0000 0.56390  0.33200  0.36590  Biso   1.000  H
  C215     1.0000 0.70280  0.33590  0.43175  Biso   1.000  C
  H179     1.0000 0.71980  0.31940  0.46140  Biso   1.000  H
  C216     1.0000 0.75030  0.37430  0.40259  Biso   1.000  C
  H180     1.0000 0.79760  0.38460  0.41320  Biso   1.000  H
  Cd7      1.0000 0.55970  0.26239  0.47558  Biso   1.000  Cd
  Cl13     1.0000 0.45905  0.37301  0.46854  Biso   1.000  Cl
  Cl14     1.0000 0.65209  0.14990  0.48181  Biso   1.000  Cl
  O25      1.0000 0.41286  0.10575  0.69615  Biso   1.000  O
  O26      1.0000 0.22515  0.91552  0.70243  Biso   1.000  O
  O27      1.0000 0.23865  0.11453  0.75366  Biso   1.000  O
  O28      1.0000 0.41099  0.90901  0.74983  Biso   1.000  O
  N25      1.0000 0.48870  0.19440  0.53054  Biso   1.000  N
  N26      1.0000 0.11300  0.83490  0.53783  Biso   1.000  N
  N27      1.0000 0.13330  0.17880  0.91945  Biso   1.000  N
  N28      1.0000 0.49369  0.80190  0.91524  Biso   1.000  N
  C217     1.0000 0.52410  0.84000  0.88003  Biso   1.000  C
  H181     1.0000 0.57410  0.83570  0.87650  Biso   1.000  H
  C218     1.0000 0.48560  0.88590  0.84824  Biso   1.000  C
  H182     1.0000 0.50940  0.91010  0.82340  Biso   1.000  H
  C219     1.0000 0.41020  0.89550  0.85374  Biso   1.000  C
  C220     1.0000 0.42120  0.80810  0.91953  Biso   1.000  C
  H183     1.0000 0.39870  0.77980  0.94320  Biso   1.000  H
  C221     1.0000 0.37890  0.85400  0.89077  Biso   1.000  C
  H184     1.0000 0.32910  0.85760  0.89580  Biso   1.000  H
  C222     1.0000 0.48210  0.11800  0.52521  Biso   1.000  C
  H185     1.0000 0.50700  0.09410  0.50080  Biso   1.000  H
  C223     1.0000 0.43980  0.07290  0.55454  Biso   1.000  C
  H186     1.0000 0.43450  0.02030  0.54870  Biso   1.000  H
  C224     1.0000 0.40560  0.10680  0.59230  Biso   1.000  C
  C225     1.0000 0.41360  0.18600  0.59828  Biso   1.000  C
  H187     1.0000 0.39160  0.21100  0.62350  Biso   1.000  H
  C226     1.0000 0.45420  0.22720  0.56654  Biso   1.000  C
  H188     1.0000 0.45780  0.28040  0.57040  Biso   1.000  H
  C227     1.0000 0.35910  0.05820  0.62290  Biso   1.000  C
  C228     1.0000 0.30710  0.01150  0.60067  Biso   1.000  C
  H189     1.0000 0.30320  0.01170  0.56770  Biso   1.000  H
  C229     1.0000 0.26050  0.96430  0.62636  Biso   1.000  C
  C230     1.0000 0.26720  0.96380  0.67574  Biso   1.000  C
  C231     1.0000 0.36410  0.05800  0.67223  Biso   1.000  C
  C232     1.0000 0.31930  0.01140  0.69903  Biso   1.000  C
  C233     1.0000 0.48850  0.08370  0.69124  Biso   1.000  C
  H190     1.0000 0.49940  0.07890  0.65810  Biso   1.000  H
  H191     1.0000 0.51920  0.12240  0.70550  Biso   1.000  H
  H192     1.0000 0.49680  0.03500  0.70680  Biso   1.000  H
  C234     1.0000 0.15230  0.94490  0.70947  Biso   1.000  C
  H193     1.0000 0.12820  0.95180  0.67920  Biso   1.000  H
  H194     1.0000 0.12530  0.90880  0.72810  Biso   1.000  H
  H195     1.0000 0.15500  0.99360  0.72570  Biso   1.000  H
  C235     1.0000 0.20570  0.91820  0.59872  Biso   1.000  C
  C236     1.0000 0.16360  0.95470  0.56351  Biso   1.000  C
  H196     1.0000 0.16600  0.00800  0.55970  Biso   1.000  H
  C237     1.0000 0.11860  0.91150  0.53463  Biso   1.000  C
  H197     1.0000 0.09050  0.93690  0.51160  Biso   1.000  H
  C238     1.0000 0.15180  0.79980  0.57251  Biso   1.000  C
  H198     1.0000 0.14760  0.74650  0.57570  Biso   1.000  H
  C239     1.0000 0.19760  0.83920  0.60384  Biso   1.000  C
  H199     1.0000 0.22250  0.81290  0.62790  Biso   1.000  H
  C240     1.0000 0.32290  0.01020  0.75187  Biso   1.000  C
  C241     1.0000 0.28010  0.06010  0.77807  Biso   1.000  C
  C242     1.0000 0.27670  0.05480  0.82758  Biso   1.000  C
  C243     1.0000 0.32010  0.99940  0.85027  Biso   1.000  C
  H200     1.0000 0.31840  0.99520  0.88320  Biso   1.000  H
  C244     1.0000 0.36580  0.95020  0.82550  Biso   1.000  C
  C245     1.0000 0.36600  0.95550  0.77617  Biso   1.000  C
  C246     1.0000 0.38740  0.83090  0.74489  Biso   1.000  C
  H201     1.0000 0.34250  0.82940  0.72690  Biso   1.000  H
  H202     1.0000 0.42370  0.80160  0.72870  Biso   1.000  H
  H203     1.0000 0.38000  0.80900  0.77580  Biso   1.000  H
  C247     1.0000 0.27190  0.19040  0.75360  Biso   1.000  C
  H204     1.0000 0.31950  0.18710  0.74030  Biso   1.000  H
  H205     1.0000 0.24230  0.22510  0.73490  Biso   1.000  H
  H206     1.0000 0.27580  0.20930  0.78560  Biso   1.000  H
  C248     1.0000 0.22750  0.10220  0.85723  Biso   1.000  C
  C249     1.0000 0.15580  0.12040  0.84337  Biso   1.000  C
  H207     1.0000 0.13830  0.10780  0.81310  Biso   1.000  H
  C250     1.0000 0.11170  0.15730  0.87535  Biso   1.000  C
  H208     1.0000 0.06390  0.16800  0.86590  Biso   1.000  H
  C251     1.0000 0.20280  0.16410  0.93175  Biso   1.000  C
  H209     1.0000 0.21980  0.18060  0.96140  Biso   1.000  H
  C252     1.0000 0.25030  0.12570  0.90259  Biso   1.000  C
  H210     1.0000 0.29760  0.11540  0.91320  Biso   1.000  H
  Cd8      1.0000 0.05970  0.76239  0.47558  Biso   1.000  Cd
  Cl15     1.0000 0.95905  0.87301  0.46854  Biso   1.000  Cl
  Cl16     1.0000 0.15209  0.64990  0.48181  Biso   1.000  Cl
  O29      1.0000 0.91286  0.60575  0.69615  Biso   1.000  O
  O30      1.0000 0.72515  0.41552  0.70243  Biso   1.000  O
  O31      1.0000 0.73865  0.61453  0.75366  Biso   1.000  O
  O32      1.0000 0.91099  0.40901  0.74983  Biso   1.000  O
  N29      1.0000 0.98870  0.69440  0.53054  Biso   1.000  N
  N30      1.0000 0.61300  0.33490  0.53783  Biso   1.000  N
  N31      1.0000 0.63330  0.67880  0.91945  Biso   1.000  N
  N32      1.0000 0.99369  0.30190  0.91524  Biso   1.000  N
  C253     1.0000 0.02410  0.34000  0.88003  Biso   1.000  C
  H211     1.0000 0.07410  0.33570  0.87650  Biso   1.000  H
  C254     1.0000 0.98560  0.38590  0.84824  Biso   1.000  C
  H212     1.0000 0.00940  0.41010  0.82340  Biso   1.000  H
  C255     1.0000 0.91020  0.39550  0.85374  Biso   1.000  C
  C256     1.0000 0.92120  0.30810  0.91953  Biso   1.000  C
  H213     1.0000 0.89870  0.27980  0.94320  Biso   1.000  H
  C257     1.0000 0.87890  0.35400  0.89077  Biso   1.000  C
  H214     1.0000 0.82910  0.35760  0.89580  Biso   1.000  H
  C258     1.0000 0.98210  0.61800  0.52521  Biso   1.000  C
  H215     1.0000 0.00700  0.59410  0.50080  Biso   1.000  H
  C259     1.0000 0.93980  0.57290  0.55454  Biso   1.000  C
  H216     1.0000 0.93450  0.52030  0.54870  Biso   1.000  H
  C260     1.0000 0.90560  0.60680  0.59230  Biso   1.000  C
  C261     1.0000 0.91360  0.68600  0.59828  Biso   1.000  C
  H217     1.0000 0.89160  0.71100  0.62350  Biso   1.000  H
  C262     1.0000 0.95420  0.72720  0.56654  Biso   1.000  C
  H218     1.0000 0.95780  0.78040  0.57040  Biso   1.000  H
  C263     1.0000 0.85910  0.55820  0.62290  Biso   1.000  C
  C264     1.0000 0.80710  0.51150  0.60067  Biso   1.000  C
  H219     1.0000 0.80320  0.51170  0.56770  Biso   1.000  H
  C265     1.0000 0.76050  0.46430  0.62636  Biso   1.000  C
  C266     1.0000 0.76720  0.46380  0.67574  Biso   1.000  C
  C267     1.0000 0.86410  0.55800  0.67223  Biso   1.000  C
  C268     1.0000 0.81930  0.51140  0.69903  Biso   1.000  C
  C269     1.0000 0.98850  0.58370  0.69124  Biso   1.000  C
  H220     1.0000 0.99940  0.57890  0.65810  Biso   1.000  H
  H221     1.0000 0.01920  0.62240  0.70550  Biso   1.000  H
  H222     1.0000 0.99680  0.53500  0.70680  Biso   1.000  H
  C270     1.0000 0.65230  0.44490  0.70947  Biso   1.000  C
  H223     1.0000 0.62820  0.45180  0.67920  Biso   1.000  H
  H224     1.0000 0.62530  0.40880  0.72810  Biso   1.000  H
  H225     1.0000 0.65500  0.49360  0.72570  Biso   1.000  H
  C271     1.0000 0.70570  0.41820  0.59872  Biso   1.000  C
  C272     1.0000 0.66360  0.45470  0.56351  Biso   1.000  C
  H226     1.0000 0.66600  0.50800  0.55970  Biso   1.000  H
  C273     1.0000 0.61860  0.41150  0.53463  Biso   1.000  C
  H227     1.0000 0.59050  0.43690  0.51160  Biso   1.000  H
  C274     1.0000 0.65180  0.29980  0.57251  Biso   1.000  C
  H228     1.0000 0.64760  0.24650  0.57570  Biso   1.000  H
  C275     1.0000 0.69760  0.33920  0.60384  Biso   1.000  C
  H229     1.0000 0.72250  0.31290  0.62790  Biso   1.000  H
  C276     1.0000 0.82290  0.51020  0.75187  Biso   1.000  C
  C277     1.0000 0.78010  0.56010  0.77807  Biso   1.000  C
  C278     1.0000 0.77670  0.55480  0.82758  Biso   1.000  C
  C279     1.0000 0.82010  0.49940  0.85027  Biso   1.000  C
  H230     1.0000 0.81840  0.49520  0.88320  Biso   1.000  H
  C280     1.0000 0.86580  0.45020  0.82550  Biso   1.000  C
  C281     1.0000 0.86600  0.45550  0.77617  Biso   1.000  C
  C282     1.0000 0.88740  0.33090  0.74489  Biso   1.000  C
  H231     1.0000 0.84250  0.32940  0.72690  Biso   1.000  H
  H232     1.0000 0.92370  0.30160  0.72870  Biso   1.000  H
  H233     1.0000 0.88000  0.30900  0.77580  Biso   1.000  H
  C283     1.0000 0.77190  0.69040  0.75360  Biso   1.000  C
  H234     1.0000 0.81950  0.68710  0.74030  Biso   1.000  H
  H235     1.0000 0.74230  0.72510  0.73490  Biso   1.000  H
  H236     1.0000 0.77580  0.70930  0.78560  Biso   1.000  H
  C284     1.0000 0.72750  0.60220  0.85723  Biso   1.000  C
  C285     1.0000 0.65580  0.62040  0.84337  Biso   1.000  C
  H237     1.0000 0.63830  0.60780  0.81310  Biso   1.000  H
  C286     1.0000 0.61170  0.65730  0.87535  Biso   1.000  C
  H238     1.0000 0.56390  0.66800  0.86590  Biso   1.000  H
  C287     1.0000 0.70280  0.66410  0.93175  Biso   1.000  C
  H239     1.0000 0.71980  0.68060  0.96140  Biso   1.000  H
  C288     1.0000 0.75030  0.62570  0.90259  Biso   1.000  C
  H240     1.0000 0.79760  0.61540  0.91320  Biso   1.000  H
