data_image0
_cell_length_a       17.098
_cell_length_b       26.435
_cell_length_c       12.838
_cell_angle_alpha    90
_cell_angle_beta     129.166
_cell_angle_gamma    90

_symmetry_space_group_name_H-M    "P 1"
_symmetry_int_tables_number       1

loop_
  _symmetry_equiv_pos_as_xyz
  'x, y, z'

loop_
  _atom_site_label
  _atom_site_occupancy
  _atom_site_fract_x
  _atom_site_fract_y
  _atom_site_fract_z
  _atom_site_thermal_displace_type
  _atom_site_B_iso_or_equiv
  _atom_site_type_symbol
  O1       1.0000 0.17940  0.81790  0.40820  Biso   1.000  O
  O2       1.0000 0.01650  0.76190  0.08020  Biso   1.000  O
  N1       1.0000 0.35820  0.98590  0.60520  Biso   1.000  N
  N2       1.0000 0.01070  0.58790  0.89660  Biso   1.000  N
  C1       1.0000 0.35320  0.95050  0.52730  Biso   1.000  C
  H1       1.0000 0.40900  0.94580  0.53150  Biso   1.000  H
  C2       1.0000 0.26810  0.92000  0.43920  Biso   1.000  C
  H2       1.0000 0.26830  0.89570  0.38700  Biso   1.000  H
  C3       1.0000 0.18520  0.92630  0.43070  Biso   1.000  C
  C4       1.0000 0.19010  0.96440  0.50920  Biso   1.000  C
  H3       1.0000 0.13410  0.97110  0.50340  Biso   1.000  H
  C5       1.0000 0.27560  0.99210  0.59420  Biso   1.000  C
  H4       1.0000 0.27670  0.01660  0.64720  Biso   1.000  H
  C6       1.0000 0.09090  0.89730  0.33470  Biso   1.000  C
  C7       1.0000 0.09000  0.84460  0.33150  Biso   1.000  C
  C8       1.0000 0.00890  0.73520  0.16320  Biso   1.000  C
  C9       1.0000 0.11660  0.76330  0.12020  Biso   1.000  C
  H5       1.0000 0.16300  0.77660  0.20960  Biso   1.000  H
  H6       1.0000 0.11650  0.78450  0.05940  Biso   1.000  H
  H7       1.0000 0.13680  0.72970  0.11810  Biso   1.000  H
  C10      1.0000 0.21880  0.80910  0.54330  Biso   1.000  C
  H8       1.0000 0.23460  0.84080  0.58900  Biso   1.000  H
  H9       1.0000 0.27880  0.78890  0.58890  Biso   1.000  H
  H10      1.0000 0.16940  0.79150  0.54290  Biso   1.000  H
  C11      1.0000 0.07550  0.58120  0.02820  Biso   1.000  C
  H11      1.0000 0.12030  0.55420  0.06240  Biso   1.000  H
  C12      1.0000 0.07880  0.61180  0.11410  Biso   1.000  C
  H12      1.0000 0.12730  0.60600  0.20590  Biso   1.000  H
  C13      1.0000 0.01290  0.65160  0.07170  Biso   1.000  C
  C14      1.0000 0.94690  0.66010  0.93110  Biso   1.000  C
  H13      1.0000 0.90300  0.68760  0.89460  Biso   1.000  H
  C15      1.0000 0.94860  0.62770  0.85000  Biso   1.000  C
  H14      1.0000 0.90440  0.63340  0.75780  Biso   1.000  H
  C16      1.0000 0.00790  0.68210  0.16330  Biso   1.000  C
  O3       1.0000 0.67940  0.31790  0.40820  Biso   1.000  O
  O4       1.0000 0.51650  0.26190  0.08020  Biso   1.000  O
  N3       1.0000 0.85820  0.48590  0.60520  Biso   1.000  N
  N4       1.0000 0.51070  0.08790  0.89660  Biso   1.000  N
  C17      1.0000 0.85320  0.45050  0.52730  Biso   1.000  C
  H15      1.0000 0.90900  0.44580  0.53150  Biso   1.000  H
  C18      1.0000 0.76810  0.42000  0.43920  Biso   1.000  C
  H16      1.0000 0.76830  0.39570  0.38700  Biso   1.000  H
  C19      1.0000 0.68520  0.42630  0.43070  Biso   1.000  C
  C20      1.0000 0.69010  0.46440  0.50920  Biso   1.000  C
  H17      1.0000 0.63410  0.47110  0.50340  Biso   1.000  H
  C21      1.0000 0.77560  0.49210  0.59420  Biso   1.000  C
  H18      1.0000 0.77670  0.51660  0.64720  Biso   1.000  H
  C22      1.0000 0.59090  0.39730  0.33470  Biso   1.000  C
  C23      1.0000 0.59000  0.34460  0.33150  Biso   1.000  C
  C24      1.0000 0.50890  0.23520  0.16320  Biso   1.000  C
  C25      1.0000 0.61660  0.26330  0.12020  Biso   1.000  C
  H19      1.0000 0.66300  0.27660  0.20960  Biso   1.000  H
  H20      1.0000 0.61650  0.28450  0.05940  Biso   1.000  H
  H21      1.0000 0.63680  0.22970  0.11810  Biso   1.000  H
  C26      1.0000 0.71880  0.30910  0.54330  Biso   1.000  C
  H22      1.0000 0.73460  0.34080  0.58900  Biso   1.000  H
  H23      1.0000 0.77880  0.28890  0.58890  Biso   1.000  H
  H24      1.0000 0.66940  0.29150  0.54290  Biso   1.000  H
  C27      1.0000 0.57550  0.08120  0.02820  Biso   1.000  C
  H25      1.0000 0.62030  0.05420  0.06240  Biso   1.000  H
  C28      1.0000 0.57880  0.11180  0.11410  Biso   1.000  C
  H26      1.0000 0.62730  0.10600  0.20590  Biso   1.000  H
  C29      1.0000 0.51290  0.15160  0.07170  Biso   1.000  C
  C30      1.0000 0.44690  0.16010  0.93110  Biso   1.000  C
  H27      1.0000 0.40300  0.18760  0.89460  Biso   1.000  H
  C31      1.0000 0.44860  0.12770  0.85000  Biso   1.000  C
  H28      1.0000 0.40440  0.13340  0.75780  Biso   1.000  H
  C32      1.0000 0.50790  0.18210  0.16330  Biso   1.000  C
  O5       1.0000 0.82060  0.81790  0.09180  Biso   1.000  O
  O6       1.0000 0.98350  0.76190  0.41980  Biso   1.000  O
  N5       1.0000 0.64180  0.98590  0.89480  Biso   1.000  N
  N6       1.0000 0.98930  0.58790  0.60340  Biso   1.000  N
  C33      1.0000 0.64680  0.95050  0.97270  Biso   1.000  C
  H29      1.0000 0.59100  0.94580  0.96850  Biso   1.000  H
  C34      1.0000 0.73190  0.92000  0.06080  Biso   1.000  C
  H30      1.0000 0.73170  0.89570  0.11300  Biso   1.000  H
  C35      1.0000 0.81480  0.92630  0.06930  Biso   1.000  C
  C36      1.0000 0.80990  0.96440  0.99080  Biso   1.000  C
  H31      1.0000 0.86590  0.97110  0.99660  Biso   1.000  H
  C37      1.0000 0.72440  0.99210  0.90580  Biso   1.000  C
  H32      1.0000 0.72330  0.01660  0.85280  Biso   1.000  H
  C38      1.0000 0.90910  0.89730  0.16530  Biso   1.000  C
  C39      1.0000 0.91000  0.84460  0.16850  Biso   1.000  C
  C40      1.0000 0.99110  0.73520  0.33680  Biso   1.000  C
  C41      1.0000 0.88340  0.76330  0.37980  Biso   1.000  C
  H33      1.0000 0.83700  0.77660  0.29040  Biso   1.000  H
  H34      1.0000 0.88350  0.78450  0.44060  Biso   1.000  H
  H35      1.0000 0.86320  0.72970  0.38190  Biso   1.000  H
  C42      1.0000 0.78120  0.80910  0.95670  Biso   1.000  C
  H36      1.0000 0.76540  0.84080  0.91100  Biso   1.000  H
  H37      1.0000 0.72120  0.78890  0.91110  Biso   1.000  H
  H38      1.0000 0.83060  0.79150  0.95710  Biso   1.000  H
  C43      1.0000 0.92450  0.58120  0.47180  Biso   1.000  C
  H39      1.0000 0.87970  0.55420  0.43760  Biso   1.000  H
  C44      1.0000 0.92120  0.61180  0.38590  Biso   1.000  C
  H40      1.0000 0.87270  0.60600  0.29410  Biso   1.000  H
  C45      1.0000 0.98710  0.65160  0.42830  Biso   1.000  C
  C46      1.0000 0.05310  0.66010  0.56890  Biso   1.000  C
  H41      1.0000 0.09700  0.68760  0.60540  Biso   1.000  H
  C47      1.0000 0.05140  0.62770  0.65000  Biso   1.000  C
  H42      1.0000 0.09560  0.63340  0.74220  Biso   1.000  H
  C48      1.0000 0.99210  0.68210  0.33670  Biso   1.000  C
  O7       1.0000 0.32060  0.31790  0.09180  Biso   1.000  O
  O8       1.0000 0.48350  0.26190  0.41980  Biso   1.000  O
  N7       1.0000 0.14180  0.48590  0.89480  Biso   1.000  N
  N8       1.0000 0.48930  0.08790  0.60340  Biso   1.000  N
  C49      1.0000 0.14680  0.45050  0.97270  Biso   1.000  C
  H43      1.0000 0.09100  0.44580  0.96850  Biso   1.000  H
  C50      1.0000 0.23190  0.42000  0.06080  Biso   1.000  C
  H44      1.0000 0.23170  0.39570  0.11300  Biso   1.000  H
  C51      1.0000 0.31480  0.42630  0.06930  Biso   1.000  C
  C52      1.0000 0.30990  0.46440  0.99080  Biso   1.000  C
  H45      1.0000 0.36590  0.47110  0.99660  Biso   1.000  H
  C53      1.0000 0.22440  0.49210  0.90580  Biso   1.000  C
  H46      1.0000 0.22330  0.51660  0.85280  Biso   1.000  H
  C54      1.0000 0.40910  0.39730  0.16530  Biso   1.000  C
  C55      1.0000 0.41000  0.34460  0.16850  Biso   1.000  C
  C56      1.0000 0.49110  0.23520  0.33680  Biso   1.000  C
  C57      1.0000 0.38340  0.26330  0.37980  Biso   1.000  C
  H47      1.0000 0.33700  0.27660  0.29040  Biso   1.000  H
  H48      1.0000 0.38350  0.28450  0.44060  Biso   1.000  H
  H49      1.0000 0.36320  0.22970  0.38190  Biso   1.000  H
  C58      1.0000 0.28120  0.30910  0.95670  Biso   1.000  C
  H50      1.0000 0.26540  0.34080  0.91100  Biso   1.000  H
  H51      1.0000 0.22120  0.28890  0.91110  Biso   1.000  H
  H52      1.0000 0.33060  0.29150  0.95710  Biso   1.000  H
  C59      1.0000 0.42450  0.08120  0.47180  Biso   1.000  C
  H53      1.0000 0.37970  0.05420  0.43760  Biso   1.000  H
  C60      1.0000 0.42120  0.11180  0.38590  Biso   1.000  C
  H54      1.0000 0.37270  0.10600  0.29410  Biso   1.000  H
  C61      1.0000 0.48710  0.15160  0.42830  Biso   1.000  C
  C62      1.0000 0.55310  0.16010  0.56890  Biso   1.000  C
  H55      1.0000 0.59700  0.18760  0.60540  Biso   1.000  H
  C63      1.0000 0.55140  0.12770  0.65000  Biso   1.000  C
  H56      1.0000 0.59560  0.13340  0.74220  Biso   1.000  H
  C64      1.0000 0.49210  0.18210  0.33670  Biso   1.000  C
  Ag1      1.0000 0.50000  0.03243  0.75000  Biso   1.000  Ag
  Ag2      1.0000 0.00000  0.53243  0.75000  Biso   1.000  Ag
  C65      1.0000 0.00000  0.92240  0.25000  Biso   1.000  C
  H57      1.0000 0.00000  0.95760  0.25000  Biso   1.000  H
  C66      1.0000 0.00000  0.81730  0.25000  Biso   1.000  C
  C67      1.0000 0.00000  0.76050  0.25000  Biso   1.000  C
  C68      1.0000 0.00000  0.65840  0.25000  Biso   1.000  C
  H58      1.0000 0.00000  0.62320  0.25000  Biso   1.000  H
  C69      1.0000 0.50000  0.42240  0.25000  Biso   1.000  C
  H59      1.0000 0.50000  0.45760  0.25000  Biso   1.000  H
  C70      1.0000 0.50000  0.31730  0.25000  Biso   1.000  C
  C71      1.0000 0.50000  0.26050  0.25000  Biso   1.000  C
  C72      1.0000 0.50000  0.15840  0.25000  Biso   1.000  C
  H60      1.0000 0.50000  0.12320  0.25000  Biso   1.000  H
  O9       1.0000 0.82060  0.18210  0.59180  Biso   1.000  O
  O10      1.0000 0.98350  0.23810  0.91980  Biso   1.000  O
  N9       1.0000 0.64180  0.01410  0.39480  Biso   1.000  N
  N10      1.0000 0.98930  0.41210  0.10340  Biso   1.000  N
  C73      1.0000 0.64680  0.04950  0.47270  Biso   1.000  C
  H61      1.0000 0.59100  0.05420  0.46850  Biso   1.000  H
  C74      1.0000 0.73190  0.08000  0.56080  Biso   1.000  C
  H62      1.0000 0.73170  0.10430  0.61300  Biso   1.000  H
  C75      1.0000 0.81480  0.07370  0.56930  Biso   1.000  C
  C76      1.0000 0.80990  0.03560  0.49080  Biso   1.000  C
  H63      1.0000 0.86590  0.02890  0.49660  Biso   1.000  H
  C77      1.0000 0.72440  0.00790  0.40580  Biso   1.000  C
  H64      1.0000 0.72330  0.98340  0.35280  Biso   1.000  H
  C78      1.0000 0.90910  0.10270  0.66530  Biso   1.000  C
  C79      1.0000 0.91000  0.15540  0.66850  Biso   1.000  C
  C80      1.0000 0.99110  0.26480  0.83680  Biso   1.000  C
  C81      1.0000 0.88340  0.23670  0.87980  Biso   1.000  C
  H65      1.0000 0.83700  0.22340  0.79040  Biso   1.000  H
  H66      1.0000 0.88350  0.21550  0.94060  Biso   1.000  H
  H67      1.0000 0.86320  0.27030  0.88190  Biso   1.000  H
  C82      1.0000 0.78120  0.19090  0.45670  Biso   1.000  C
  H68      1.0000 0.76540  0.15920  0.41100  Biso   1.000  H
  H69      1.0000 0.72120  0.21110  0.41110  Biso   1.000  H
  H70      1.0000 0.83060  0.20850  0.45710  Biso   1.000  H
  C83      1.0000 0.92450  0.41880  0.97180  Biso   1.000  C
  H71      1.0000 0.87970  0.44580  0.93760  Biso   1.000  H
  C84      1.0000 0.92120  0.38820  0.88590  Biso   1.000  C
  H72      1.0000 0.87270  0.39400  0.79410  Biso   1.000  H
  C85      1.0000 0.98710  0.34840  0.92830  Biso   1.000  C
  C86      1.0000 0.05310  0.33990  0.06890  Biso   1.000  C
  H73      1.0000 0.09700  0.31240  0.10540  Biso   1.000  H
  C87      1.0000 0.05140  0.37230  0.15000  Biso   1.000  C
  H74      1.0000 0.09560  0.36660  0.24220  Biso   1.000  H
  C88      1.0000 0.99210  0.31790  0.83670  Biso   1.000  C
  O11      1.0000 0.32060  0.68210  0.59180  Biso   1.000  O
  O12      1.0000 0.48350  0.73810  0.91980  Biso   1.000  O
  N11      1.0000 0.14180  0.51410  0.39480  Biso   1.000  N
  N12      1.0000 0.48930  0.91210  0.10340  Biso   1.000  N
  C89      1.0000 0.14680  0.54950  0.47270  Biso   1.000  C
  H75      1.0000 0.09100  0.55420  0.46850  Biso   1.000  H
  C90      1.0000 0.23190  0.58000  0.56080  Biso   1.000  C
  H76      1.0000 0.23170  0.60430  0.61300  Biso   1.000  H
  C91      1.0000 0.31480  0.57370  0.56930  Biso   1.000  C
  C92      1.0000 0.30990  0.53560  0.49080  Biso   1.000  C
  H77      1.0000 0.36590  0.52890  0.49660  Biso   1.000  H
  C93      1.0000 0.22440  0.50790  0.40580  Biso   1.000  C
  H78      1.0000 0.22330  0.48340  0.35280  Biso   1.000  H
  C94      1.0000 0.40910  0.60270  0.66530  Biso   1.000  C
  C95      1.0000 0.41000  0.65540  0.66850  Biso   1.000  C
  C96      1.0000 0.49110  0.76480  0.83680  Biso   1.000  C
  C97      1.0000 0.38340  0.73670  0.87980  Biso   1.000  C
  H79      1.0000 0.33700  0.72340  0.79040  Biso   1.000  H
  H80      1.0000 0.38350  0.71550  0.94060  Biso   1.000  H
  H81      1.0000 0.36320  0.77030  0.88190  Biso   1.000  H
  C98      1.0000 0.28120  0.69090  0.45670  Biso   1.000  C
  H82      1.0000 0.26540  0.65920  0.41100  Biso   1.000  H
  H83      1.0000 0.22120  0.71110  0.41110  Biso   1.000  H
  H84      1.0000 0.33060  0.70850  0.45710  Biso   1.000  H
  C99      1.0000 0.42450  0.91880  0.97180  Biso   1.000  C
  H85      1.0000 0.37970  0.94580  0.93760  Biso   1.000  H
  C100     1.0000 0.42120  0.88820  0.88590  Biso   1.000  C
  H86      1.0000 0.37270  0.89400  0.79410  Biso   1.000  H
  C101     1.0000 0.48710  0.84840  0.92830  Biso   1.000  C
  C102     1.0000 0.55310  0.83990  0.06890  Biso   1.000  C
  H87      1.0000 0.59700  0.81240  0.10540  Biso   1.000  H
  C103     1.0000 0.55140  0.87230  0.15000  Biso   1.000  C
  H88      1.0000 0.59560  0.86660  0.24220  Biso   1.000  H
  C104     1.0000 0.49210  0.81790  0.83670  Biso   1.000  C
  O13      1.0000 0.17940  0.18210  0.90820  Biso   1.000  O
  O14      1.0000 0.01650  0.23810  0.58020  Biso   1.000  O
  N13      1.0000 0.35820  0.01410  0.10520  Biso   1.000  N
  N14      1.0000 0.01070  0.41210  0.39660  Biso   1.000  N
  C105     1.0000 0.35320  0.04950  0.02730  Biso   1.000  C
  H89      1.0000 0.40900  0.05420  0.03150  Biso   1.000  H
  C106     1.0000 0.26810  0.08000  0.93920  Biso   1.000  C
  H90      1.0000 0.26830  0.10430  0.88700  Biso   1.000  H
  C107     1.0000 0.18520  0.07370  0.93070  Biso   1.000  C
  C108     1.0000 0.19010  0.03560  0.00920  Biso   1.000  C
  H91      1.0000 0.13410  0.02890  0.00340  Biso   1.000  H
  C109     1.0000 0.27560  0.00790  0.09420  Biso   1.000  C
  H92      1.0000 0.27670  0.98340  0.14720  Biso   1.000  H
  C110     1.0000 0.09090  0.10270  0.83470  Biso   1.000  C
  C111     1.0000 0.09000  0.15540  0.83150  Biso   1.000  C
  C112     1.0000 0.00890  0.26480  0.66320  Biso   1.000  C
  C113     1.0000 0.11660  0.23670  0.62020  Biso   1.000  C
  H93      1.0000 0.16300  0.22340  0.70960  Biso   1.000  H
  H94      1.0000 0.11650  0.21550  0.55940  Biso   1.000  H
  H95      1.0000 0.13680  0.27030  0.61810  Biso   1.000  H
  C114     1.0000 0.21880  0.19090  0.04330  Biso   1.000  C
  H96      1.0000 0.23460  0.15920  0.08900  Biso   1.000  H
  H97      1.0000 0.27880  0.21110  0.08890  Biso   1.000  H
  H98      1.0000 0.16940  0.20850  0.04290  Biso   1.000  H
  C115     1.0000 0.07550  0.41880  0.52820  Biso   1.000  C
  H99      1.0000 0.12030  0.44580  0.56240  Biso   1.000  H
  C116     1.0000 0.07880  0.38820  0.61410  Biso   1.000  C
  H100     1.0000 0.12730  0.39400  0.70590  Biso   1.000  H
  C117     1.0000 0.01290  0.34840  0.57170  Biso   1.000  C
  C118     1.0000 0.94690  0.33990  0.43110  Biso   1.000  C
  H101     1.0000 0.90300  0.31240  0.39460  Biso   1.000  H
  C119     1.0000 0.94860  0.37230  0.35000  Biso   1.000  C
  H102     1.0000 0.90440  0.36660  0.25780  Biso   1.000  H
  C120     1.0000 0.00790  0.31790  0.66330  Biso   1.000  C
  O15      1.0000 0.67940  0.68210  0.90820  Biso   1.000  O
  O16      1.0000 0.51650  0.73810  0.58020  Biso   1.000  O
  N15      1.0000 0.85820  0.51410  0.10520  Biso   1.000  N
  N16      1.0000 0.51070  0.91210  0.39660  Biso   1.000  N
  C121     1.0000 0.85320  0.54950  0.02730  Biso   1.000  C
  H103     1.0000 0.90900  0.55420  0.03150  Biso   1.000  H
  C122     1.0000 0.76810  0.58000  0.93920  Biso   1.000  C
  H104     1.0000 0.76830  0.60430  0.88700  Biso   1.000  H
  C123     1.0000 0.68520  0.57370  0.93070  Biso   1.000  C
  C124     1.0000 0.69010  0.53560  0.00920  Biso   1.000  C
  H105     1.0000 0.63410  0.52890  0.00340  Biso   1.000  H
  C125     1.0000 0.77560  0.50790  0.09420  Biso   1.000  C
  H106     1.0000 0.77670  0.48340  0.14720  Biso   1.000  H
  C126     1.0000 0.59090  0.60270  0.83470  Biso   1.000  C
  C127     1.0000 0.59000  0.65540  0.83150  Biso   1.000  C
  C128     1.0000 0.50890  0.76480  0.66320  Biso   1.000  C
  C129     1.0000 0.61660  0.73670  0.62020  Biso   1.000  C
  H107     1.0000 0.66300  0.72340  0.70960  Biso   1.000  H
  H108     1.0000 0.61650  0.71550  0.55940  Biso   1.000  H
  H109     1.0000 0.63680  0.77030  0.61810  Biso   1.000  H
  C130     1.0000 0.71880  0.69090  0.04330  Biso   1.000  C
  H110     1.0000 0.73460  0.65920  0.08900  Biso   1.000  H
  H111     1.0000 0.77880  0.71110  0.08890  Biso   1.000  H
  H112     1.0000 0.66940  0.70850  0.04290  Biso   1.000  H
  C131     1.0000 0.57550  0.91880  0.52820  Biso   1.000  C
  H113     1.0000 0.62030  0.94580  0.56240  Biso   1.000  H
  C132     1.0000 0.57880  0.88820  0.61410  Biso   1.000  C
  H114     1.0000 0.62730  0.89400  0.70590  Biso   1.000  H
  C133     1.0000 0.51290  0.84840  0.57170  Biso   1.000  C
  C134     1.0000 0.44690  0.83990  0.43110  Biso   1.000  C
  H115     1.0000 0.40300  0.81240  0.39460  Biso   1.000  H
  C135     1.0000 0.44860  0.87230  0.35000  Biso   1.000  C
  H116     1.0000 0.40440  0.86660  0.25780  Biso   1.000  H
  C136     1.0000 0.50790  0.81790  0.66330  Biso   1.000  C
  Ag3      1.0000 0.50000  0.96757  0.25000  Biso   1.000  Ag
  Ag4      1.0000 0.00000  0.46757  0.25000  Biso   1.000  Ag
  C137     1.0000 0.00000  0.07760  0.75000  Biso   1.000  C
  H117     1.0000 0.00000  0.04240  0.75000  Biso   1.000  H
  C138     1.0000 0.00000  0.18270  0.75000  Biso   1.000  C
  C139     1.0000 0.00000  0.23950  0.75000  Biso   1.000  C
  C140     1.0000 0.00000  0.34160  0.75000  Biso   1.000  C
  H118     1.0000 0.00000  0.37680  0.75000  Biso   1.000  H
  C141     1.0000 0.50000  0.57760  0.75000  Biso   1.000  C
  H119     1.0000 0.50000  0.54240  0.75000  Biso   1.000  H
  C142     1.0000 0.50000  0.68270  0.75000  Biso   1.000  C
  C143     1.0000 0.50000  0.73950  0.75000  Biso   1.000  C
  C144     1.0000 0.50000  0.84160  0.75000  Biso   1.000  C
  H120     1.0000 0.50000  0.87680  0.75000  Biso   1.000  H
