data_KUBQAA_charged
_audit_creation_date              2014-07-02
_audit_creation_method            'Materials Studio'
_symmetry_space_group_name_H-M    'P1'
_symmetry_Int_Tables_number       1
_symmetry_cell_setting            triclinic
loop_
_symmetry_equiv_pos_as_xyz
  x,y,z
_cell_length_a                    17.9398
_cell_length_b                    19.7466
_cell_length_c                    25.7517
_cell_angle_alpha                 104.0530
_cell_angle_beta                  101.1610
_cell_angle_gamma                 113.8050
loop_
_atom_site_label
_atom_site_type_symbol
_atom_site_fract_x
_atom_site_fract_y
_atom_site_fract_z
_atom_site_U_iso_or_equiv
_atom_site_adp_type
_atom_site_occupancy
Cu1    Cu    0.95829   0.97425   0.13992   0.01267  Uiso   1.00
Cu2    Cu    0.76025   0.52331   0.35112   0.01267  Uiso   1.00
Cu3    Cu    0.29461   0.09124   0.37036   0.01267  Uiso   1.00
Cu4    Cu    0.89199   0.43392   0.14346   0.01267  Uiso   1.00
Cu5    Cu    0.31837   0.83433   0.86008   0.01267  Uiso   1.00
Cu6    Cu    0.90913   0.17219   0.64888   0.01267  Uiso   1.00
Cu7    Cu    0.42425   0.72088   0.62964   0.01267  Uiso   1.00
Cu8    Cu    0.24853   0.29046   0.85654   0.01267  Uiso   1.00
P1     P     0.02570   0.09578   0.20112   0.01267  Uiso   1.00
P2     P     0.30244   0.14922   0.30750   0.01267  Uiso   1.00
P3     P     0.68639   0.40092   0.29210   0.01267  Uiso   1.00
P4     P     0.87372   0.36103   0.19682   0.01267  Uiso   1.00
P5     P     0.32458   0.89466   0.79888   0.01267  Uiso   1.00
P6     P     0.49494   0.84172   0.69250   0.01267  Uiso   1.00
P7     P     0.89429   0.10882   0.70790   0.01267  Uiso   1.00
P8     P     0.17690   0.16421   0.80318   0.01267  Uiso   1.00
H1     H     0.88170   0.98140   0.02700   0.01267  Uiso   1.00
H2     H     0.74940   0.94320   0.96400   0.01267  Uiso   1.00
H3     H     0.63530   0.82690   0.05780   0.01267  Uiso   1.00
H4     H     0.76890   0.87090   0.12180   0.01267  Uiso   1.00
H5     H     0.48480   0.84890   0.84700   0.01267  Uiso   1.00
H6     H     0.61140   0.85950   0.89260   0.01267  Uiso   1.00
H7     H     0.53350   0.86480   0.02980   0.01267  Uiso   1.00
H8     H     0.40790   0.84800   0.97580   0.01267  Uiso   1.00
H9     H     0.93430   0.96030   0.25260   0.01267  Uiso   1.00
H10    H     0.89040   0.86930   0.29400   0.01267  Uiso   1.00
H11    H     0.85940   0.70400   0.15280   0.01267  Uiso   1.00
H12    H     0.90340   0.80180   0.11420   0.01267  Uiso   1.00
H13    H     0.88010   0.69370   0.37780   0.01267  Uiso   1.00
H14    H     0.92560   0.78880   0.33640   0.01267  Uiso   1.00
H15    H     0.75700   0.61920   0.18600   0.01267  Uiso   1.00
H16    H     0.71910   0.53100   0.23080   0.01267  Uiso   1.00
H17    H     0.67850   0.63180   0.36500   0.01267  Uiso   1.00
H18    H     0.60900   0.67230   0.42160   0.01267  Uiso   1.00
H19    H     0.66170   0.55670   0.51980   0.01267  Uiso   1.00
H20    H     0.73220   0.52080   0.46120   0.01267  Uiso   1.00
H21    H     0.47280   0.74010   0.53040   0.01267  Uiso   1.00
H22    H     0.54510   0.70280   0.47200   0.01267  Uiso   1.00
H23    H     0.59680   0.58820   0.56820   0.01267  Uiso   1.00
H24    H     0.51730   0.61910   0.62100   0.01267  Uiso   1.00
H25    H     0.16010   0.97260   0.25820   0.01267  Uiso   1.00
H26    H     0.07970   0.83930   0.20900   0.01267  Uiso   1.00
H27    H     0.14680   0.80700   0.35580   0.01267  Uiso   1.00
H28    H     0.24040   0.93930   0.39740   0.01267  Uiso   1.00
H29    H     0.97460   0.58670   0.12180   0.01267  Uiso   1.00
H30    H     0.05230   0.72000   0.16900   0.01267  Uiso   1.00
H31    H     0.03540   0.68780   0.31460   0.01267  Uiso   1.00
H32    H     0.95100   0.55340   0.26280   0.01267  Uiso   1.00
H33    H     0.88920   0.64190   0.46380   0.01267  Uiso   1.00
H34    H     0.03000   0.69170   0.51820   0.01267  Uiso   1.00
H35    H     0.04310   0.52340   0.40080   0.01267  Uiso   1.00
H36    H     0.90230   0.47940   0.35140   0.01267  Uiso   1.00
H37    H     0.32000   0.79700   0.58720   0.01267  Uiso   1.00
H38    H     0.17740   0.75750   0.53220   0.01267  Uiso   1.00
H39    H     0.14810   0.54040   0.47240   0.01267  Uiso   1.00
H40    H     0.28500   0.58510   0.53040   0.01267  Uiso   1.00
H41    H     0.07000   0.51230   0.13360   0.01267  Uiso   1.00
H42    H     0.15270   0.48420   0.08060   0.01267  Uiso   1.00
H43    H     0.93040   0.28980   0.97280   0.01267  Uiso   1.00
H44    H     0.86670   0.31990   0.03680   0.01267  Uiso   1.00
H45    H     0.10290   0.21180   0.90080   0.01267  Uiso   1.00
H46    H     0.02550   0.24400   0.95440   0.01267  Uiso   1.00
H47    H     0.18840   0.47300   0.99600   0.01267  Uiso   1.00
H48    H     0.25290   0.43720   0.93440   0.01267  Uiso   1.00
H49    H     0.02170   0.11460   0.09480   0.01267  Uiso   1.00
H50    H     0.06540   0.22540   0.06400   0.01267  Uiso   1.00
H51    H     0.13750   0.35600   0.13600   0.01267  Uiso   1.00
H52    H     0.15470   0.37290   0.22700   0.01267  Uiso   1.00
H53    H     0.10820   0.26600   0.25620   0.01267  Uiso   1.00
H54    H     0.86190   0.07740   0.19240   0.01267  Uiso   1.00
H55    H     0.78260   0.10030   0.24820   0.01267  Uiso   1.00
H56    H     0.85910   0.16870   0.34700   0.01267  Uiso   1.00
H57    H     0.98830   0.17820   0.38560   0.01267  Uiso   1.00
H58    H     0.07630   0.17800   0.32340   0.01267  Uiso   1.00
H59    H     0.27690   0.27100   0.27220   0.01267  Uiso   1.00
H60    H     0.35530   0.41030   0.30980   0.01267  Uiso   1.00
H61    H     0.48890   0.47310   0.38060   0.01267  Uiso   1.00
H62    H     0.52940   0.40520   0.42920   0.01267  Uiso   1.00
H63    H     0.45760   0.26750   0.38740   0.01267  Uiso   1.00
H64    H     0.34750   0.19120   0.20900   0.01267  Uiso   1.00
H65    H     0.40870   0.14420   0.14740   0.01267  Uiso   1.00
H66    H     0.42460   0.03500   0.14300   0.01267  Uiso   1.00
H67    H     0.38830   0.96930   0.20560   0.01267  Uiso   1.00
H68    H     0.33690   0.01890   0.27520   0.01267  Uiso   1.00
H69    H     0.68190   0.38680   0.39980   0.01267  Uiso   1.00
H70    H     0.65050   0.28170   0.43480   0.01267  Uiso   1.00
H71    H     0.59460   0.15220   0.37480   0.01267  Uiso   1.00
H72    H     0.56560   0.12820   0.27880   0.01267  Uiso   1.00
H73    H     0.60320   0.22640   0.24420   0.01267  Uiso   1.00
H74    H     0.58160   0.29130   0.17240   0.01267  Uiso   1.00
H75    H     0.46540   0.27490   0.10780   0.01267  Uiso   1.00
H76    H     0.39110   0.34090   0.13360   0.01267  Uiso   1.00
H77    H     0.43720   0.42550   0.22060   0.01267  Uiso   1.00
H78    H     0.56890   0.46160   0.28760   0.01267  Uiso   1.00
H79    H     0.04850   0.47450   0.23920   0.01267  Uiso   1.00
H80    H     0.16830   0.51240   0.30860   0.01267  Uiso   1.00
H81    H     0.16160   0.45560   0.37580   0.01267  Uiso   1.00
H82    H     0.03940   0.34590   0.36560   0.01267  Uiso   1.00
H83    H     0.90580   0.29910   0.28760   0.01267  Uiso   1.00
H84    H     0.92230   0.25860   0.13320   0.01267  Uiso   1.00
H85    H     0.86730   0.13230   0.07560   0.01267  Uiso   1.00
H86    H     0.72890   0.04150   0.07860   0.01267  Uiso   1.00
H87    H     0.65010   0.08410   0.12100   0.01267  Uiso   1.00
H88    H     0.71680   0.22170   0.18000   0.01267  Uiso   1.00
H89    H     0.35470   0.95440   0.97300   0.01267  Uiso   1.00
H90    H     0.28540   0.97920   0.03600   0.01267  Uiso   1.00
H91    H     0.07750   0.76910   0.94220   0.01267  Uiso   1.00
H92    H     0.14710   0.74910   0.87820   0.01267  Uiso   1.00
H93    H     0.13780   0.00190   0.15300   0.01267  Uiso   1.00
H94    H     0.21880   0.96690   0.10740   0.01267  Uiso   1.00
H95    H     0.00370   0.83500   0.97020   0.01267  Uiso   1.00
H96    H     0.93210   0.87220   0.02420   0.01267  Uiso   1.00
H97    H     0.18170   0.70770   0.74740   0.01267  Uiso   1.00
H98    H     0.09640   0.57530   0.70600   0.01267  Uiso   1.00
H99    H     0.20660   0.55120   0.84720   0.01267  Uiso   1.00
H100   H     0.28920   0.68760   0.88580   0.01267  Uiso   1.00
H101   H     0.00230   0.31590   0.62220   0.01267  Uiso   1.00
H102   H     0.08920   0.45240   0.66360   0.01267  Uiso   1.00
H103   H     0.07100   0.43320   0.81400   0.01267  Uiso   1.00
H104   H     0.98830   0.30020   0.76920   0.01267  Uiso   1.00
H105   H     0.81350   0.26680   0.63500   0.01267  Uiso   1.00
H106   H     0.68740   0.25070   0.57840   0.01267  Uiso   1.00
H107   H     0.64190   0.03690   0.48020   0.01267  Uiso   1.00
H108   H     0.77100   0.05960   0.53880   0.01267  Uiso   1.00
H109   H     0.44240   0.20970   0.46960   0.01267  Uiso   1.00
H110   H     0.57310   0.23080   0.52800   0.01267  Uiso   1.00
H111   H     0.52860   0.02000   0.43180   0.01267  Uiso   1.00
H112   H     0.39630   0.99810   0.37900   0.01267  Uiso   1.00
H113   H     0.40190   0.71440   0.74180   0.01267  Uiso   1.00
H114   H     0.37070   0.63030   0.79100   0.01267  Uiso   1.00
H115   H     0.29100   0.45120   0.64420   0.01267  Uiso   1.00
H116   H     0.34300   0.54190   0.60260   0.01267  Uiso   1.00
H117   H     0.35280   0.46490   0.87820   0.01267  Uiso   1.00
H118   H     0.38330   0.55100   0.83100   0.01267  Uiso   1.00
H119   H     0.22080   0.37320   0.68540   0.01267  Uiso   1.00
H120   H     0.18820   0.29060   0.73720   0.01267  Uiso   1.00
H121   H     0.92540   0.17810   0.53620   0.01267  Uiso   1.00
H122   H     0.01180   0.17350   0.48180   0.01267  Uiso   1.00
H123   H     0.14230   0.12260   0.59920   0.01267  Uiso   1.00
H124   H     0.05090   0.12800   0.64860   0.01267  Uiso   1.00
H125   H     0.23280   0.20980   0.41280   0.01267  Uiso   1.00
H126   H     0.14520   0.22530   0.46780   0.01267  Uiso   1.00
H127   H     0.17570   0.06800   0.52760   0.01267  Uiso   1.00
H128   H     0.25460   0.05470   0.46960   0.01267  Uiso   1.00
H129   H     0.43640   0.37870   0.86640   0.01267  Uiso   1.00
H130   H     0.57210   0.40360   0.91940   0.01267  Uiso   1.00
H131   H     0.45760   0.31700   0.02720   0.01267  Uiso   1.00
H132   H     0.32990   0.28310   0.96320   0.01267  Uiso   1.00
H133   H     0.70210   0.31100   0.09920   0.01267  Uiso   1.00
H134   H     0.57110   0.28960   0.04560   0.01267  Uiso   1.00
H135   H     0.69240   0.47700   0.00400   0.01267  Uiso   1.00
H136   H     0.81850   0.50280   0.06560   0.01267  Uiso   1.00
H137   H     0.42690   0.01980   0.90520   0.01267  Uiso   1.00
H138   H     0.50140   0.16140   0.93600   0.01267  Uiso   1.00
H139   H     0.50150   0.22000   0.86400   0.01267  Uiso   1.00
H140   H     0.42770   0.14590   0.77300   0.01267  Uiso   1.00
H141   H     0.35200   0.00980   0.74380   0.01267  Uiso   1.00
H142   H     0.16950   0.88500   0.80760   0.01267  Uiso   1.00
H143   H     0.03440   0.85210   0.75180   0.01267  Uiso   1.00
H144   H     0.01210   0.82170   0.65300   0.01267  Uiso   1.00
H145   H     0.10270   0.79260   0.61440   0.01267  Uiso   1.00
H146   H     0.25290   0.85460   0.67660   0.01267  Uiso   1.00
H147   H     0.50470   0.99880   0.72780   0.01267  Uiso   1.00
H148   H     0.54550   0.10050   0.69020   0.01267  Uiso   1.00
H149   H     0.60830   0.09250   0.61940   0.01267  Uiso   1.00
H150   H     0.60020   0.97600   0.57080   0.01267  Uiso   1.00
H151   H     0.57020   0.88010   0.61260   0.01267  Uiso   1.00
H152   H     0.63850   0.98220   0.79100   0.01267  Uiso   1.00
H153   H     0.76130   0.99680   0.85260   0.01267  Uiso   1.00
H154   H     0.78160   0.89200   0.85700   0.01267  Uiso   1.00
H155   H     0.68270   0.76370   0.79440   0.01267  Uiso   1.00
H156   H     0.56170   0.74370   0.72480   0.01267  Uiso   1.00
H157   H     0.78210   0.98700   0.60020   0.01267  Uiso   1.00
H158   H     0.71570   0.84690   0.56520   0.01267  Uiso   1.00
H159   H     0.71980   0.77740   0.62520   0.01267  Uiso   1.00
H160   H     0.78680   0.84940   0.72120   0.01267  Uiso   1.00
H161   H     0.85900   0.98220   0.75580   0.01267  Uiso   1.00
H162   H     0.90920   0.11890   0.82760   0.01267  Uiso   1.00
H163   H     0.85760   0.16710   0.89220   0.01267  Uiso   1.00
H164   H     0.75750   0.20730   0.86640   0.01267  Uiso   1.00
H165   H     0.71660   0.20490   0.77940   0.01267  Uiso   1.00
H166   H     0.78130   0.17400   0.71240   0.01267  Uiso   1.00
H167   H     0.30930   0.23530   0.76080   0.01267  Uiso   1.00
H168   H     0.35970   0.20380   0.69140   0.01267  Uiso   1.00
H169   H     0.28580   0.07980   0.62420   0.01267  Uiso   1.00
H170   H     0.17380   0.98030   0.63440   0.01267  Uiso   1.00
H171   H     0.11820   0.01150   0.71240   0.01267  Uiso   1.00
H172   H     0.28910   0.12540   0.86680   0.01267  Uiso   1.00
H173   H     0.29170   0.05670   0.92440   0.01267  Uiso   1.00
H174   H     0.15030   0.96290   0.92140   0.01267  Uiso   1.00
H175   H     0.02910   0.96310   0.87900   0.01267  Uiso   1.00
H176   H     0.03680   0.04170   0.82000   0.01267  Uiso   1.00
C1     C     0.83130   0.95090   0.03440   0.01267  Uiso   1.00
C2     C     0.75190   0.92860   0.99660   0.01267  Uiso   1.00
C3     C     0.67812   0.88632   0.00564   0.01267  Uiso   1.00
C4     C     0.68570   0.86120   0.05220   0.01267  Uiso   1.00
C5     C     0.76520   0.88570   0.08920   0.01267  Uiso   1.00
C6     C     0.49520   0.85140   0.88520   0.01267  Uiso   1.00
C7     C     0.57190   0.85980   0.91240   0.01267  Uiso   1.00
C8     C     0.59409   0.86899   0.96998   0.01267  Uiso   1.00
C9     C     0.52630   0.86200   0.99160   0.01267  Uiso   1.00
C10    C     0.45140   0.85160   0.95900   0.01267  Uiso   1.00
C11    C     0.92070   0.90760   0.23220   0.01267  Uiso   1.00
C12    C     0.89480   0.85370   0.25720   0.01267  Uiso   1.00
C13    C     0.87500   0.77640   0.23020   0.01267  Uiso   1.00
C14    C     0.87640   0.75710   0.17480   0.01267  Uiso   1.00
C15    C     0.90320   0.81650   0.15220   0.01267  Uiso   1.00
C16    C     0.85490   0.67850   0.33800   0.01267  Uiso   1.00
C17    C     0.88270   0.73580   0.31360   0.01267  Uiso   1.00
C18    C     0.84740   0.71460   0.25640   0.01267  Uiso   1.00
C19    C     0.78390   0.63590   0.22560   0.01267  Uiso   1.00
C20    C     0.76150   0.58430   0.25300   0.01267  Uiso   1.00
C21    C     0.67510   0.61580   0.39680   0.01267  Uiso   1.00
C22    C     0.63370   0.64040   0.43060   0.01267  Uiso   1.00
C23    C     0.62764   0.61944   0.47748   0.01267  Uiso   1.00
C24    C     0.66440   0.57330   0.48820   0.01267  Uiso   1.00
C25    C     0.70560   0.55150   0.45240   0.01267  Uiso   1.00
C26    C     0.49630   0.70680   0.53800   0.01267  Uiso   1.00
C27    C     0.54150   0.68580   0.50340   0.01267  Uiso   1.00
C28    C     0.57923   0.64253   0.51426   0.01267  Uiso   1.00
C29    C     0.57030   0.61860   0.55880   0.01267  Uiso   1.00
C30    C     0.52350   0.63770   0.59060   0.01267  Uiso   1.00
C31    C     0.16130   0.93720   0.27720   0.01267  Uiso   1.00
C32    C     0.11130   0.85820   0.24820   0.01267  Uiso   1.00
C33    C     0.10630   0.80490   0.27580   0.01267  Uiso   1.00
C34    C     0.15280   0.83960   0.33360   0.01267  Uiso   1.00
C35    C     0.20610   0.91860   0.35860   0.01267  Uiso   1.00
C36    C     0.98630   0.60690   0.16160   0.01267  Uiso   1.00
C37    C     0.03300   0.68620   0.18960   0.01267  Uiso   1.00
C38    C     0.05270   0.71800   0.24580   0.01267  Uiso   1.00
C39    C     0.02280   0.66810   0.27480   0.01267  Uiso   1.00
C40    C     0.97340   0.58750   0.24300   0.01267  Uiso   1.00
C41    C     0.92120   0.61700   0.45100   0.01267  Uiso   1.00
C42    C     0.00530   0.64730   0.48380   0.01267  Uiso   1.00
C43    C     0.05410   0.61220   0.46640   0.01267  Uiso   1.00
C44    C     0.01270   0.54900   0.41540   0.01267  Uiso   1.00
C45    C     0.92900   0.52330   0.38600   0.01267  Uiso   1.00
C46    C     0.28190   0.74230   0.56620   0.01267  Uiso   1.00
C47    C     0.19710   0.71960   0.53300   0.01267  Uiso   1.00
C48    C     0.14380   0.63960   0.50140   0.01267  Uiso   1.00
C49    C     0.17940   0.59340   0.49860   0.01267  Uiso   1.00
C50    C     0.26210   0.62120   0.53360   0.01267  Uiso   1.00
C51    C     0.04200   0.46520   0.10100   0.01267  Uiso   1.00
C52    C     0.09230   0.45020   0.06860   0.01267  Uiso   1.00
C53    C     0.05020   0.38220   0.01680   0.01267  Uiso   1.00
C54    C     0.96340   0.33560   0.00620   0.01267  Uiso   1.00
C55    C     0.92540   0.35600   0.04420   0.01267  Uiso   1.00
C56    C     0.11940   0.26630   0.91840   0.01267  Uiso   1.00
C57    C     0.07350   0.28500   0.95120   0.01267  Uiso   1.00
C58    C     0.09680   0.36180   0.97920   0.01267  Uiso   1.00
C59    C     0.16710   0.41850   0.97460   0.01267  Uiso   1.00
C60    C     0.20670   0.39620   0.93900   0.01267  Uiso   1.00
C61    C     0.12680   0.11620   0.24500   0.01267  Uiso   1.00
C62    C     0.19921   0.12871   0.26762   0.01267  Uiso   1.00
C63    C     0.74920   0.37870   0.25120   0.01267  Uiso   1.00
C64    C     0.79840   0.36960   0.23120   0.01267  Uiso   1.00
C65    C     0.06070   0.18100   0.17920   0.01267  Uiso   1.00
C66    C     0.04790   0.16720   0.12140   0.01267  Uiso   1.00
C67    C     0.07460   0.23240   0.10300   0.01267  Uiso   1.00
C68    C     0.11690   0.31070   0.14660   0.01267  Uiso   1.00
C69    C     0.12740   0.32060   0.19960   0.01267  Uiso   1.00
C70    C     0.09980   0.25700   0.21700   0.01267  Uiso   1.00
C71    C     0.97420   0.11830   0.25260   0.01267  Uiso   1.00
C72    C     0.88940   0.10110   0.23240   0.01267  Uiso   1.00
C73    C     0.84160   0.11460   0.26400   0.01267  Uiso   1.00
C74    C     0.88700   0.15180   0.32280   0.01267  Uiso   1.00
C75    C     0.96500   0.16440   0.34580   0.01267  Uiso   1.00
C76    C     0.01560   0.15650   0.30840   0.01267  Uiso   1.00
C77    C     0.36060   0.25750   0.33060   0.01267  Uiso   1.00
C78    C     0.32860   0.29800   0.30360   0.01267  Uiso   1.00
C79    C     0.37610   0.37970   0.32520   0.01267  Uiso   1.00
C80    C     0.45410   0.41750   0.36940   0.01267  Uiso   1.00
C81    C     0.48070   0.37860   0.39560   0.01267  Uiso   1.00
C82    C     0.43460   0.29700   0.37240   0.01267  Uiso   1.00
C83    C     0.34410   0.11640   0.25360   0.01267  Uiso   1.00
C84    C     0.35950   0.14910   0.21120   0.01267  Uiso   1.00
C85    C     0.39240   0.11850   0.17320   0.01267  Uiso   1.00
C86    C     0.40270   0.05410   0.17080   0.01267  Uiso   1.00
C87    C     0.38220   0.01550   0.20820   0.01267  Uiso   1.00
C88    C     0.35210   0.04530   0.24960   0.01267  Uiso   1.00
C89    C     0.65220   0.31710   0.31760   0.01267  Uiso   1.00
C90    C     0.66190   0.33420   0.37500   0.01267  Uiso   1.00
C91    C     0.64080   0.27060   0.39540   0.01267  Uiso   1.00
C92    C     0.60720   0.19430   0.36060   0.01267  Uiso   1.00
C93    C     0.59260   0.18130   0.30440   0.01267  Uiso   1.00
C94    C     0.61430   0.23940   0.28380   0.01267  Uiso   1.00
C95    C     0.59010   0.37920   0.23700   0.01267  Uiso   1.00
C96    C     0.55480   0.32280   0.18300   0.01267  Uiso   1.00
C97    C     0.48520   0.31120   0.14540   0.01267  Uiso   1.00
C98    C     0.44220   0.35030   0.16020   0.01267  Uiso   1.00
C99    C     0.47050   0.40050   0.21040   0.01267  Uiso   1.00
C100   C     0.54750   0.42100   0.25160   0.01267  Uiso   1.00
C101   C     0.96590   0.38570   0.25600   0.01267  Uiso   1.00
C102   C     0.04480   0.44700   0.26500   0.01267  Uiso   1.00
C103   C     0.11520   0.47070   0.30600   0.01267  Uiso   1.00
C104   C     0.11140   0.43540   0.34400   0.01267  Uiso   1.00
C105   C     0.03870   0.37190   0.33900   0.01267  Uiso   1.00
C106   C     0.95840   0.34310   0.29240   0.01267  Uiso   1.00
C107   C     0.82550   0.25400   0.16080   0.01267  Uiso   1.00
C108   C     0.86580   0.22240   0.13020   0.01267  Uiso   1.00
C109   C     0.83690   0.14930   0.09740   0.01267  Uiso   1.00
C110   C     0.75230   0.09670   0.09840   0.01267  Uiso   1.00
C111   C     0.70690   0.12000   0.12440   0.01267  Uiso   1.00
C112   C     0.74660   0.20290   0.15860   0.01267  Uiso   1.00
C113   C     0.29690   0.91650   0.96560   0.01267  Uiso   1.00
C114   C     0.25530   0.93200   0.00340   0.01267  Uiso   1.00
C115   C     0.17248   0.88068   0.99436   0.01267  Uiso   1.00
C116   C     0.13350   0.80900   0.94780   0.01267  Uiso   1.00
C117   C     0.17600   0.79650   0.91080   0.01267  Uiso   1.00
C118   C     0.11000   0.96620   0.11480   0.01267  Uiso   1.00
C119   C     0.15950   0.94740   0.08760   0.01267  Uiso   1.00
C120   C     0.12411   0.89901   0.03002   0.01267  Uiso   1.00
C121   C     0.03470   0.87040   0.00840   0.01267  Uiso   1.00
C122   C     0.99240   0.89260   0.04100   0.01267  Uiso   1.00
C123   C     0.18850   0.67540   0.76780   0.01267  Uiso   1.00
C124   C     0.13760   0.59650   0.74280   0.01267  Uiso   1.00
C125   C     0.14480   0.54620   0.76980   0.01267  Uiso   1.00
C126   C     0.20160   0.58230   0.82520   0.01267  Uiso   1.00
C127   C     0.25100   0.66430   0.84780   0.01267  Uiso   1.00
C128   C     0.01690   0.34050   0.66200   0.01267  Uiso   1.00
C129   C     0.06910   0.42220   0.68640   0.01267  Uiso   1.00
C130   C     0.09100   0.45820   0.74360   0.01267  Uiso   1.00
C131   C     0.05830   0.41030   0.77440   0.01267  Uiso   1.00
C132   C     0.00850   0.33130   0.74700   0.01267  Uiso   1.00
C133   C     0.77830   0.21900   0.60320   0.01267  Uiso   1.00
C134   C     0.70310   0.20980   0.56940   0.01267  Uiso   1.00
C135   C     0.65016   0.14196   0.52252   0.01267  Uiso   1.00
C136   C     0.67620   0.08510   0.51180   0.01267  Uiso   1.00
C137   C     0.75320   0.09910   0.54760   0.01267  Uiso   1.00
C138   C     0.45830   0.16880   0.46200   0.01267  Uiso   1.00
C139   C     0.53810   0.18240   0.49660   0.01267  Uiso   1.00
C140   C     0.56497   0.12827   0.48574   0.01267  Uiso   1.00
C141   C     0.51150   0.05980   0.44120   0.01267  Uiso   1.00
C142   C     0.43290   0.04710   0.40940   0.01267  Uiso   1.00
C143   C     0.38410   0.66000   0.72280   0.01267  Uiso   1.00
C144   C     0.36310   0.61000   0.75180   0.01267  Uiso   1.00
C145   C     0.33050   0.52910   0.72420   0.01267  Uiso   1.00
C146   C     0.31920   0.50600   0.66640   0.01267  Uiso   1.00
C147   C     0.34750   0.56000   0.64140   0.01267  Uiso   1.00
C148   C     0.32470   0.44530   0.83840   0.01267  Uiso   1.00
C149   C     0.34340   0.49660   0.81040   0.01267  Uiso   1.00
C150   C     0.30690   0.47220   0.75420   0.01267  Uiso   1.00
C151   C     0.24800   0.39330   0.72520   0.01267  Uiso   1.00
C152   C     0.23040   0.34450   0.75700   0.01267  Uiso   1.00
C153   C     0.97020   0.16600   0.54900   0.01267  Uiso   1.00
C154   C     0.02150   0.16350   0.51620   0.01267  Uiso   1.00
C155   C     0.08770   0.14580   0.53360   0.01267  Uiso   1.00
C156   C     0.09730   0.13360   0.58460   0.01267  Uiso   1.00
C157   C     0.04300   0.13730   0.61400   0.01267  Uiso   1.00
C158   C     0.21570   0.17610   0.43380   0.01267  Uiso   1.00
C159   C     0.16410   0.18660   0.46700   0.01267  Uiso   1.00
C160   C     0.14240   0.13820   0.49860   0.01267  Uiso   1.00
C161   C     0.18080   0.09480   0.50140   0.01267  Uiso   1.00
C162   C     0.22850   0.08760   0.46640   0.01267  Uiso   1.00
C163   C     0.44100   0.36420   0.89900   0.01267  Uiso   1.00
C164   C     0.52370   0.38160   0.93140   0.01267  Uiso   1.00
C165   C     0.53340   0.36540   0.98320   0.01267  Uiso   1.00
C166   C     0.45720   0.32940   0.99380   0.01267  Uiso   1.00
C167   C     0.38120   0.31180   0.95580   0.01267  Uiso   1.00
C168   C     0.70100   0.34790   0.08160   0.01267  Uiso   1.00
C169   C     0.62230   0.33380   0.04880   0.01267  Uiso   1.00
C170   C     0.61760   0.38260   0.02080   0.01267  Uiso   1.00
C171   C     0.69250   0.44390   0.02540   0.01267  Uiso   1.00
C172   C     0.76770   0.45720   0.06100   0.01267  Uiso   1.00
C173   C     0.38180   0.87120   0.75500   0.01267  Uiso   1.00
C174   C     0.43159   0.86109   0.73238   0.01267  Uiso   1.00
C175   C     0.99800   0.12750   0.74880   0.01267  Uiso   1.00
C176   C     0.06720   0.13840   0.76880   0.01267  Uiso   1.00
C177   C     0.38150   0.00180   0.82080   0.01267  Uiso   1.00
C178   C     0.42650   0.04580   0.87860   0.01267  Uiso   1.00
C179   C     0.47160   0.12940   0.89700   0.01267  Uiso   1.00
C180   C     0.47030   0.16410   0.85340   0.01267  Uiso   1.00
C181   C     0.42780   0.12100   0.80040   0.01267  Uiso   1.00
C182   C     0.38280   0.04000   0.78300   0.01267  Uiso   1.00
C183   C     0.22160   0.86570   0.74740   0.01267  Uiso   1.00
C184   C     0.15700   0.86870   0.76760   0.01267  Uiso   1.00
C185   C     0.07760   0.85060   0.73600   0.01267  Uiso   1.00
C186   C     0.06420   0.82900   0.67720   0.01267  Uiso   1.00
C187   C     0.11920   0.81860   0.65420   0.01267  Uiso   1.00
C188   C     0.20720   0.84810   0.69160   0.01267  Uiso   1.00
C189   C     0.53000   0.92690   0.66940   0.01267  Uiso   1.00
C190   C     0.52500   0.99440   0.69640   0.01267  Uiso   1.00
C191   C     0.55090   0.05450   0.67480   0.01267  Uiso   1.00
C192   C     0.58470   0.04810   0.63060   0.01267  Uiso   1.00
C193   C     0.58510   0.98300   0.60440   0.01267  Uiso   1.00
C194   C     0.56220   0.92460   0.62760   0.01267  Uiso   1.00
C195   C     0.59050   0.86280   0.74640   0.01267  Uiso   1.00
C196   C     0.64830   0.93790   0.78880   0.01267  Uiso   1.00
C197   C     0.71920   0.94530   0.82680   0.01267  Uiso   1.00
C198   C     0.73190   0.88330   0.82920   0.01267  Uiso   1.00
C199   C     0.67400   0.80730   0.79180   0.01267  Uiso   1.00
C200   C     0.60250   0.79570   0.75040   0.01267  Uiso   1.00
C201   C     0.83460   0.99950   0.68240   0.01267  Uiso   1.00
C202   C     0.78690   0.95920   0.62500   0.01267  Uiso   1.00
C203   C     0.74540   0.87520   0.60460   0.01267  Uiso   1.00
C204   C     0.74660   0.83370   0.63940   0.01267  Uiso   1.00
C205   C     0.78820   0.87690   0.69560   0.01267  Uiso   1.00
C206   C     0.83050   0.95560   0.71620   0.01267  Uiso   1.00
C207   C     0.85310   0.14220   0.76300   0.01267  Uiso   1.00
C208   C     0.87180   0.13980   0.81700   0.01267  Uiso   1.00
C209   C     0.83980   0.16580   0.85460   0.01267  Uiso   1.00
C210   C     0.78200   0.19010   0.83980   0.01267  Uiso   1.00
C211   C     0.76010   0.19010   0.78960   0.01267  Uiso   1.00
C212   C     0.79590   0.16940   0.74840   0.01267  Uiso   1.00
C213   C     0.20990   0.12970   0.74400   0.01267  Uiso   1.00
C214   C     0.27980   0.18200   0.73500   0.01267  Uiso   1.00
C215   C     0.30920   0.16470   0.69400   0.01267  Uiso   1.00
C216   C     0.26740   0.09140   0.65600   0.01267  Uiso   1.00
C217   C     0.19970   0.03290   0.66100   0.01267  Uiso   1.00
C218   C     0.16600   0.05070   0.70760   0.01267  Uiso   1.00
C219   C     0.16470   0.09320   0.83920   0.01267  Uiso   1.00
C220   C     0.23560   0.09220   0.86980   0.01267  Uiso   1.00
C221   C     0.23950   0.05190   0.90260   0.01267  Uiso   1.00
C222   C     0.15390   0.99830   0.90160   0.01267  Uiso   1.00
C223   C     0.08250   0.99560   0.87560   0.01267  Uiso   1.00
C224   C     0.08800   0.04430   0.84140   0.01267  Uiso   1.00
N1     N     0.84074   0.93184   0.08068   0.01267  Uiso   1.00
N2     N     0.43448   0.84638   0.90616   0.01267  Uiso   1.00
N3     N     0.92847   0.89227   0.17994   0.01267  Uiso   1.00
N4     N     0.79385   0.60215   0.30830   0.01267  Uiso   1.00
N5     N     0.71071   0.57061   0.40622   0.01267  Uiso   1.00
N6     N     0.48580   0.68240   0.57960   0.01267  Uiso   1.00
N7     N     0.21225   0.96795   0.33110   0.01267  Uiso   1.00
N8     N     0.95499   0.55429   0.18838   0.01267  Uiso   1.00
N9     N     0.88193   0.55683   0.40346   0.01267  Uiso   1.00
N10    N     0.31010   0.69050   0.56940   0.01267  Uiso   1.00
N11    N     0.96175   0.42035   0.08990   0.01267  Uiso   1.00
N12    N     0.18585   0.32025   0.90950   0.01267  Uiso   1.00
N13    N     0.26006   0.85116   0.91932   0.01267  Uiso   1.00
N14    N     0.02832   0.94022   0.09384   0.01267  Uiso   1.00
N15    N     0.24853   0.71233   0.82006   0.01267  Uiso   1.00
N16    N     0.98555   0.29385   0.69170   0.01267  Uiso   1.00
N17    N     0.80449   0.16439   0.59378   0.01267  Uiso   1.00
N18    N     0.40620   0.10280   0.42040   0.01267  Uiso   1.00
N19    N     0.38115   0.63685   0.66890   0.01267  Uiso   1.00
N20    N     0.26661   0.36591   0.81162   0.01267  Uiso   1.00
N21    N     0.97847   0.15337   0.59654   0.01267  Uiso   1.00
N22    N     0.24070   0.12110   0.43060   0.01267  Uiso   1.00
N23    N     0.37185   0.33045   0.91010   0.01267  Uiso   1.00
N24    N     0.77635   0.41075   0.09050   0.01267  Uiso   1.00
B1     B     0.09480   0.84440   0.46980   0.01267  Uiso   1.00
F1     F     0.10190   0.83820   0.52140   0.01267  Uiso   1.00
F2     F     0.10870   0.79180   0.43640   0.01267  Uiso   1.00
F3     F     0.01370   0.82920   0.44460   0.01267  Uiso   1.00
F4     F     0.15270   0.91320   0.46940   0.01267  Uiso   1.00
B2     B     0.62970   0.40940   0.55200   0.01267  Uiso   1.00
F5     F     0.66340   0.37760   0.58600   0.01267  Uiso   1.00
F6     F     0.55090   0.36040   0.52120   0.01267  Uiso   1.00
F7     F     0.63100   0.47700   0.58260   0.01267  Uiso   1.00
F8     F     0.66310   0.41890   0.51120   0.01267  Uiso   1.00
B3     B     0.94700   0.05840   0.94820   0.01267  Uiso   1.00
F9     F     0.88380   0.07420   0.96280   0.01267  Uiso   1.00
F10    F     0.92150   0.98440   0.93900   0.01267  Uiso   1.00
F11    F     0.95040   0.07300   0.89900   0.01267  Uiso   1.00
F12    F     0.02390   0.10310   0.98920   0.01267  Uiso   1.00
B4     B     0.94600   0.66360   0.03460   0.01267  Uiso   1.00
F13    F     0.94880   0.67530   0.98420   0.01267  Uiso   1.00
F14    F     0.95700   0.60220   0.03380   0.01267  Uiso   1.00
F15    F     0.00300   0.73270   0.07880   0.01267  Uiso   1.00
F16    F     0.87220   0.64170   0.04580   0.01267  Uiso   1.00
B5     B     0.12500   0.37460   0.53020   0.01267  Uiso   1.00
F17    F     0.08050   0.31680   0.47860   0.01267  Uiso   1.00
F18    F     0.17230   0.35540   0.56360   0.01267  Uiso   1.00
F19    F     0.06910   0.38460   0.55540   0.01267  Uiso   1.00
F20    F     0.18330   0.44380   0.53060   0.01267  Uiso   1.00
B6     B     0.57770   0.85740   0.44800   0.01267  Uiso   1.00
F21    F     0.57740   0.79160   0.41400   0.01267  Uiso   1.00
F22    F     0.52970   0.83920   0.47880   0.01267  Uiso   1.00
F23    F     0.54840   0.89440   0.41740   0.01267  Uiso   1.00
F24    F     0.65190   0.90770   0.48880   0.01267  Uiso   1.00
B7     B     0.49880   0.11020   0.05180   0.01267  Uiso   1.00
F25    F     0.42100   0.11140   0.03720   0.01267  Uiso   1.00
F26    F     0.48250   0.04540   0.06100   0.01267  Uiso   1.00
F27    F     0.55140   0.17400   0.10100   0.01267  Uiso   1.00
F28    F     0.53470   0.11390   0.01080   0.01267  Uiso   1.00
B8     B     0.41140   0.62900   0.96540   0.01267  Uiso   1.00
F29    F     0.46460   0.69110   0.01580   0.01267  Uiso   1.00
F30    F     0.42320   0.56840   0.96620   0.01267  Uiso   1.00
F31    F     0.42420   0.65390   0.92120   0.01267  Uiso   1.00
F32    F     0.32640   0.59590   0.95420   0.01267  Uiso   1.00
