data_image0
_cell_length_a       22.877
_cell_length_b       23.111
_cell_length_c       18.364
_cell_angle_alpha    90
_cell_angle_beta     105.399
_cell_angle_gamma    90

_symmetry_space_group_name_H-M    "P 1"
_symmetry_int_tables_number       1

loop_
  _symmetry_equiv_pos_as_xyz
  'x, y, z'

loop_
  _atom_site_label
  _atom_site_occupancy
  _atom_site_fract_x
  _atom_site_fract_y
  _atom_site_fract_z
  _atom_site_thermal_displace_type
  _atom_site_B_iso_or_equiv
  _atom_site_type_symbol
  Cu1      1.0000 0.64907  0.22169  0.55791  Biso   1.000  Cu
  Cu2      1.0000 0.72061  0.30401  0.46079  Biso   1.000  Cu
  N1       1.0000 0.80909  0.37014  0.81423  Biso   1.000  N
  N2       1.0000 0.90687  0.37745  0.89286  Biso   1.000  N
  N3       1.0000 0.84510  0.45933  0.86592  Biso   1.000  N
  N4       1.0000 0.59607  0.22744  0.62796  Biso   1.000  N
  N5       1.0000 0.64209  0.31474  0.38500  Biso   1.000  N
  O1       1.0000 0.75089  0.44995  0.78887  Biso   1.000  O
  O2       1.0000 0.94174  0.46511  0.94194  Biso   1.000  O
  O3       1.0000 0.87213  0.29255  0.83689  Biso   1.000  O
  O4       1.0000 0.71807  0.25569  0.63610  Biso   1.000  O
  O5       1.0000 0.68619  0.33369  0.56805  Biso   1.000  O
  O6       1.0000 0.07562  0.30110  0.98047  Biso   1.000  O
  O7       1.0000 0.11434  0.33985  0.89259  Biso   1.000  O
  O8       1.0000 0.81934  0.63457  0.90306  Biso   1.000  O
  O9       1.0000 0.74469  0.61597  0.95446  Biso   1.000  O
  O10      1.0000 0.80094  0.27594  0.51526  Biso   1.000  O
  H1       1.0000 0.81870  0.29870  0.56080  Biso   1.000  H
  C1       1.0000 0.79890  0.42750  0.82120  Biso   1.000  C
  C2       1.0000 0.90116  0.43571  0.90310  Biso   1.000  C
  C3       1.0000 0.86319  0.34348  0.84710  Biso   1.000  C
  C4       1.0000 0.76147  0.33643  0.76100  Biso   1.000  C
  H2       1.0000 0.72190  0.34890  0.76460  Biso   1.000  H
  H3       1.0000 0.76600  0.29570  0.77400  Biso   1.000  H
  C5       1.0000 0.76614  0.34507  0.68080  Biso   1.000  C
  H4       1.0000 0.76020  0.38570  0.66760  Biso   1.000  H
  H5       1.0000 0.80650  0.33430  0.67820  Biso   1.000  H
  C6       1.0000 0.72017  0.30976  0.62490  Biso   1.000  C
  C7       1.0000 0.96574  0.35017  0.93100  Biso   1.000  C
  H6       1.0000 0.95910  0.31000  0.94190  Biso   1.000  H
  H7       1.0000 0.98320  0.36970  0.97850  Biso   1.000  H
  C8       1.0000 0.00939  0.35330  0.88210  Biso   1.000  C
  H8       1.0000 0.01320  0.39330  0.86800  Biso   1.000  H
  H9       1.0000 0.99280  0.33150  0.83610  Biso   1.000  H
  C9       1.0000 0.07176  0.32993  0.92080  Biso   1.000  C
  C10      1.0000 0.83681  0.52215  0.87170  Biso   1.000  C
  H10      1.0000 0.81570  0.53730  0.82250  Biso   1.000  H
  H11      1.0000 0.87620  0.54070  0.88730  Biso   1.000  H
  C11      1.0000 0.80093  0.53662  0.92800  Biso   1.000  C
  H12      1.0000 0.82370  0.52470  0.97810  Biso   1.000  H
  H13      1.0000 0.76300  0.51540  0.91500  Biso   1.000  H
  C12      1.0000 0.78793  0.60102  0.92800  Biso   1.000  C
  C13      1.0000 0.58690  0.27480  0.66330  Biso   1.000  C
  H14      1.0000 0.60690  0.30850  0.65630  Biso   1.000  H
  C14      1.0000 0.54890  0.27650  0.71030  Biso   1.000  C
  H15      1.0000 0.54300  0.31140  0.73260  Biso   1.000  H
  C15      1.0000 0.52010  0.22890  0.72470  Biso   1.000  C
  C16      1.0000 0.52780  0.17970  0.68700  Biso   1.000  C
  H16      1.0000 0.50740  0.14600  0.69300  Biso   1.000  H
  C17      1.0000 0.56600  0.17980  0.64000  Biso   1.000  C
  H17      1.0000 0.57110  0.14570  0.61560  Biso   1.000  H
  C18      1.0000 0.59196  0.32950  0.40390  Biso   1.000  C
  H18      1.0000 0.59490  0.33940  0.45390  Biso   1.000  H
  C19      1.0000 0.53567  0.33090  0.35260  Biso   1.000  C
  H19      1.0000 0.50160  0.34040  0.36860  Biso   1.000  H
  C20      1.0000 0.52984  0.31834  0.27750  Biso   1.000  C
  C21      1.0000 0.58189  0.30360  0.25910  Biso   1.000  C
  H20      1.0000 0.58040  0.29480  0.20920  Biso   1.000  H
  C22      1.0000 0.63613  0.30160  0.31280  Biso   1.000  C
  H21      1.0000 0.67050  0.29050  0.29830  Biso   1.000  H
  Cu3      1.0000 0.14907  0.72169  0.55791  Biso   1.000  Cu
  Cu4      1.0000 0.22061  0.80401  0.46079  Biso   1.000  Cu
  N6       1.0000 0.30909  0.87014  0.81423  Biso   1.000  N
  N7       1.0000 0.40687  0.87745  0.89286  Biso   1.000  N
  N8       1.0000 0.34510  0.95933  0.86592  Biso   1.000  N
  N9       1.0000 0.09607  0.72744  0.62796  Biso   1.000  N
  N10      1.0000 0.14209  0.81474  0.38500  Biso   1.000  N
  O11      1.0000 0.25089  0.94995  0.78887  Biso   1.000  O
  O12      1.0000 0.44174  0.96511  0.94194  Biso   1.000  O
  O13      1.0000 0.37213  0.79255  0.83689  Biso   1.000  O
  O14      1.0000 0.21807  0.75569  0.63610  Biso   1.000  O
  O15      1.0000 0.18619  0.83369  0.56805  Biso   1.000  O
  O16      1.0000 0.57562  0.80110  0.98047  Biso   1.000  O
  O17      1.0000 0.61434  0.83985  0.89259  Biso   1.000  O
  O18      1.0000 0.31934  0.13457  0.90306  Biso   1.000  O
  O19      1.0000 0.24469  0.11597  0.95446  Biso   1.000  O
  O20      1.0000 0.30094  0.77594  0.51526  Biso   1.000  O
  H22      1.0000 0.31870  0.79870  0.56080  Biso   1.000  H
  C23      1.0000 0.29890  0.92750  0.82120  Biso   1.000  C
  C24      1.0000 0.40116  0.93571  0.90310  Biso   1.000  C
  C25      1.0000 0.36319  0.84348  0.84710  Biso   1.000  C
  C26      1.0000 0.26147  0.83643  0.76100  Biso   1.000  C
  H23      1.0000 0.22190  0.84890  0.76460  Biso   1.000  H
  H24      1.0000 0.26600  0.79570  0.77400  Biso   1.000  H
  C27      1.0000 0.26614  0.84507  0.68080  Biso   1.000  C
  H25      1.0000 0.26020  0.88570  0.66760  Biso   1.000  H
  H26      1.0000 0.30650  0.83430  0.67820  Biso   1.000  H
  C28      1.0000 0.22017  0.80976  0.62490  Biso   1.000  C
  C29      1.0000 0.46574  0.85017  0.93100  Biso   1.000  C
  H27      1.0000 0.45910  0.81000  0.94190  Biso   1.000  H
  H28      1.0000 0.48320  0.86970  0.97850  Biso   1.000  H
  C30      1.0000 0.50939  0.85330  0.88210  Biso   1.000  C
  H29      1.0000 0.51320  0.89330  0.86800  Biso   1.000  H
  H30      1.0000 0.49280  0.83150  0.83610  Biso   1.000  H
  C31      1.0000 0.57176  0.82993  0.92080  Biso   1.000  C
  C32      1.0000 0.33681  0.02215  0.87170  Biso   1.000  C
  H31      1.0000 0.31570  0.03730  0.82250  Biso   1.000  H
  H32      1.0000 0.37620  0.04070  0.88730  Biso   1.000  H
  C33      1.0000 0.30093  0.03662  0.92800  Biso   1.000  C
  H33      1.0000 0.32370  0.02470  0.97810  Biso   1.000  H
  H34      1.0000 0.26300  0.01540  0.91500  Biso   1.000  H
  C34      1.0000 0.28793  0.10102  0.92800  Biso   1.000  C
  C35      1.0000 0.08690  0.77480  0.66330  Biso   1.000  C
  H35      1.0000 0.10690  0.80850  0.65630  Biso   1.000  H
  C36      1.0000 0.04890  0.77650  0.71030  Biso   1.000  C
  H36      1.0000 0.04300  0.81140  0.73260  Biso   1.000  H
  C37      1.0000 0.02010  0.72890  0.72470  Biso   1.000  C
  C38      1.0000 0.02780  0.67970  0.68700  Biso   1.000  C
  H37      1.0000 0.00740  0.64600  0.69300  Biso   1.000  H
  C39      1.0000 0.06600  0.67980  0.64000  Biso   1.000  C
  H38      1.0000 0.07110  0.64570  0.61560  Biso   1.000  H
  C40      1.0000 0.09196  0.82950  0.40390  Biso   1.000  C
  H39      1.0000 0.09490  0.83940  0.45390  Biso   1.000  H
  C41      1.0000 0.03567  0.83090  0.35260  Biso   1.000  C
  H40      1.0000 0.00160  0.84040  0.36860  Biso   1.000  H
  C42      1.0000 0.02984  0.81834  0.27750  Biso   1.000  C
  C43      1.0000 0.08189  0.80360  0.25910  Biso   1.000  C
  H41      1.0000 0.08040  0.79480  0.20920  Biso   1.000  H
  C44      1.0000 0.13613  0.80160  0.31280  Biso   1.000  C
  H42      1.0000 0.17050  0.79050  0.29830  Biso   1.000  H
  Cu5      1.0000 0.35093  0.22169  0.94209  Biso   1.000  Cu
  Cu6      1.0000 0.27939  0.30401  0.03921  Biso   1.000  Cu
  N11      1.0000 0.19091  0.37014  0.68577  Biso   1.000  N
  N12      1.0000 0.09313  0.37745  0.60714  Biso   1.000  N
  N13      1.0000 0.15490  0.45933  0.63408  Biso   1.000  N
  N14      1.0000 0.40393  0.22744  0.87204  Biso   1.000  N
  N15      1.0000 0.35791  0.31474  0.11500  Biso   1.000  N
  O21      1.0000 0.24911  0.44995  0.71113  Biso   1.000  O
  O22      1.0000 0.05826  0.46511  0.55806  Biso   1.000  O
  O23      1.0000 0.12787  0.29255  0.66311  Biso   1.000  O
  O24      1.0000 0.28193  0.25569  0.86390  Biso   1.000  O
  O25      1.0000 0.31381  0.33369  0.93195  Biso   1.000  O
  O26      1.0000 0.92438  0.30110  0.51953  Biso   1.000  O
  O27      1.0000 0.88566  0.33985  0.60741  Biso   1.000  O
  O28      1.0000 0.18066  0.63457  0.59694  Biso   1.000  O
  O29      1.0000 0.25531  0.61597  0.54554  Biso   1.000  O
  O30      1.0000 0.19906  0.27594  0.98474  Biso   1.000  O
  H43      1.0000 0.18130  0.29870  0.93920  Biso   1.000  H
  C45      1.0000 0.20110  0.42750  0.67880  Biso   1.000  C
  C46      1.0000 0.09884  0.43571  0.59690  Biso   1.000  C
  C47      1.0000 0.13681  0.34348  0.65290  Biso   1.000  C
  C48      1.0000 0.23853  0.33643  0.73900  Biso   1.000  C
  H44      1.0000 0.27810  0.34890  0.73540  Biso   1.000  H
  H45      1.0000 0.23400  0.29570  0.72600  Biso   1.000  H
  C49      1.0000 0.23386  0.34507  0.81920  Biso   1.000  C
  H46      1.0000 0.23980  0.38570  0.83240  Biso   1.000  H
  H47      1.0000 0.19350  0.33430  0.82180  Biso   1.000  H
  C50      1.0000 0.27983  0.30976  0.87510  Biso   1.000  C
  C51      1.0000 0.03426  0.35017  0.56900  Biso   1.000  C
  H48      1.0000 0.04090  0.31000  0.55810  Biso   1.000  H
  H49      1.0000 0.01680  0.36970  0.52150  Biso   1.000  H
  C52      1.0000 0.99061  0.35330  0.61790  Biso   1.000  C
  H50      1.0000 0.98680  0.39330  0.63200  Biso   1.000  H
  H51      1.0000 0.00720  0.33150  0.66390  Biso   1.000  H
  C53      1.0000 0.92824  0.32993  0.57920  Biso   1.000  C
  C54      1.0000 0.16319  0.52215  0.62830  Biso   1.000  C
  H52      1.0000 0.18430  0.53730  0.67750  Biso   1.000  H
  H53      1.0000 0.12380  0.54070  0.61270  Biso   1.000  H
  C55      1.0000 0.19907  0.53662  0.57200  Biso   1.000  C
  H54      1.0000 0.17630  0.52470  0.52190  Biso   1.000  H
  H55      1.0000 0.23700  0.51540  0.58500  Biso   1.000  H
  C56      1.0000 0.21207  0.60102  0.57200  Biso   1.000  C
  C57      1.0000 0.41310  0.27480  0.83670  Biso   1.000  C
  H56      1.0000 0.39310  0.30850  0.84370  Biso   1.000  H
  C58      1.0000 0.45110  0.27650  0.78970  Biso   1.000  C
  H57      1.0000 0.45700  0.31140  0.76740  Biso   1.000  H
  C59      1.0000 0.47990  0.22890  0.77530  Biso   1.000  C
  C60      1.0000 0.47220  0.17970  0.81300  Biso   1.000  C
  H58      1.0000 0.49260  0.14600  0.80700  Biso   1.000  H
  C61      1.0000 0.43400  0.17980  0.86000  Biso   1.000  C
  H59      1.0000 0.42890  0.14570  0.88440  Biso   1.000  H
  C62      1.0000 0.40804  0.32950  0.09610  Biso   1.000  C
  H60      1.0000 0.40510  0.33940  0.04610  Biso   1.000  H
  C63      1.0000 0.46433  0.33090  0.14740  Biso   1.000  C
  H61      1.0000 0.49840  0.34040  0.13140  Biso   1.000  H
  C64      1.0000 0.47016  0.31834  0.22250  Biso   1.000  C
  C65      1.0000 0.41811  0.30360  0.24090  Biso   1.000  C
  H62      1.0000 0.41960  0.29480  0.29080  Biso   1.000  H
  C66      1.0000 0.36387  0.30160  0.18720  Biso   1.000  C
  H63      1.0000 0.32950  0.29050  0.20170  Biso   1.000  H
  Cu7      1.0000 0.85093  0.72169  0.94209  Biso   1.000  Cu
  Cu8      1.0000 0.77939  0.80401  0.03921  Biso   1.000  Cu
  N16      1.0000 0.69091  0.87014  0.68577  Biso   1.000  N
  N17      1.0000 0.59313  0.87745  0.60714  Biso   1.000  N
  N18      1.0000 0.65490  0.95933  0.63408  Biso   1.000  N
  N19      1.0000 0.90393  0.72744  0.87204  Biso   1.000  N
  N20      1.0000 0.85791  0.81474  0.11500  Biso   1.000  N
  O31      1.0000 0.74911  0.94995  0.71113  Biso   1.000  O
  O32      1.0000 0.55826  0.96511  0.55806  Biso   1.000  O
  O33      1.0000 0.62787  0.79255  0.66311  Biso   1.000  O
  O34      1.0000 0.78193  0.75569  0.86390  Biso   1.000  O
  O35      1.0000 0.81381  0.83369  0.93195  Biso   1.000  O
  O36      1.0000 0.42438  0.80110  0.51953  Biso   1.000  O
  O37      1.0000 0.38566  0.83985  0.60741  Biso   1.000  O
  O38      1.0000 0.68066  0.13457  0.59694  Biso   1.000  O
  O39      1.0000 0.75531  0.11597  0.54554  Biso   1.000  O
  O40      1.0000 0.69906  0.77594  0.98474  Biso   1.000  O
  H64      1.0000 0.68130  0.79870  0.93920  Biso   1.000  H
  C67      1.0000 0.70110  0.92750  0.67880  Biso   1.000  C
  C68      1.0000 0.59884  0.93571  0.59690  Biso   1.000  C
  C69      1.0000 0.63681  0.84348  0.65290  Biso   1.000  C
  C70      1.0000 0.73853  0.83643  0.73900  Biso   1.000  C
  H65      1.0000 0.77810  0.84890  0.73540  Biso   1.000  H
  H66      1.0000 0.73400  0.79570  0.72600  Biso   1.000  H
  C71      1.0000 0.73386  0.84507  0.81920  Biso   1.000  C
  H67      1.0000 0.73980  0.88570  0.83240  Biso   1.000  H
  H68      1.0000 0.69350  0.83430  0.82180  Biso   1.000  H
  C72      1.0000 0.77983  0.80976  0.87510  Biso   1.000  C
  C73      1.0000 0.53426  0.85017  0.56900  Biso   1.000  C
  H69      1.0000 0.54090  0.81000  0.55810  Biso   1.000  H
  H70      1.0000 0.51680  0.86970  0.52150  Biso   1.000  H
  C74      1.0000 0.49061  0.85330  0.61790  Biso   1.000  C
  H71      1.0000 0.48680  0.89330  0.63200  Biso   1.000  H
  H72      1.0000 0.50720  0.83150  0.66390  Biso   1.000  H
  C75      1.0000 0.42824  0.82993  0.57920  Biso   1.000  C
  C76      1.0000 0.66319  0.02215  0.62830  Biso   1.000  C
  H73      1.0000 0.68430  0.03730  0.67750  Biso   1.000  H
  H74      1.0000 0.62380  0.04070  0.61270  Biso   1.000  H
  C77      1.0000 0.69907  0.03662  0.57200  Biso   1.000  C
  H75      1.0000 0.67630  0.02470  0.52190  Biso   1.000  H
  H76      1.0000 0.73700  0.01540  0.58500  Biso   1.000  H
  C78      1.0000 0.71207  0.10102  0.57200  Biso   1.000  C
  C79      1.0000 0.91310  0.77480  0.83670  Biso   1.000  C
  H77      1.0000 0.89310  0.80850  0.84370  Biso   1.000  H
  C80      1.0000 0.95110  0.77650  0.78970  Biso   1.000  C
  H78      1.0000 0.95700  0.81140  0.76740  Biso   1.000  H
  C81      1.0000 0.97990  0.72890  0.77530  Biso   1.000  C
  C82      1.0000 0.97220  0.67970  0.81300  Biso   1.000  C
  H79      1.0000 0.99260  0.64600  0.80700  Biso   1.000  H
  C83      1.0000 0.93400  0.67980  0.86000  Biso   1.000  C
  H80      1.0000 0.92890  0.64570  0.88440  Biso   1.000  H
  C84      1.0000 0.90804  0.82950  0.09610  Biso   1.000  C
  H81      1.0000 0.90510  0.83940  0.04610  Biso   1.000  H
  C85      1.0000 0.96433  0.83090  0.14740  Biso   1.000  C
  H82      1.0000 0.99840  0.84040  0.13140  Biso   1.000  H
  C86      1.0000 0.97016  0.81834  0.22250  Biso   1.000  C
  C87      1.0000 0.91811  0.80360  0.24090  Biso   1.000  C
  H83      1.0000 0.91960  0.79480  0.29080  Biso   1.000  H
  C88      1.0000 0.86387  0.80160  0.18720  Biso   1.000  C
  H84      1.0000 0.82950  0.79050  0.20170  Biso   1.000  H
  Cu9      1.0000 0.35093  0.77832  0.44209  Biso   1.000  Cu
  Cu10     1.0000 0.27939  0.69599  0.53921  Biso   1.000  Cu
  N21      1.0000 0.19091  0.62986  0.18577  Biso   1.000  N
  N22      1.0000 0.09313  0.62255  0.10714  Biso   1.000  N
  N23      1.0000 0.15490  0.54067  0.13408  Biso   1.000  N
  N24      1.0000 0.40393  0.77256  0.37204  Biso   1.000  N
  N25      1.0000 0.35791  0.68526  0.61500  Biso   1.000  N
  O41      1.0000 0.24911  0.55005  0.21113  Biso   1.000  O
  O42      1.0000 0.05826  0.53489  0.05806  Biso   1.000  O
  O43      1.0000 0.12787  0.70745  0.16311  Biso   1.000  O
  O44      1.0000 0.28193  0.74431  0.36390  Biso   1.000  O
  O45      1.0000 0.31381  0.66631  0.43195  Biso   1.000  O
  O46      1.0000 0.92438  0.69890  0.01953  Biso   1.000  O
  O47      1.0000 0.88566  0.66015  0.10741  Biso   1.000  O
  O48      1.0000 0.18066  0.36543  0.09694  Biso   1.000  O
  O49      1.0000 0.25531  0.38403  0.04554  Biso   1.000  O
  O50      1.0000 0.19906  0.72406  0.48474  Biso   1.000  O
  H85      1.0000 0.18130  0.70130  0.43920  Biso   1.000  H
  C89      1.0000 0.20110  0.57250  0.17880  Biso   1.000  C
  C90      1.0000 0.09884  0.56429  0.09690  Biso   1.000  C
  C91      1.0000 0.13681  0.65652  0.15290  Biso   1.000  C
  C92      1.0000 0.23853  0.66357  0.23900  Biso   1.000  C
  H86      1.0000 0.27810  0.65110  0.23540  Biso   1.000  H
  H87      1.0000 0.23400  0.70430  0.22600  Biso   1.000  H
  C93      1.0000 0.23386  0.65493  0.31920  Biso   1.000  C
  H88      1.0000 0.23980  0.61430  0.33240  Biso   1.000  H
  H89      1.0000 0.19350  0.66570  0.32180  Biso   1.000  H
  C94      1.0000 0.27983  0.69024  0.37510  Biso   1.000  C
  C95      1.0000 0.03426  0.64983  0.06900  Biso   1.000  C
  H90      1.0000 0.04090  0.69000  0.05810  Biso   1.000  H
  H91      1.0000 0.01680  0.63030  0.02150  Biso   1.000  H
  C96      1.0000 0.99061  0.64670  0.11790  Biso   1.000  C
  H92      1.0000 0.98680  0.60670  0.13200  Biso   1.000  H
  H93      1.0000 0.00720  0.66850  0.16390  Biso   1.000  H
  C97      1.0000 0.92824  0.67007  0.07920  Biso   1.000  C
  C98      1.0000 0.16319  0.47785  0.12830  Biso   1.000  C
  H94      1.0000 0.18430  0.46270  0.17750  Biso   1.000  H
  H95      1.0000 0.12380  0.45930  0.11270  Biso   1.000  H
  C99      1.0000 0.19907  0.46338  0.07200  Biso   1.000  C
  H96      1.0000 0.17630  0.47530  0.02190  Biso   1.000  H
  H97      1.0000 0.23700  0.48460  0.08500  Biso   1.000  H
  C100     1.0000 0.21207  0.39898  0.07200  Biso   1.000  C
  C101     1.0000 0.41310  0.72520  0.33670  Biso   1.000  C
  H98      1.0000 0.39310  0.69150  0.34370  Biso   1.000  H
  C102     1.0000 0.45110  0.72350  0.28970  Biso   1.000  C
  H99      1.0000 0.45700  0.68860  0.26740  Biso   1.000  H
  C103     1.0000 0.47990  0.77110  0.27530  Biso   1.000  C
  C104     1.0000 0.47220  0.82030  0.31300  Biso   1.000  C
  H100     1.0000 0.49260  0.85400  0.30700  Biso   1.000  H
  C105     1.0000 0.43400  0.82020  0.36000  Biso   1.000  C
  H101     1.0000 0.42890  0.85430  0.38440  Biso   1.000  H
  C106     1.0000 0.40804  0.67050  0.59610  Biso   1.000  C
  H102     1.0000 0.40510  0.66060  0.54610  Biso   1.000  H
  C107     1.0000 0.46433  0.66910  0.64740  Biso   1.000  C
  H103     1.0000 0.49840  0.65960  0.63140  Biso   1.000  H
  C108     1.0000 0.47016  0.68166  0.72250  Biso   1.000  C
  C109     1.0000 0.41811  0.69640  0.74090  Biso   1.000  C
  H104     1.0000 0.41960  0.70520  0.79080  Biso   1.000  H
  C110     1.0000 0.36387  0.69840  0.68720  Biso   1.000  C
  H105     1.0000 0.32950  0.70950  0.70170  Biso   1.000  H
  Cu11     1.0000 0.85093  0.27831  0.44209  Biso   1.000  Cu
  Cu12     1.0000 0.77939  0.19599  0.53921  Biso   1.000  Cu
  N26      1.0000 0.69091  0.12986  0.18577  Biso   1.000  N
  N27      1.0000 0.59313  0.12255  0.10714  Biso   1.000  N
  N28      1.0000 0.65490  0.04067  0.13408  Biso   1.000  N
  N29      1.0000 0.90393  0.27256  0.37204  Biso   1.000  N
  N30      1.0000 0.85791  0.18526  0.61500  Biso   1.000  N
  O51      1.0000 0.74911  0.05005  0.21113  Biso   1.000  O
  O52      1.0000 0.55826  0.03489  0.05806  Biso   1.000  O
  O53      1.0000 0.62787  0.20745  0.16311  Biso   1.000  O
  O54      1.0000 0.78193  0.24431  0.36390  Biso   1.000  O
  O55      1.0000 0.81381  0.16631  0.43195  Biso   1.000  O
  O56      1.0000 0.42438  0.19890  0.01953  Biso   1.000  O
  O57      1.0000 0.38566  0.16015  0.10741  Biso   1.000  O
  O58      1.0000 0.68066  0.86543  0.09694  Biso   1.000  O
  O59      1.0000 0.75531  0.88403  0.04554  Biso   1.000  O
  O60      1.0000 0.69906  0.22406  0.48474  Biso   1.000  O
  H106     1.0000 0.68130  0.20130  0.43920  Biso   1.000  H
  C111     1.0000 0.70110  0.07250  0.17880  Biso   1.000  C
  C112     1.0000 0.59884  0.06429  0.09690  Biso   1.000  C
  C113     1.0000 0.63681  0.15652  0.15290  Biso   1.000  C
  C114     1.0000 0.73853  0.16357  0.23900  Biso   1.000  C
  H107     1.0000 0.77810  0.15110  0.23540  Biso   1.000  H
  H108     1.0000 0.73400  0.20430  0.22600  Biso   1.000  H
  C115     1.0000 0.73386  0.15493  0.31920  Biso   1.000  C
  H109     1.0000 0.73980  0.11430  0.33240  Biso   1.000  H
  H110     1.0000 0.69350  0.16570  0.32180  Biso   1.000  H
  C116     1.0000 0.77983  0.19024  0.37510  Biso   1.000  C
  C117     1.0000 0.53426  0.14983  0.06900  Biso   1.000  C
  H111     1.0000 0.54090  0.19000  0.05810  Biso   1.000  H
  H112     1.0000 0.51680  0.13030  0.02150  Biso   1.000  H
  C118     1.0000 0.49061  0.14670  0.11790  Biso   1.000  C
  H113     1.0000 0.48680  0.10670  0.13200  Biso   1.000  H
  H114     1.0000 0.50720  0.16850  0.16390  Biso   1.000  H
  C119     1.0000 0.42824  0.17007  0.07920  Biso   1.000  C
  C120     1.0000 0.66319  0.97785  0.12830  Biso   1.000  C
  H115     1.0000 0.68430  0.96270  0.17750  Biso   1.000  H
  H116     1.0000 0.62380  0.95930  0.11270  Biso   1.000  H
  C121     1.0000 0.69907  0.96338  0.07200  Biso   1.000  C
  H117     1.0000 0.67630  0.97530  0.02190  Biso   1.000  H
  H118     1.0000 0.73700  0.98460  0.08500  Biso   1.000  H
  C122     1.0000 0.71207  0.89898  0.07200  Biso   1.000  C
  C123     1.0000 0.91310  0.22520  0.33670  Biso   1.000  C
  H119     1.0000 0.89310  0.19150  0.34370  Biso   1.000  H
  C124     1.0000 0.95110  0.22350  0.28970  Biso   1.000  C
  H120     1.0000 0.95700  0.18860  0.26740  Biso   1.000  H
  C125     1.0000 0.97990  0.27110  0.27530  Biso   1.000  C
  C126     1.0000 0.97220  0.32030  0.31300  Biso   1.000  C
  H121     1.0000 0.99260  0.35400  0.30700  Biso   1.000  H
  C127     1.0000 0.93400  0.32020  0.36000  Biso   1.000  C
  H122     1.0000 0.92890  0.35430  0.38440  Biso   1.000  H
  C128     1.0000 0.90804  0.17050  0.59610  Biso   1.000  C
  H123     1.0000 0.90510  0.16060  0.54610  Biso   1.000  H
  C129     1.0000 0.96433  0.16910  0.64740  Biso   1.000  C
  H124     1.0000 0.99840  0.15960  0.63140  Biso   1.000  H
  C130     1.0000 0.97016  0.18166  0.72250  Biso   1.000  C
  C131     1.0000 0.91811  0.19640  0.74090  Biso   1.000  C
  H125     1.0000 0.91960  0.20520  0.79080  Biso   1.000  H
  C132     1.0000 0.86387  0.19840  0.68720  Biso   1.000  C
  H126     1.0000 0.82950  0.20950  0.70170  Biso   1.000  H
  Cu13     1.0000 0.64907  0.77832  0.05791  Biso   1.000  Cu
  Cu14     1.0000 0.72061  0.69599  0.96079  Biso   1.000  Cu
  N31      1.0000 0.80909  0.62986  0.31423  Biso   1.000  N
  N32      1.0000 0.90687  0.62255  0.39286  Biso   1.000  N
  N33      1.0000 0.84510  0.54067  0.36592  Biso   1.000  N
  N34      1.0000 0.59607  0.77256  0.12796  Biso   1.000  N
  N35      1.0000 0.64209  0.68526  0.88500  Biso   1.000  N
  O61      1.0000 0.75089  0.55005  0.28887  Biso   1.000  O
  O62      1.0000 0.94174  0.53489  0.44194  Biso   1.000  O
  O63      1.0000 0.87213  0.70745  0.33689  Biso   1.000  O
  O64      1.0000 0.71807  0.74431  0.13610  Biso   1.000  O
  O65      1.0000 0.68619  0.66631  0.06805  Biso   1.000  O
  O66      1.0000 0.07562  0.69890  0.48047  Biso   1.000  O
  O67      1.0000 0.11434  0.66015  0.39259  Biso   1.000  O
  O68      1.0000 0.81934  0.36543  0.40306  Biso   1.000  O
  O69      1.0000 0.74469  0.38403  0.45446  Biso   1.000  O
  O70      1.0000 0.80094  0.72406  0.01526  Biso   1.000  O
  H127     1.0000 0.81870  0.70130  0.06080  Biso   1.000  H
  C133     1.0000 0.79890  0.57250  0.32120  Biso   1.000  C
  C134     1.0000 0.90116  0.56429  0.40310  Biso   1.000  C
  C135     1.0000 0.86319  0.65652  0.34710  Biso   1.000  C
  C136     1.0000 0.76147  0.66357  0.26100  Biso   1.000  C
  H128     1.0000 0.72190  0.65110  0.26460  Biso   1.000  H
  H129     1.0000 0.76600  0.70430  0.27400  Biso   1.000  H
  C137     1.0000 0.76614  0.65493  0.18080  Biso   1.000  C
  H130     1.0000 0.76020  0.61430  0.16760  Biso   1.000  H
  H131     1.0000 0.80650  0.66570  0.17820  Biso   1.000  H
  C138     1.0000 0.72017  0.69024  0.12490  Biso   1.000  C
  C139     1.0000 0.96574  0.64983  0.43100  Biso   1.000  C
  H132     1.0000 0.95910  0.69000  0.44190  Biso   1.000  H
  H133     1.0000 0.98320  0.63030  0.47850  Biso   1.000  H
  C140     1.0000 0.00939  0.64670  0.38210  Biso   1.000  C
  H134     1.0000 0.01320  0.60670  0.36800  Biso   1.000  H
  H135     1.0000 0.99280  0.66850  0.33610  Biso   1.000  H
  C141     1.0000 0.07176  0.67007  0.42080  Biso   1.000  C
  C142     1.0000 0.83681  0.47785  0.37170  Biso   1.000  C
  H136     1.0000 0.81570  0.46270  0.32250  Biso   1.000  H
  H137     1.0000 0.87620  0.45930  0.38730  Biso   1.000  H
  C143     1.0000 0.80093  0.46338  0.42800  Biso   1.000  C
  H138     1.0000 0.82370  0.47530  0.47810  Biso   1.000  H
  H139     1.0000 0.76300  0.48460  0.41500  Biso   1.000  H
  C144     1.0000 0.78793  0.39898  0.42800  Biso   1.000  C
  C145     1.0000 0.58690  0.72520  0.16330  Biso   1.000  C
  H140     1.0000 0.60690  0.69150  0.15630  Biso   1.000  H
  C146     1.0000 0.54890  0.72350  0.21030  Biso   1.000  C
  H141     1.0000 0.54300  0.68860  0.23260  Biso   1.000  H
  C147     1.0000 0.52010  0.77110  0.22470  Biso   1.000  C
  C148     1.0000 0.52780  0.82030  0.18700  Biso   1.000  C
  H142     1.0000 0.50740  0.85400  0.19300  Biso   1.000  H
  C149     1.0000 0.56600  0.82020  0.14000  Biso   1.000  C
  H143     1.0000 0.57110  0.85430  0.11560  Biso   1.000  H
  C150     1.0000 0.59196  0.67050  0.90390  Biso   1.000  C
  H144     1.0000 0.59490  0.66060  0.95390  Biso   1.000  H
  C151     1.0000 0.53567  0.66910  0.85260  Biso   1.000  C
  H145     1.0000 0.50160  0.65960  0.86860  Biso   1.000  H
  C152     1.0000 0.52984  0.68166  0.77750  Biso   1.000  C
  C153     1.0000 0.58189  0.69640  0.75910  Biso   1.000  C
  H146     1.0000 0.58040  0.70520  0.70920  Biso   1.000  H
  C154     1.0000 0.63613  0.69840  0.81280  Biso   1.000  C
  H147     1.0000 0.67050  0.70950  0.79830  Biso   1.000  H
  Cu15     1.0000 0.14907  0.27831  0.05791  Biso   1.000  Cu
  Cu16     1.0000 0.22061  0.19599  0.96079  Biso   1.000  Cu
  N36      1.0000 0.30909  0.12986  0.31423  Biso   1.000  N
  N37      1.0000 0.40687  0.12255  0.39286  Biso   1.000  N
  N38      1.0000 0.34510  0.04067  0.36592  Biso   1.000  N
  N39      1.0000 0.09607  0.27256  0.12796  Biso   1.000  N
  N40      1.0000 0.14209  0.18526  0.88500  Biso   1.000  N
  O71      1.0000 0.25089  0.05005  0.28887  Biso   1.000  O
  O72      1.0000 0.44174  0.03489  0.44194  Biso   1.000  O
  O73      1.0000 0.37213  0.20745  0.33689  Biso   1.000  O
  O74      1.0000 0.21807  0.24431  0.13610  Biso   1.000  O
  O75      1.0000 0.18619  0.16631  0.06805  Biso   1.000  O
  O76      1.0000 0.57562  0.19890  0.48047  Biso   1.000  O
  O77      1.0000 0.61434  0.16015  0.39259  Biso   1.000  O
  O78      1.0000 0.31934  0.86543  0.40306  Biso   1.000  O
  O79      1.0000 0.24469  0.88403  0.45446  Biso   1.000  O
  O80      1.0000 0.30094  0.22406  0.01526  Biso   1.000  O
  H148     1.0000 0.31870  0.20130  0.06080  Biso   1.000  H
  C155     1.0000 0.29890  0.07250  0.32120  Biso   1.000  C
  C156     1.0000 0.40116  0.06429  0.40310  Biso   1.000  C
  C157     1.0000 0.36319  0.15652  0.34710  Biso   1.000  C
  C158     1.0000 0.26147  0.16357  0.26100  Biso   1.000  C
  H149     1.0000 0.22190  0.15110  0.26460  Biso   1.000  H
  H150     1.0000 0.26600  0.20430  0.27400  Biso   1.000  H
  C159     1.0000 0.26614  0.15493  0.18080  Biso   1.000  C
  H151     1.0000 0.26020  0.11430  0.16760  Biso   1.000  H
  H152     1.0000 0.30650  0.16570  0.17820  Biso   1.000  H
  C160     1.0000 0.22017  0.19024  0.12490  Biso   1.000  C
  C161     1.0000 0.46574  0.14983  0.43100  Biso   1.000  C
  H153     1.0000 0.45910  0.19000  0.44190  Biso   1.000  H
  H154     1.0000 0.48320  0.13030  0.47850  Biso   1.000  H
  C162     1.0000 0.50939  0.14670  0.38210  Biso   1.000  C
  H155     1.0000 0.51320  0.10670  0.36800  Biso   1.000  H
  H156     1.0000 0.49280  0.16850  0.33610  Biso   1.000  H
  C163     1.0000 0.57176  0.17007  0.42080  Biso   1.000  C
  C164     1.0000 0.33681  0.97785  0.37170  Biso   1.000  C
  H157     1.0000 0.31570  0.96270  0.32250  Biso   1.000  H
  H158     1.0000 0.37620  0.95930  0.38730  Biso   1.000  H
  C165     1.0000 0.30093  0.96338  0.42800  Biso   1.000  C
  H159     1.0000 0.32370  0.97530  0.47810  Biso   1.000  H
  H160     1.0000 0.26300  0.98460  0.41500  Biso   1.000  H
  C166     1.0000 0.28793  0.89898  0.42800  Biso   1.000  C
  C167     1.0000 0.08690  0.22520  0.16330  Biso   1.000  C
  H161     1.0000 0.10690  0.19150  0.15630  Biso   1.000  H
  C168     1.0000 0.04890  0.22350  0.21030  Biso   1.000  C
  H162     1.0000 0.04300  0.18860  0.23260  Biso   1.000  H
  C169     1.0000 0.02010  0.27110  0.22470  Biso   1.000  C
  C170     1.0000 0.02780  0.32030  0.18700  Biso   1.000  C
  H163     1.0000 0.00740  0.35400  0.19300  Biso   1.000  H
  C171     1.0000 0.06600  0.32020  0.14000  Biso   1.000  C
  H164     1.0000 0.07110  0.35430  0.11560  Biso   1.000  H
  C172     1.0000 0.09196  0.17050  0.90390  Biso   1.000  C
  H165     1.0000 0.09490  0.16060  0.95390  Biso   1.000  H
  C173     1.0000 0.03567  0.16910  0.85260  Biso   1.000  C
  H166     1.0000 0.00160  0.15960  0.86860  Biso   1.000  H
  C174     1.0000 0.02984  0.18166  0.77750  Biso   1.000  C
  C175     1.0000 0.08189  0.19640  0.75910  Biso   1.000  C
  H167     1.0000 0.08040  0.20520  0.70920  Biso   1.000  H
  C176     1.0000 0.13613  0.19840  0.81280  Biso   1.000  C
  H168     1.0000 0.17050  0.20950  0.79830  Biso   1.000  H
