data_image0
_cell_length_a       14.46
_cell_length_b       13.063
_cell_length_c       22.054
_cell_angle_alpha    90
_cell_angle_beta     125.16
_cell_angle_gamma    90

_symmetry_space_group_name_H-M    "P 1"
_symmetry_int_tables_number       1

loop_
  _symmetry_equiv_pos_as_xyz
  'x, y, z'

loop_
  _atom_site_label
  _atom_site_occupancy
  _atom_site_fract_x
  _atom_site_fract_y
  _atom_site_fract_z
  _atom_site_thermal_displace_type
  _atom_site_B_iso_or_equiv
  _atom_site_type_symbol
  Mn1      1.0000 0.22733  0.55772  0.72707  Biso   1.000  Mn
  Mn2      1.0000 0.29507  0.72915  0.86879  Biso   1.000  Mn
  O1       1.0000 0.23680  0.58910  0.88545  Biso   1.000  O
  O2       1.0000 0.44460  0.70440  0.98350  Biso   1.000  O
  H1       1.0000 0.42470  0.69460  0.01430  Biso   1.000  H
  H2       1.0000 0.49060  0.75790  0.99990  Biso   1.000  H
  O3       1.0000 0.15520  0.50210  0.77930  Biso   1.000  O
  O4       1.0000 0.85330  0.25940  0.74144  Biso   1.000  O
  O5       1.0000 0.90290  0.16000  0.83760  Biso   1.000  O
  O6       1.0000 0.20300  0.05690  0.14976  Biso   1.000  O
  O7       1.0000 0.35690  0.08180  0.26108  Biso   1.000  O
  O8       1.0000 0.64410  0.34350  0.28180  Biso   1.000  O
  O9       1.0000 0.62870  0.36210  0.17728  Biso   1.000  O
  O10      1.0000 0.21050  0.81870  0.90630  Biso   1.000  O
  O11      1.0000 0.37350  0.86340  0.86100  Biso   1.000  O
  N1       1.0000 0.13560  0.85900  0.96810  Biso   1.000  N
  N2       1.0000 0.48510  0.98990  0.86860  Biso   1.000  N
  C1       1.0000 0.18340  0.51410  0.84430  Biso   1.000  C
  C2       1.0000 0.15130  0.42900  0.87480  Biso   1.000  C
  C3       1.0000 0.22410  0.40240  0.94900  Biso   1.000  C
  H3       1.0000 0.28830  0.44180  0.98030  Biso   1.000  H
  C4       1.0000 0.20270  0.31750  0.97790  Biso   1.000  C
  C5       1.0000 0.10170  0.26450  0.92990  Biso   1.000  C
  H4       1.0000 0.08480  0.20820  0.94770  Biso   1.000  H
  C6       1.0000 0.02560  0.29370  0.85600  Biso   1.000  C
  C7       1.0000 0.91820  0.23340  0.80740  Biso   1.000  C
  C8       1.0000 0.05190  0.37390  0.82790  Biso   1.000  C
  H5       1.0000 0.00360  0.39110  0.77800  Biso   1.000  H
  C9       1.0000 0.28430  0.28380  0.05540  Biso   1.000  C
  C10      1.0000 0.39620  0.31840  0.09720  Biso   1.000  C
  H6       1.0000 0.42030  0.36120  0.07520  Biso   1.000  H
  C11      1.0000 0.47220  0.29010  0.17080  Biso   1.000  C
  C12      1.0000 0.58840  0.33250  0.21320  Biso   1.000  C
  C13      1.0000 0.43850  0.22480  0.20420  Biso   1.000  C
  H7       1.0000 0.48840  0.20790  0.25410  Biso   1.000  H
  C14      1.0000 0.32920  0.18430  0.16230  Biso   1.000  C
  C15      1.0000 0.29510  0.10380  0.19390  Biso   1.000  C
  C16      1.0000 0.25380  0.21560  0.08960  Biso   1.000  C
  H8       1.0000 0.18030  0.19020  0.06260  Biso   1.000  H
  C17      1.0000 0.44250  0.91680  0.88340  Biso   1.000  C
  H9       1.0000 0.49080  0.90460  0.93410  Biso   1.000  H
  C18      1.0000 0.58360  0.04500  0.91820  Biso   1.000  C
  H10      1.0000 0.64110  0.02660  0.91120  Biso   1.000  H
  H11      1.0000 0.60920  0.02920  0.96810  Biso   1.000  H
  H12      1.0000 0.56830  0.11690  0.90940  Biso   1.000  H
  C19      1.0000 0.42860  0.02330  0.79480  Biso   1.000  C
  H13      1.0000 0.46780  0.99870  0.77440  Biso   1.000  H
  H14      1.0000 0.42670  0.09670  0.79340  Biso   1.000  H
  H15      1.0000 0.35270  0.99720  0.76620  Biso   1.000  H
  C20      1.0000 0.19440  0.80110  0.95150  Biso   1.000  C
  H16      1.0000 0.22550  0.74100  0.97850  Biso   1.000  H
  C21      1.0000 0.13280  0.83470  0.03140  Biso   1.000  C
  H17      1.0000 0.06410  0.79890  0.01470  Biso   1.000  H
  H18      1.0000 0.13610  0.89690  0.05580  Biso   1.000  H
  H19      1.0000 0.19650  0.79240  0.06550  Biso   1.000  H
  C22      1.0000 0.07310  0.94590  0.92310  Biso   1.000  C
  H20      1.0000 0.09500  0.00560  0.95390  Biso   1.000  H
  H21      1.0000 0.99360  0.93390  0.89850  Biso   1.000  H
  H22      1.0000 0.08890  0.95640  0.88680  Biso   1.000  H
  Mn3      1.0000 0.77267  0.05772  0.77293  Biso   1.000  Mn
  Mn4      1.0000 0.70493  0.22915  0.63121  Biso   1.000  Mn
  O12      1.0000 0.76320  0.08910  0.61455  Biso   1.000  O
  O13      1.0000 0.55540  0.20440  0.51650  Biso   1.000  O
  H23      1.0000 0.57530  0.19460  0.48570  Biso   1.000  H
  H24      1.0000 0.50940  0.25790  0.50010  Biso   1.000  H
  O14      1.0000 0.84480  0.00210  0.72070  Biso   1.000  O
  O15      1.0000 0.14670  0.75940  0.75856  Biso   1.000  O
  O16      1.0000 0.09710  0.66000  0.66240  Biso   1.000  O
  O17      1.0000 0.79700  0.55690  0.35024  Biso   1.000  O
  O18      1.0000 0.64310  0.58180  0.23892  Biso   1.000  O
  O19      1.0000 0.35590  0.84350  0.21820  Biso   1.000  O
  O20      1.0000 0.37130  0.86210  0.32272  Biso   1.000  O
  O21      1.0000 0.78950  0.31870  0.59370  Biso   1.000  O
  O22      1.0000 0.62650  0.36340  0.63900  Biso   1.000  O
  N3       1.0000 0.86440  0.35900  0.53190  Biso   1.000  N
  N4       1.0000 0.51490  0.48990  0.63140  Biso   1.000  N
  C23      1.0000 0.81660  0.01410  0.65570  Biso   1.000  C
  C24      1.0000 0.84870  0.92900  0.62520  Biso   1.000  C
  C25      1.0000 0.77590  0.90240  0.55100  Biso   1.000  C
  H25      1.0000 0.71170  0.94180  0.51970  Biso   1.000  H
  C26      1.0000 0.79730  0.81750  0.52210  Biso   1.000  C
  C27      1.0000 0.89830  0.76450  0.57010  Biso   1.000  C
  H26      1.0000 0.91520  0.70820  0.55230  Biso   1.000  H
  C28      1.0000 0.97440  0.79370  0.64400  Biso   1.000  C
  C29      1.0000 0.08180  0.73340  0.69260  Biso   1.000  C
  C30      1.0000 0.94810  0.87390  0.67210  Biso   1.000  C
  H27      1.0000 0.99640  0.89110  0.72200  Biso   1.000  H
  C31      1.0000 0.71570  0.78380  0.44460  Biso   1.000  C
  C32      1.0000 0.60380  0.81840  0.40280  Biso   1.000  C
  H28      1.0000 0.57970  0.86120  0.42480  Biso   1.000  H
  C33      1.0000 0.52780  0.79010  0.32920  Biso   1.000  C
  C34      1.0000 0.41160  0.83250  0.28680  Biso   1.000  C
  C35      1.0000 0.56150  0.72480  0.29580  Biso   1.000  C
  H29      1.0000 0.51160  0.70790  0.24590  Biso   1.000  H
  C36      1.0000 0.67080  0.68430  0.33770  Biso   1.000  C
  C37      1.0000 0.70490  0.60380  0.30610  Biso   1.000  C
  C38      1.0000 0.74620  0.71560  0.41040  Biso   1.000  C
  H30      1.0000 0.81970  0.69020  0.43740  Biso   1.000  H
  C39      1.0000 0.55750  0.41680  0.61660  Biso   1.000  C
  H31      1.0000 0.50920  0.40460  0.56590  Biso   1.000  H
  C40      1.0000 0.41640  0.54500  0.58180  Biso   1.000  C
  H32      1.0000 0.35890  0.52660  0.58880  Biso   1.000  H
  H33      1.0000 0.39080  0.52920  0.53190  Biso   1.000  H
  H34      1.0000 0.43170  0.61690  0.59060  Biso   1.000  H
  C41      1.0000 0.57140  0.52330  0.70520  Biso   1.000  C
  H35      1.0000 0.53220  0.49870  0.72560  Biso   1.000  H
  H36      1.0000 0.57330  0.59670  0.70660  Biso   1.000  H
  H37      1.0000 0.64730  0.49720  0.73380  Biso   1.000  H
  C42      1.0000 0.80560  0.30110  0.54850  Biso   1.000  C
  H38      1.0000 0.77450  0.24100  0.52150  Biso   1.000  H
  C43      1.0000 0.86720  0.33470  0.46860  Biso   1.000  C
  H39      1.0000 0.93590  0.29890  0.48530  Biso   1.000  H
  H40      1.0000 0.86390  0.39690  0.44420  Biso   1.000  H
  H41      1.0000 0.80350  0.29240  0.43450  Biso   1.000  H
  C44      1.0000 0.92690  0.44590  0.57690  Biso   1.000  C
  H42      1.0000 0.90500  0.50560  0.54610  Biso   1.000  H
  H43      1.0000 0.00640  0.43390  0.60150  Biso   1.000  H
  H44      1.0000 0.91110  0.45640  0.61320  Biso   1.000  H
  Mn5      1.0000 0.77267  0.44228  0.27293  Biso   1.000  Mn
  Mn6      1.0000 0.70493  0.27085  0.13121  Biso   1.000  Mn
  O23      1.0000 0.76320  0.41090  0.11455  Biso   1.000  O
  O24      1.0000 0.55540  0.29560  0.01650  Biso   1.000  O
  H45      1.0000 0.57530  0.30540  0.98570  Biso   1.000  H
  H46      1.0000 0.50940  0.24210  0.00010  Biso   1.000  H
  O25      1.0000 0.84480  0.49790  0.22070  Biso   1.000  O
  O26      1.0000 0.14670  0.74060  0.25856  Biso   1.000  O
  O27      1.0000 0.09710  0.84000  0.16240  Biso   1.000  O
  O28      1.0000 0.79700  0.94310  0.85024  Biso   1.000  O
  O29      1.0000 0.64310  0.91820  0.73892  Biso   1.000  O
  O30      1.0000 0.35590  0.65650  0.71820  Biso   1.000  O
  O31      1.0000 0.37130  0.63790  0.82272  Biso   1.000  O
  O32      1.0000 0.78950  0.18130  0.09370  Biso   1.000  O
  O33      1.0000 0.62650  0.13660  0.13900  Biso   1.000  O
  N5       1.0000 0.86440  0.14100  0.03190  Biso   1.000  N
  N6       1.0000 0.51490  0.01010  0.13140  Biso   1.000  N
  C45      1.0000 0.81660  0.48590  0.15570  Biso   1.000  C
  C46      1.0000 0.84870  0.57100  0.12520  Biso   1.000  C
  C47      1.0000 0.77590  0.59760  0.05100  Biso   1.000  C
  H47      1.0000 0.71170  0.55820  0.01970  Biso   1.000  H
  C48      1.0000 0.79730  0.68250  0.02210  Biso   1.000  C
  C49      1.0000 0.89830  0.73550  0.07010  Biso   1.000  C
  H48      1.0000 0.91520  0.79180  0.05230  Biso   1.000  H
  C50      1.0000 0.97440  0.70630  0.14400  Biso   1.000  C
  C51      1.0000 0.08180  0.76660  0.19260  Biso   1.000  C
  C52      1.0000 0.94810  0.62610  0.17210  Biso   1.000  C
  H49      1.0000 0.99640  0.60890  0.22200  Biso   1.000  H
  C53      1.0000 0.71570  0.71620  0.94460  Biso   1.000  C
  C54      1.0000 0.60380  0.68160  0.90280  Biso   1.000  C
  H50      1.0000 0.57970  0.63880  0.92480  Biso   1.000  H
  C55      1.0000 0.52780  0.70990  0.82920  Biso   1.000  C
  C56      1.0000 0.41160  0.66750  0.78680  Biso   1.000  C
  C57      1.0000 0.56150  0.77520  0.79580  Biso   1.000  C
  H51      1.0000 0.51160  0.79210  0.74590  Biso   1.000  H
  C58      1.0000 0.67080  0.81570  0.83770  Biso   1.000  C
  C59      1.0000 0.70490  0.89620  0.80610  Biso   1.000  C
  C60      1.0000 0.74620  0.78440  0.91040  Biso   1.000  C
  H52      1.0000 0.81970  0.80980  0.93740  Biso   1.000  H
  C61      1.0000 0.55750  0.08320  0.11660  Biso   1.000  C
  H53      1.0000 0.50920  0.09540  0.06590  Biso   1.000  H
  C62      1.0000 0.41640  0.95500  0.08180  Biso   1.000  C
  H54      1.0000 0.35890  0.97340  0.08880  Biso   1.000  H
  H55      1.0000 0.39080  0.97080  0.03190  Biso   1.000  H
  H56      1.0000 0.43170  0.88310  0.09060  Biso   1.000  H
  C63      1.0000 0.57140  0.97670  0.20520  Biso   1.000  C
  H57      1.0000 0.53220  0.00130  0.22560  Biso   1.000  H
  H58      1.0000 0.57330  0.90330  0.20660  Biso   1.000  H
  H59      1.0000 0.64730  0.00280  0.23380  Biso   1.000  H
  C64      1.0000 0.80560  0.19890  0.04850  Biso   1.000  C
  H60      1.0000 0.77450  0.25900  0.02150  Biso   1.000  H
  C65      1.0000 0.86720  0.16530  0.96860  Biso   1.000  C
  H61      1.0000 0.93590  0.20110  0.98530  Biso   1.000  H
  H62      1.0000 0.86390  0.10310  0.94420  Biso   1.000  H
  H63      1.0000 0.80350  0.20760  0.93450  Biso   1.000  H
  C66      1.0000 0.92690  0.05410  0.07690  Biso   1.000  C
  H64      1.0000 0.90500  0.99440  0.04610  Biso   1.000  H
  H65      1.0000 0.00640  0.06610  0.10150  Biso   1.000  H
  H66      1.0000 0.91110  0.04360  0.11320  Biso   1.000  H
  Mn7      1.0000 0.22733  0.94228  0.22707  Biso   1.000  Mn
  Mn8      1.0000 0.29507  0.77085  0.36879  Biso   1.000  Mn
  O34      1.0000 0.23680  0.91090  0.38545  Biso   1.000  O
  O35      1.0000 0.44460  0.79560  0.48350  Biso   1.000  O
  H67      1.0000 0.42470  0.80540  0.51430  Biso   1.000  H
  H68      1.0000 0.49060  0.74210  0.49990  Biso   1.000  H
  O36      1.0000 0.15520  0.99790  0.27930  Biso   1.000  O
  O37      1.0000 0.85330  0.24060  0.24144  Biso   1.000  O
  O38      1.0000 0.90290  0.34000  0.33760  Biso   1.000  O
  O39      1.0000 0.20300  0.44310  0.64976  Biso   1.000  O
  O40      1.0000 0.35690  0.41820  0.76108  Biso   1.000  O
  O41      1.0000 0.64410  0.15650  0.78180  Biso   1.000  O
  O42      1.0000 0.62870  0.13790  0.67728  Biso   1.000  O
  O43      1.0000 0.21050  0.68130  0.40630  Biso   1.000  O
  O44      1.0000 0.37350  0.63660  0.36100  Biso   1.000  O
  N7       1.0000 0.13560  0.64100  0.46810  Biso   1.000  N
  N8       1.0000 0.48510  0.51010  0.36860  Biso   1.000  N
  C67      1.0000 0.18340  0.98590  0.34430  Biso   1.000  C
  C68      1.0000 0.15130  0.07100  0.37480  Biso   1.000  C
  C69      1.0000 0.22410  0.09760  0.44900  Biso   1.000  C
  H69      1.0000 0.28830  0.05820  0.48030  Biso   1.000  H
  C70      1.0000 0.20270  0.18250  0.47790  Biso   1.000  C
  C71      1.0000 0.10170  0.23550  0.42990  Biso   1.000  C
  H70      1.0000 0.08480  0.29180  0.44770  Biso   1.000  H
  C72      1.0000 0.02560  0.20630  0.35600  Biso   1.000  C
  C73      1.0000 0.91820  0.26660  0.30740  Biso   1.000  C
  C74      1.0000 0.05190  0.12610  0.32790  Biso   1.000  C
  H71      1.0000 0.00360  0.10890  0.27800  Biso   1.000  H
  C75      1.0000 0.28430  0.21620  0.55540  Biso   1.000  C
  C76      1.0000 0.39620  0.18160  0.59720  Biso   1.000  C
  H72      1.0000 0.42030  0.13880  0.57520  Biso   1.000  H
  C77      1.0000 0.47220  0.20990  0.67080  Biso   1.000  C
  C78      1.0000 0.58840  0.16750  0.71320  Biso   1.000  C
  C79      1.0000 0.43850  0.27520  0.70420  Biso   1.000  C
  H73      1.0000 0.48840  0.29210  0.75410  Biso   1.000  H
  C80      1.0000 0.32920  0.31570  0.66230  Biso   1.000  C
  C81      1.0000 0.29510  0.39620  0.69390  Biso   1.000  C
  C82      1.0000 0.25380  0.28440  0.58960  Biso   1.000  C
  H74      1.0000 0.18030  0.30980  0.56260  Biso   1.000  H
  C83      1.0000 0.44250  0.58320  0.38340  Biso   1.000  C
  H75      1.0000 0.49080  0.59540  0.43410  Biso   1.000  H
  C84      1.0000 0.58360  0.45500  0.41820  Biso   1.000  C
  H76      1.0000 0.64110  0.47340  0.41120  Biso   1.000  H
  H77      1.0000 0.60920  0.47080  0.46810  Biso   1.000  H
  H78      1.0000 0.56830  0.38310  0.40940  Biso   1.000  H
  C85      1.0000 0.42860  0.47670  0.29480  Biso   1.000  C
  H79      1.0000 0.46780  0.50130  0.27440  Biso   1.000  H
  H80      1.0000 0.42670  0.40330  0.29340  Biso   1.000  H
  H81      1.0000 0.35270  0.50280  0.26620  Biso   1.000  H
  C86      1.0000 0.19440  0.69890  0.45150  Biso   1.000  C
  H82      1.0000 0.22550  0.75900  0.47850  Biso   1.000  H
  C87      1.0000 0.13280  0.66530  0.53140  Biso   1.000  C
  H83      1.0000 0.06410  0.70110  0.51470  Biso   1.000  H
  H84      1.0000 0.13610  0.60310  0.55580  Biso   1.000  H
  H85      1.0000 0.19650  0.70760  0.56550  Biso   1.000  H
  C88      1.0000 0.07310  0.55410  0.42310  Biso   1.000  C
  H86      1.0000 0.09500  0.49440  0.45390  Biso   1.000  H
  H87      1.0000 0.99360  0.56610  0.39850  Biso   1.000  H
  H88      1.0000 0.08890  0.54360  0.38680  Biso   1.000  H
