data_image0
_cell_length_a       9.5369
_cell_length_b       9.1544
_cell_length_c       13.3131
_cell_angle_alpha    90
_cell_angle_beta     90.483
_cell_angle_gamma    90

_symmetry_space_group_name_H-M    "P 1"
_symmetry_int_tables_number       1

loop_
  _symmetry_equiv_pos_as_xyz
  'x, y, z'

loop_
  _atom_site_label
  _atom_site_occupancy
  _atom_site_fract_x
  _atom_site_fract_y
  _atom_site_fract_z
  _atom_site_thermal_displace_type
  _atom_site_B_iso_or_equiv
  _atom_site_type_symbol
  O1       1.0000 0.81971  0.88968  0.45533  Biso   1.000  O
  C1       1.0000 0.75445  0.77233  0.47194  Biso   1.000  C
  H1       1.0000 0.80320  0.69940  0.50610  Biso   1.000  H
  O2       1.0000 0.63367  0.74520  0.44754  Biso   1.000  O
  O3       1.0000 0.90328  0.19642  0.45844  Biso   1.000  O
  C2       1.0000 0.77879  0.24219  0.47021  Biso   1.000  C
  H2       1.0000 0.71590  0.17820  0.50000  Biso   1.000  H
  O4       1.0000 0.73391  0.36179  0.44620  Biso   1.000  O
  O5       1.0000 0.58236  0.52059  0.85536  Biso   1.000  O
  C3       1.0000 0.53467  0.51223  0.76651  Biso   1.000  C
  H3       1.0000 0.44140  0.48420  0.75950  Biso   1.000  H
  O6       1.0000 0.59753  0.53680  0.68947  Biso   1.000  O
  O7       1.0000 0.68029  0.38968  0.04467  Biso   1.000  O
  C4       1.0000 0.74555  0.27233  0.02806  Biso   1.000  C
  H4       1.0000 0.69680  0.19940  0.99390  Biso   1.000  H
  O8       1.0000 0.86633  0.24520  0.05246  Biso   1.000  O
  O9       1.0000 0.59672  0.69642  0.04156  Biso   1.000  O
  C5       1.0000 0.72121  0.74219  0.02979  Biso   1.000  C
  H5       1.0000 0.78410  0.67820  0.00000  Biso   1.000  H
  O10      1.0000 0.76609  0.86179  0.05380  Biso   1.000  O
  O11      1.0000 0.91764  0.02059  0.64464  Biso   1.000  O
  C6       1.0000 0.96533  0.01223  0.73349  Biso   1.000  C
  H6       1.0000 0.05860  0.98420  0.74050  Biso   1.000  H
  O12      1.0000 0.90247  0.03680  0.81053  Biso   1.000  O
  O13      1.0000 0.18029  0.11032  0.54467  Biso   1.000  O
  C7       1.0000 0.24555  0.22767  0.52806  Biso   1.000  C
  H7       1.0000 0.19680  0.30060  0.49390  Biso   1.000  H
  O14      1.0000 0.36633  0.25480  0.55246  Biso   1.000  O
  O15      1.0000 0.09672  0.80358  0.54156  Biso   1.000  O
  C8       1.0000 0.22121  0.75781  0.52979  Biso   1.000  C
  H8       1.0000 0.28410  0.82180  0.50000  Biso   1.000  H
  O16      1.0000 0.26609  0.63821  0.55380  Biso   1.000  O
  O17      1.0000 0.41764  0.47941  0.14464  Biso   1.000  O
  C9       1.0000 0.46533  0.48777  0.23349  Biso   1.000  C
  H9       1.0000 0.55860  0.51580  0.24050  Biso   1.000  H
  O18      1.0000 0.40247  0.46320  0.31053  Biso   1.000  O
  O19      1.0000 0.31971  0.61032  0.95533  Biso   1.000  O
  C10      1.0000 0.25445  0.72767  0.97194  Biso   1.000  C
  H10      1.0000 0.30320  0.80060  0.00610  Biso   1.000  H
  O20      1.0000 0.13367  0.75480  0.94754  Biso   1.000  O
  O21      1.0000 0.40328  0.30358  0.95844  Biso   1.000  O
  C11      1.0000 0.27879  0.25781  0.97021  Biso   1.000  C
  H11      1.0000 0.21590  0.32180  0.00000  Biso   1.000  H
  O22      1.0000 0.23391  0.13821  0.94620  Biso   1.000  O
  O23      1.0000 0.08236  0.97941  0.35536  Biso   1.000  O
  C12      1.0000 0.03467  0.98777  0.26651  Biso   1.000  C
  H12      1.0000 0.94140  0.01580  0.25950  Biso   1.000  H
  O24      1.0000 0.09753  0.96320  0.18947  Biso   1.000  O
  Sc1      1.0000 0.00000  0.00000  0.50000  Biso   1.000  Sc
  Sc2      1.0000 0.50000  0.50000  0.00000  Biso   1.000  Sc
  K1       1.0000 0.50000  0.50000  0.50000  Biso   1.000  K
  K2       1.0000 0.00000  0.00000  0.00000  Biso   1.000  K
