data_image0
_cell_length_a       24.6661
_cell_length_b       24.6661
_cell_length_c       24.6661
_cell_angle_alpha    109.471
_cell_angle_beta     109.471
_cell_angle_gamma    109.471

_symmetry_space_group_name_H-M    P 1
_symmetry_int_tables_number       1

loop_
  _symmetry_equiv_pos_as_xyz
  'x, y, z'

loop_
  _atom_site_label
  _atom_site_occupancy
  _atom_site_fract_x
  _atom_site_fract_y
  _atom_site_fract_z
  _atom_site_thermal_displace_type
  _atom_site_B_iso_or_equiv
  _atom_site_type_symbol
  Ni1      1.0000 0.08020  0.08945  0.40686  Biso   1.000  Ni
  Ni2      1.0000 0.68259  0.67334  0.59313  Biso   1.000  Ni
  Ni3      1.0000 0.31741  0.91055  0.99075  Biso   1.000  Ni
  Ni4      1.0000 0.91980  0.32666  0.00926  Biso   1.000  Ni
  Ni5      1.0000 0.99075  0.31741  0.91055  Biso   1.000  Ni
  Ni6      1.0000 0.00925  0.91979  0.32666  Biso   1.000  Ni
  Ni7      1.0000 0.40686  0.08020  0.08945  Biso   1.000  Ni
  Ni8      1.0000 0.59314  0.68260  0.67334  Biso   1.000  Ni
  Ni9      1.0000 0.67334  0.59314  0.68259  Biso   1.000  Ni
  Ni10     1.0000 0.08946  0.40687  0.08021  Biso   1.000  Ni
  Ni11     1.0000 0.32666  0.00925  0.91980  Biso   1.000  Ni
  Ni12     1.0000 0.91054  0.99074  0.31740  Biso   1.000  Ni
  H1       1.0000 0.18280  0.10930  0.59430  Biso   1.000  H
  H2       1.0000 0.24220  0.11260  0.69420  Biso   1.000  H
  H3       1.0000 0.20990  0.93350  0.59400  Biso   1.000  H
  H4       1.0000 0.14810  0.92650  0.49240  Biso   1.000  H
  H5       1.0000 0.30100  0.11750  0.77970  Biso   1.000  H
  H6       1.0000 0.33860  0.11150  0.87270  Biso   1.000  H
  H7       1.0000 0.26250  0.92150  0.77420  Biso   1.000  H
  H8       1.0000 0.22200  0.91890  0.67250  Biso   1.000  H
  H9       1.0000 0.12810  0.92030  0.23260  Biso   1.000  H
  H10      1.0000 0.16570  0.86930  0.15960  Biso   1.000  H
  H11      1.0000 0.22180  0.12020  0.34360  Biso   1.000  H
  H12      1.0000 0.51500  0.58850  0.40570  Biso   1.000  H
  H13      1.0000 0.41840  0.54800  0.30580  Biso   1.000  H
  H14      1.0000 0.33950  0.61590  0.40600  Biso   1.000  H
  H15      1.0000 0.43410  0.65570  0.50760  Biso   1.000  H
  H16      1.0000 0.33780  0.52130  0.22030  Biso   1.000  H
  H17      1.0000 0.23880  0.46590  0.12730  Biso   1.000  H
  H18      1.0000 0.14730  0.48830  0.22580  Biso   1.000  H
  H19      1.0000 0.24640  0.54950  0.32750  Biso   1.000  H
  H20      1.0000 0.68770  0.89550  0.76740  Biso   1.000  H
  H21      1.0000 0.70970  0.00610  0.84040  Biso   1.000  H
  H22      1.0000 0.77660  0.87820  0.65640  Biso   1.000  H
  H23      1.0000 0.48500  0.89070  0.07350  Biso   1.000  H
  H24      1.0000 0.58160  0.88740  0.12960  Biso   1.000  H
  H25      1.0000 0.66050  0.06650  0.27640  Biso   1.000  H
  H26      1.0000 0.56590  0.07350  0.22160  Biso   1.000  H
  H27      1.0000 0.66220  0.88250  0.18350  Biso   1.000  H
  H28      1.0000 0.76120  0.88850  0.22710  Biso   1.000  H
  H29      1.0000 0.85270  0.07850  0.34100  Biso   1.000  H
  H30      1.0000 0.75360  0.08110  0.30310  Biso   1.000  H
  H31      1.0000 0.31230  0.07970  0.20780  Biso   1.000  H
  H32      1.0000 0.29030  0.13070  0.29640  Biso   1.000  H
  H33      1.0000 0.22340  0.87980  0.10160  Biso   1.000  H
  H34      1.0000 0.81720  0.41150  0.92650  Biso   1.000  H
  H35      1.0000 0.75780  0.45200  0.87040  Biso   1.000  H
  H36      1.0000 0.79010  0.38410  0.72360  Biso   1.000  H
  H37      1.0000 0.85190  0.34430  0.77840  Biso   1.000  H
  H38      1.0000 0.69900  0.47870  0.81650  Biso   1.000  H
  H39      1.0000 0.66140  0.53410  0.77290  Biso   1.000  H
  H40      1.0000 0.73750  0.51170  0.65900  Biso   1.000  H
  H41      1.0000 0.77800  0.45050  0.69690  Biso   1.000  H
  H42      1.0000 0.87190  0.10450  0.79220  Biso   1.000  H
  H43      1.0000 0.83430  0.99390  0.70360  Biso   1.000  H
  H44      1.0000 0.77820  0.12180  0.89840  Biso   1.000  H
  H45      1.0000 0.07350  0.48500  0.89070  Biso   1.000  H
  H46      1.0000 0.12960  0.58160  0.88740  Biso   1.000  H
  H47      1.0000 0.27640  0.66050  0.06650  Biso   1.000  H
  H48      1.0000 0.22160  0.56590  0.07350  Biso   1.000  H
  H49      1.0000 0.18350  0.66220  0.88250  Biso   1.000  H
  H50      1.0000 0.22710  0.76120  0.88850  Biso   1.000  H
  H51      1.0000 0.34100  0.85270  0.07850  Biso   1.000  H
  H52      1.0000 0.30310  0.75360  0.08110  Biso   1.000  H
  H53      1.0000 0.20780  0.31230  0.07970  Biso   1.000  H
  H54      1.0000 0.29640  0.29030  0.13070  Biso   1.000  H
  H55      1.0000 0.10160  0.22340  0.87980  Biso   1.000  H
  H56      1.0000 0.92650  0.81720  0.41150  Biso   1.000  H
  H57      1.0000 0.87040  0.75780  0.45200  Biso   1.000  H
  H58      1.0000 0.72360  0.79010  0.38410  Biso   1.000  H
  H59      1.0000 0.77840  0.85190  0.34430  Biso   1.000  H
  H60      1.0000 0.81650  0.69900  0.47870  Biso   1.000  H
  H61      1.0000 0.77290  0.66140  0.53410  Biso   1.000  H
  H62      1.0000 0.65900  0.73750  0.51170  Biso   1.000  H
  H63      1.0000 0.69690  0.77800  0.45050  Biso   1.000  H
  H64      1.0000 0.79220  0.87190  0.10450  Biso   1.000  H
  H65      1.0000 0.70360  0.83430  0.99390  Biso   1.000  H
  H66      1.0000 0.89840  0.77820  0.12180  Biso   1.000  H
  H67      1.0000 0.59430  0.18280  0.10930  Biso   1.000  H
  H68      1.0000 0.69420  0.24220  0.11260  Biso   1.000  H
  H69      1.0000 0.59400  0.20990  0.93350  Biso   1.000  H
  H70      1.0000 0.49240  0.14810  0.92650  Biso   1.000  H
  H71      1.0000 0.77970  0.30100  0.11750  Biso   1.000  H
  H72      1.0000 0.87270  0.33860  0.11150  Biso   1.000  H
  H73      1.0000 0.77420  0.26250  0.92150  Biso   1.000  H
  H74      1.0000 0.67250  0.22200  0.91890  Biso   1.000  H
  H75      1.0000 0.23260  0.12810  0.92030  Biso   1.000  H
  H76      1.0000 0.15960  0.16570  0.86930  Biso   1.000  H
  H77      1.0000 0.34360  0.22180  0.12020  Biso   1.000  H
  H78      1.0000 0.40570  0.51500  0.58850  Biso   1.000  H
  H79      1.0000 0.30580  0.41840  0.54800  Biso   1.000  H
  H80      1.0000 0.40600  0.33950  0.61590  Biso   1.000  H
  H81      1.0000 0.50760  0.43410  0.65570  Biso   1.000  H
  H82      1.0000 0.22030  0.33780  0.52130  Biso   1.000  H
  H83      1.0000 0.12730  0.23880  0.46590  Biso   1.000  H
  H84      1.0000 0.22580  0.14730  0.48830  Biso   1.000  H
  H85      1.0000 0.32750  0.24640  0.54950  Biso   1.000  H
  H86      1.0000 0.76740  0.68770  0.89550  Biso   1.000  H
  H87      1.0000 0.84040  0.70970  0.00610  Biso   1.000  H
  H88      1.0000 0.65640  0.77660  0.87820  Biso   1.000  H
  H89      1.0000 0.58850  0.40570  0.51500  Biso   1.000  H
  H90      1.0000 0.54800  0.30580  0.41840  Biso   1.000  H
  H91      1.0000 0.61590  0.40600  0.33950  Biso   1.000  H
  H92      1.0000 0.65570  0.50760  0.43410  Biso   1.000  H
  H93      1.0000 0.52130  0.22030  0.33780  Biso   1.000  H
  H94      1.0000 0.46590  0.12730  0.23880  Biso   1.000  H
  H95      1.0000 0.48830  0.22580  0.14730  Biso   1.000  H
  H96      1.0000 0.54950  0.32750  0.24640  Biso   1.000  H
  H97      1.0000 0.89550  0.76740  0.68770  Biso   1.000  H
  H98      1.0000 0.00610  0.84040  0.70970  Biso   1.000  H
  H99      1.0000 0.87820  0.65640  0.77660  Biso   1.000  H
  H100     1.0000 0.10930  0.59430  0.18280  Biso   1.000  H
  H101     1.0000 0.11260  0.69420  0.24220  Biso   1.000  H
  H102     1.0000 0.93350  0.59400  0.20990  Biso   1.000  H
  H103     1.0000 0.92650  0.49240  0.14810  Biso   1.000  H
  H104     1.0000 0.11750  0.77970  0.30100  Biso   1.000  H
  H105     1.0000 0.11150  0.87270  0.33860  Biso   1.000  H
  H106     1.0000 0.92150  0.77420  0.26250  Biso   1.000  H
  H107     1.0000 0.91890  0.67250  0.22200  Biso   1.000  H
  H108     1.0000 0.92030  0.23260  0.12810  Biso   1.000  H
  H109     1.0000 0.86930  0.15960  0.16570  Biso   1.000  H
  H110     1.0000 0.12020  0.34360  0.22180  Biso   1.000  H
  H111     1.0000 0.41150  0.92650  0.81720  Biso   1.000  H
  H112     1.0000 0.45200  0.87040  0.75780  Biso   1.000  H
  H113     1.0000 0.38410  0.72360  0.79010  Biso   1.000  H
  H114     1.0000 0.34430  0.77840  0.85190  Biso   1.000  H
  H115     1.0000 0.47870  0.81650  0.69900  Biso   1.000  H
  H116     1.0000 0.53410  0.77290  0.66140  Biso   1.000  H
  H117     1.0000 0.51170  0.65900  0.73750  Biso   1.000  H
  H118     1.0000 0.45050  0.69690  0.77800  Biso   1.000  H
  H119     1.0000 0.10450  0.79220  0.87190  Biso   1.000  H
  H120     1.0000 0.99390  0.70360  0.83430  Biso   1.000  H
  H121     1.0000 0.12180  0.89840  0.77820  Biso   1.000  H
  H122     1.0000 0.89070  0.07350  0.48500  Biso   1.000  H
  H123     1.0000 0.88740  0.12960  0.58160  Biso   1.000  H
  H124     1.0000 0.06650  0.27640  0.66050  Biso   1.000  H
  H125     1.0000 0.07350  0.22160  0.56590  Biso   1.000  H
  H126     1.0000 0.88250  0.18350  0.66220  Biso   1.000  H
  H127     1.0000 0.88850  0.22710  0.76120  Biso   1.000  H
  H128     1.0000 0.07850  0.34100  0.85270  Biso   1.000  H
  H129     1.0000 0.08110  0.30310  0.75360  Biso   1.000  H
  H130     1.0000 0.07970  0.20780  0.31230  Biso   1.000  H
  H131     1.0000 0.13070  0.29640  0.29030  Biso   1.000  H
  H132     1.0000 0.87980  0.10160  0.22340  Biso   1.000  H
  C1       1.0000 0.11786  0.01292  0.47056  Biso   1.000  C
  C2       1.0000 0.15809  0.01632  0.53385  Biso   1.000  C
  C3       1.0000 0.18640  0.07179  0.59297  Biso   1.000  C
  C4       1.0000 0.22153  0.07339  0.65288  Biso   1.000  C
  C5       1.0000 0.22593  0.01936  0.65189  Biso   1.000  C
  C6       1.0000 0.20265  0.96920  0.59507  Biso   1.000  C
  C7       1.0000 0.16623  0.96522  0.53333  Biso   1.000  C
  C8       1.0000 0.25336  0.01974  0.71612  Biso   1.000  C
  C9       1.0000 0.29036  0.07540  0.77636  Biso   1.000  C
  C10      1.0000 0.31193  0.07103  0.83150  Biso   1.000  C
  C11      1.0000 0.26850  0.96180  0.77490  Biso   1.000  C
  C12      1.0000 0.24380  0.95906  0.71338  Biso   1.000  C
  C13      1.0000 0.11979  0.01033  0.31846  Biso   1.000  C
  C14      1.0000 0.16646  0.01714  0.29012  Biso   1.000  C
  C15      1.0000 0.15982  0.96312  0.24458  Biso   1.000  C
  C16      1.0000 0.20035  0.96908  0.21335  Biso   1.000  C
  C17      1.0000 0.19372  0.91181  0.16763  Biso   1.000  C
  C18      1.0000 0.21608  0.08177  0.31051  Biso   1.000  C
  C19      1.0000 0.54236  0.64730  0.52944  Biso   1.000  C
  C20      1.0000 0.48247  0.62424  0.46615  Biso   1.000  C
  C21      1.0000 0.47882  0.59343  0.40703  Biso   1.000  C
  C22      1.0000 0.42051  0.56865  0.34712  Biso   1.000  C
  C23      1.0000 0.36747  0.57404  0.34811  Biso   1.000  C
  C24      1.0000 0.37413  0.60758  0.40493  Biso   1.000  C
  C25      1.0000 0.43189  0.63290  0.46667  Biso   1.000  C
  C26      1.0000 0.30362  0.53724  0.28388  Biso   1.000  C
  C27      1.0000 0.29904  0.51400  0.22364  Biso   1.000  C
  C28      1.0000 0.23953  0.48043  0.16850  Biso   1.000  C
  C29      1.0000 0.18690  0.49360  0.22510  Biso   1.000  C
  C30      1.0000 0.24568  0.53042  0.28662  Biso   1.000  C
  C31      1.0000 0.69187  0.80133  0.68154  Biso   1.000  C
  C32      1.0000 0.72702  0.87634  0.70988  Biso   1.000  C
  C33      1.0000 0.71854  0.91524  0.75542  Biso   1.000  C
  C34      1.0000 0.75573  0.98700  0.78665  Biso   1.000  C
  C35      1.0000 0.74418  0.02609  0.83237  Biso   1.000  C
  C36      1.0000 0.77126  0.90557  0.68949  Biso   1.000  C
  C37      1.0000 0.45764  0.98708  0.10494  Biso   1.000  C
  C38      1.0000 0.51753  0.98368  0.14177  Biso   1.000  C
  C39      1.0000 0.52118  0.92821  0.11461  Biso   1.000  C
  C40      1.0000 0.57949  0.92661  0.14814  Biso   1.000  C
  C41      1.0000 0.63253  0.98064  0.20657  Biso   1.000  C
  C42      1.0000 0.62587  0.03080  0.23345  Biso   1.000  C
  C43      1.0000 0.56811  0.03478  0.20101  Biso   1.000  C
  C44      1.0000 0.69638  0.98026  0.23362  Biso   1.000  C
  C45      1.0000 0.70096  0.92460  0.21496  Biso   1.000  C
  C46      1.0000 0.76047  0.92897  0.24090  Biso   1.000  C
  C47      1.0000 0.81310  0.03820  0.30670  Biso   1.000  C
  C48      1.0000 0.75432  0.04094  0.28474  Biso   1.000  C
  C49      1.0000 0.30813  0.98967  0.10946  Biso   1.000  C
  C50      1.0000 0.27298  0.98286  0.14932  Biso   1.000  C
  C51      1.0000 0.28146  0.03688  0.19670  Biso   1.000  C
  C52      1.0000 0.24427  0.03092  0.23127  Biso   1.000  C
  C53      1.0000 0.25582  0.08819  0.28191  Biso   1.000  C
  C54      1.0000 0.22874  0.91823  0.13431  Biso   1.000  C
  C55      1.0000 0.88214  0.35270  0.89506  Biso   1.000  C
  C56      1.0000 0.84191  0.37576  0.85823  Biso   1.000  C
  C57      1.0000 0.81360  0.40657  0.88539  Biso   1.000  C
  C58      1.0000 0.77847  0.43135  0.85186  Biso   1.000  C
  C59      1.0000 0.77407  0.42596  0.79343  Biso   1.000  C
  C60      1.0000 0.79735  0.39242  0.76655  Biso   1.000  C
  C61      1.0000 0.83377  0.36710  0.79899  Biso   1.000  C
  C62      1.0000 0.74664  0.46276  0.76638  Biso   1.000  C
  C63      1.0000 0.70964  0.48600  0.78504  Biso   1.000  C
  C64      1.0000 0.68807  0.51957  0.75910  Biso   1.000  C
  C65      1.0000 0.73150  0.50640  0.69330  Biso   1.000  C
  C66      1.0000 0.75620  0.46958  0.71526  Biso   1.000  C
  C67      1.0000 0.88021  0.19867  0.89054  Biso   1.000  C
  C68      1.0000 0.83354  0.12366  0.85068  Biso   1.000  C
  C69      1.0000 0.84018  0.08476  0.80330  Biso   1.000  C
  C70      1.0000 0.79965  0.01300  0.76873  Biso   1.000  C
  C71      1.0000 0.80628  0.97391  0.71809  Biso   1.000  C
  C72      1.0000 0.78392  0.09443  0.86569  Biso   1.000  C
  C73      1.0000 0.10494  0.45764  0.98708  Biso   1.000  C
  C74      1.0000 0.14177  0.51753  0.98368  Biso   1.000  C
  C75      1.0000 0.11461  0.52118  0.92821  Biso   1.000  C
  C76      1.0000 0.14814  0.57949  0.92661  Biso   1.000  C
  C77      1.0000 0.20657  0.63253  0.98064  Biso   1.000  C
  C78      1.0000 0.23345  0.62587  0.03080  Biso   1.000  C
  C79      1.0000 0.20101  0.56811  0.03478  Biso   1.000  C
  C80      1.0000 0.23362  0.69638  0.98026  Biso   1.000  C
  C81      1.0000 0.21496  0.70096  0.92460  Biso   1.000  C
  C82      1.0000 0.24090  0.76047  0.92897  Biso   1.000  C
  C83      1.0000 0.30670  0.81310  0.03820  Biso   1.000  C
  C84      1.0000 0.28474  0.75432  0.04094  Biso   1.000  C
  C85      1.0000 0.10946  0.30813  0.98967  Biso   1.000  C
  C86      1.0000 0.14932  0.27298  0.98286  Biso   1.000  C
  C87      1.0000 0.19670  0.28146  0.03688  Biso   1.000  C
  C88      1.0000 0.23127  0.24427  0.03092  Biso   1.000  C
  C89      1.0000 0.28191  0.25582  0.08819  Biso   1.000  C
  C90      1.0000 0.13431  0.22874  0.91823  Biso   1.000  C
  C91      1.0000 0.89506  0.88214  0.35270  Biso   1.000  C
  C92      1.0000 0.85823  0.84191  0.37576  Biso   1.000  C
  C93      1.0000 0.88539  0.81360  0.40657  Biso   1.000  C
  C94      1.0000 0.85186  0.77847  0.43135  Biso   1.000  C
  C95      1.0000 0.79343  0.77407  0.42596  Biso   1.000  C
  C96      1.0000 0.76655  0.79735  0.39242  Biso   1.000  C
  C97      1.0000 0.79899  0.83377  0.36710  Biso   1.000  C
  C98      1.0000 0.76638  0.74664  0.46276  Biso   1.000  C
  C99      1.0000 0.78504  0.70964  0.48600  Biso   1.000  C
  C100     1.0000 0.75910  0.68807  0.51957  Biso   1.000  C
  C101     1.0000 0.69330  0.73150  0.50640  Biso   1.000  C
  C102     1.0000 0.71526  0.75620  0.46958  Biso   1.000  C
  C103     1.0000 0.89054  0.88021  0.19867  Biso   1.000  C
  C104     1.0000 0.85068  0.83354  0.12366  Biso   1.000  C
  C105     1.0000 0.80330  0.84018  0.08476  Biso   1.000  C
  C106     1.0000 0.76873  0.79965  0.01300  Biso   1.000  C
  C107     1.0000 0.71809  0.80628  0.97391  Biso   1.000  C
  C108     1.0000 0.86569  0.78392  0.09443  Biso   1.000  C
  C109     1.0000 0.47056  0.11786  0.01292  Biso   1.000  C
  C110     1.0000 0.53385  0.15809  0.01632  Biso   1.000  C
  C111     1.0000 0.59297  0.18640  0.07179  Biso   1.000  C
  C112     1.0000 0.65288  0.22153  0.07339  Biso   1.000  C
  C113     1.0000 0.65189  0.22593  0.01936  Biso   1.000  C
  C114     1.0000 0.59507  0.20265  0.96920  Biso   1.000  C
  C115     1.0000 0.53333  0.16623  0.96522  Biso   1.000  C
  C116     1.0000 0.71612  0.25336  0.01974  Biso   1.000  C
  C117     1.0000 0.77636  0.29036  0.07540  Biso   1.000  C
  C118     1.0000 0.83150  0.31193  0.07103  Biso   1.000  C
  C119     1.0000 0.77490  0.26850  0.96180  Biso   1.000  C
  C120     1.0000 0.71338  0.24380  0.95906  Biso   1.000  C
  C121     1.0000 0.31846  0.11979  0.01033  Biso   1.000  C
  C122     1.0000 0.29012  0.16646  0.01714  Biso   1.000  C
  C123     1.0000 0.24458  0.15982  0.96312  Biso   1.000  C
  C124     1.0000 0.21335  0.20035  0.96908  Biso   1.000  C
  C125     1.0000 0.16763  0.19372  0.91181  Biso   1.000  C
  C126     1.0000 0.31051  0.21608  0.08177  Biso   1.000  C
  C127     1.0000 0.52944  0.54236  0.64730  Biso   1.000  C
  C128     1.0000 0.46615  0.48247  0.62424  Biso   1.000  C
  C129     1.0000 0.40703  0.47882  0.59343  Biso   1.000  C
  C130     1.0000 0.34712  0.42051  0.56865  Biso   1.000  C
  C131     1.0000 0.34811  0.36747  0.57404  Biso   1.000  C
  C132     1.0000 0.40493  0.37413  0.60758  Biso   1.000  C
  C133     1.0000 0.46667  0.43189  0.63290  Biso   1.000  C
  C134     1.0000 0.28388  0.30362  0.53724  Biso   1.000  C
  C135     1.0000 0.22364  0.29904  0.51400  Biso   1.000  C
  C136     1.0000 0.16850  0.23953  0.48043  Biso   1.000  C
  C137     1.0000 0.22510  0.18690  0.49360  Biso   1.000  C
  C138     1.0000 0.28662  0.24568  0.53042  Biso   1.000  C
  C139     1.0000 0.68154  0.69187  0.80133  Biso   1.000  C
  C140     1.0000 0.70988  0.72702  0.87634  Biso   1.000  C
  C141     1.0000 0.75542  0.71854  0.91524  Biso   1.000  C
  C142     1.0000 0.78665  0.75573  0.98700  Biso   1.000  C
  C143     1.0000 0.83237  0.74418  0.02609  Biso   1.000  C
  C144     1.0000 0.68949  0.77126  0.90557  Biso   1.000  C
  C145     1.0000 0.64730  0.52944  0.54236  Biso   1.000  C
  C146     1.0000 0.62424  0.46615  0.48247  Biso   1.000  C
  C147     1.0000 0.59343  0.40703  0.47882  Biso   1.000  C
  C148     1.0000 0.56865  0.34712  0.42051  Biso   1.000  C
  C149     1.0000 0.57404  0.34811  0.36747  Biso   1.000  C
  C150     1.0000 0.60758  0.40493  0.37413  Biso   1.000  C
  C151     1.0000 0.63290  0.46667  0.43189  Biso   1.000  C
  C152     1.0000 0.53724  0.28388  0.30362  Biso   1.000  C
  C153     1.0000 0.51400  0.22364  0.29904  Biso   1.000  C
  C154     1.0000 0.48043  0.16850  0.23953  Biso   1.000  C
  C155     1.0000 0.49360  0.22510  0.18690  Biso   1.000  C
  C156     1.0000 0.53042  0.28662  0.24568  Biso   1.000  C
  C157     1.0000 0.80133  0.68154  0.69187  Biso   1.000  C
  C158     1.0000 0.87634  0.70988  0.72702  Biso   1.000  C
  C159     1.0000 0.91524  0.75542  0.71854  Biso   1.000  C
  C160     1.0000 0.98700  0.78665  0.75573  Biso   1.000  C
  C161     1.0000 0.02609  0.83237  0.74418  Biso   1.000  C
  C162     1.0000 0.90557  0.68949  0.77126  Biso   1.000  C
  C163     1.0000 0.01292  0.47056  0.11786  Biso   1.000  C
  C164     1.0000 0.01632  0.53385  0.15809  Biso   1.000  C
  C165     1.0000 0.07179  0.59297  0.18640  Biso   1.000  C
  C166     1.0000 0.07339  0.65288  0.22153  Biso   1.000  C
  C167     1.0000 0.01936  0.65189  0.22593  Biso   1.000  C
  C168     1.0000 0.96920  0.59507  0.20265  Biso   1.000  C
  C169     1.0000 0.96522  0.53333  0.16623  Biso   1.000  C
  C170     1.0000 0.01974  0.71612  0.25336  Biso   1.000  C
  C171     1.0000 0.07540  0.77636  0.29036  Biso   1.000  C
  C172     1.0000 0.07103  0.83150  0.31193  Biso   1.000  C
  C173     1.0000 0.96180  0.77490  0.26850  Biso   1.000  C
  C174     1.0000 0.95906  0.71338  0.24380  Biso   1.000  C
  C175     1.0000 0.01033  0.31846  0.11979  Biso   1.000  C
  C176     1.0000 0.01714  0.29012  0.16646  Biso   1.000  C
  C177     1.0000 0.96312  0.24458  0.15982  Biso   1.000  C
  C178     1.0000 0.96908  0.21335  0.20035  Biso   1.000  C
  C179     1.0000 0.91181  0.16763  0.19372  Biso   1.000  C
  C180     1.0000 0.08177  0.31051  0.21608  Biso   1.000  C
  C181     1.0000 0.35270  0.89506  0.88214  Biso   1.000  C
  C182     1.0000 0.37576  0.85823  0.84191  Biso   1.000  C
  C183     1.0000 0.40657  0.88539  0.81360  Biso   1.000  C
  C184     1.0000 0.43135  0.85186  0.77847  Biso   1.000  C
  C185     1.0000 0.42596  0.79343  0.77407  Biso   1.000  C
  C186     1.0000 0.39242  0.76655  0.79735  Biso   1.000  C
  C187     1.0000 0.36710  0.79899  0.83377  Biso   1.000  C
  C188     1.0000 0.46276  0.76638  0.74664  Biso   1.000  C
  C189     1.0000 0.48600  0.78504  0.70964  Biso   1.000  C
  C190     1.0000 0.51957  0.75910  0.68807  Biso   1.000  C
  C191     1.0000 0.50640  0.69330  0.73150  Biso   1.000  C
  C192     1.0000 0.46958  0.71526  0.75620  Biso   1.000  C
  C193     1.0000 0.19867  0.89054  0.88021  Biso   1.000  C
  C194     1.0000 0.12366  0.85068  0.83354  Biso   1.000  C
  C195     1.0000 0.08476  0.80330  0.84018  Biso   1.000  C
  C196     1.0000 0.01300  0.76873  0.79965  Biso   1.000  C
  C197     1.0000 0.97391  0.71809  0.80628  Biso   1.000  C
  C198     1.0000 0.09443  0.86569  0.78392  Biso   1.000  C
  C199     1.0000 0.98708  0.10494  0.45764  Biso   1.000  C
  C200     1.0000 0.98368  0.14177  0.51753  Biso   1.000  C
  C201     1.0000 0.92821  0.11461  0.52118  Biso   1.000  C
  C202     1.0000 0.92661  0.14814  0.57949  Biso   1.000  C
  C203     1.0000 0.98064  0.20657  0.63253  Biso   1.000  C
  C204     1.0000 0.03080  0.23345  0.62587  Biso   1.000  C
  C205     1.0000 0.03478  0.20101  0.56811  Biso   1.000  C
  C206     1.0000 0.98026  0.23362  0.69638  Biso   1.000  C
  C207     1.0000 0.92460  0.21496  0.70096  Biso   1.000  C
  C208     1.0000 0.92897  0.24090  0.76047  Biso   1.000  C
  C209     1.0000 0.03820  0.30670  0.81310  Biso   1.000  C
  C210     1.0000 0.04094  0.28474  0.75432  Biso   1.000  C
  C211     1.0000 0.98967  0.10946  0.30813  Biso   1.000  C
  C212     1.0000 0.98286  0.14932  0.27298  Biso   1.000  C
  C213     1.0000 0.03688  0.19670  0.28146  Biso   1.000  C
  C214     1.0000 0.03092  0.23127  0.24427  Biso   1.000  C
  C215     1.0000 0.08819  0.28191  0.25582  Biso   1.000  C
  C216     1.0000 0.91823  0.13431  0.22874  Biso   1.000  C
  N1       1.0000 0.29967  0.01572  0.83393  Biso   1.000  N
  N2       1.0000 0.18179  0.46574  0.16607  Biso   1.000  N
  N3       1.0000 0.81821  0.98428  0.28395  Biso   1.000  N
  N4       1.0000 0.70033  0.53426  0.71605  Biso   1.000  N
  N5       1.0000 0.28395  0.81821  0.98428  Biso   1.000  N
  N6       1.0000 0.71605  0.70033  0.53426  Biso   1.000  N
  N7       1.0000 0.83393  0.29967  0.01572  Biso   1.000  N
  N8       1.0000 0.16607  0.18179  0.46574  Biso   1.000  N
  N9       1.0000 0.46574  0.16607  0.18179  Biso   1.000  N
  N10      1.0000 0.01572  0.83393  0.29967  Biso   1.000  N
  N11      1.0000 0.53426  0.71605  0.70033  Biso   1.000  N
  N12      1.0000 0.98428  0.28395  0.81821  Biso   1.000  N
  O1       1.0000 0.11724  0.06558  0.47686  Biso   1.000  O
  O2       1.0000 0.08809  0.95962  0.41939  Biso   1.000  O
  O3       1.0000 0.12996  0.06310  0.35962  Biso   1.000  O
  O4       1.0000 0.07448  0.95300  0.29510  Biso   1.000  O
  O5       1.0000 0.58872  0.64038  0.52314  Biso   1.000  O
  O6       1.0000 0.54023  0.66870  0.58061  Biso   1.000  O
  O7       1.0000 0.70348  0.77034  0.64038  Biso   1.000  O
  O8       1.0000 0.65790  0.77938  0.70490  Biso   1.000  O
  O9       1.0000 0.41128  0.93442  0.05166  Biso   1.000  O
  O10      1.0000 0.45977  0.04038  0.12847  Biso   1.000  O
  O11      1.0000 0.29652  0.93690  0.06686  Biso   1.000  O
  O12      1.0000 0.34210  0.04700  0.12148  Biso   1.000  O
  O13      1.0000 0.88276  0.35962  0.94834  Biso   1.000  O
  O14      1.0000 0.91191  0.33130  0.87153  Biso   1.000  O
  O15      1.0000 0.87004  0.22966  0.93314  Biso   1.000  O
  O16      1.0000 0.92552  0.22062  0.87852  Biso   1.000  O
  O17      1.0000 0.05166  0.41128  0.93442  Biso   1.000  O
  O18      1.0000 0.12847  0.45977  0.04038  Biso   1.000  O
  O19      1.0000 0.06686  0.29652  0.93690  Biso   1.000  O
  O20      1.0000 0.12148  0.34210  0.04700  Biso   1.000  O
  O21      1.0000 0.94834  0.88276  0.35962  Biso   1.000  O
  O22      1.0000 0.87153  0.91191  0.33130  Biso   1.000  O
  O23      1.0000 0.93314  0.87004  0.22966  Biso   1.000  O
  O24      1.0000 0.87852  0.92552  0.22062  Biso   1.000  O
  O25      1.0000 0.47686  0.11724  0.06558  Biso   1.000  O
  O26      1.0000 0.41939  0.08809  0.95962  Biso   1.000  O
  O27      1.0000 0.35962  0.12996  0.06310  Biso   1.000  O
  O28      1.0000 0.29510  0.07448  0.95300  Biso   1.000  O
  O29      1.0000 0.52314  0.58872  0.64038  Biso   1.000  O
  O30      1.0000 0.58061  0.54023  0.66870  Biso   1.000  O
  O31      1.0000 0.64038  0.70348  0.77034  Biso   1.000  O
  O32      1.0000 0.70490  0.65790  0.77938  Biso   1.000  O
  O33      1.0000 0.64038  0.52314  0.58872  Biso   1.000  O
  O34      1.0000 0.66870  0.58061  0.54023  Biso   1.000  O
  O35      1.0000 0.77034  0.64038  0.70348  Biso   1.000  O
  O36      1.0000 0.77938  0.70490  0.65790  Biso   1.000  O
  O37      1.0000 0.06558  0.47686  0.11724  Biso   1.000  O
  O38      1.0000 0.95962  0.41939  0.08809  Biso   1.000  O
  O39      1.0000 0.06310  0.35962  0.12996  Biso   1.000  O
  O40      1.0000 0.95300  0.29510  0.07448  Biso   1.000  O
  O41      1.0000 0.35962  0.94834  0.88276  Biso   1.000  O
  O42      1.0000 0.33130  0.87153  0.91191  Biso   1.000  O
  O43      1.0000 0.22966  0.93314  0.87004  Biso   1.000  O
  O44      1.0000 0.22062  0.87852  0.92552  Biso   1.000  O
  O45      1.0000 0.93442  0.05166  0.41128  Biso   1.000  O
  O46      1.0000 0.04038  0.12847  0.45977  Biso   1.000  O
  O47      1.0000 0.93690  0.06686  0.29652  Biso   1.000  O
  O48      1.0000 0.04700  0.12148  0.34210  Biso   1.000  O
  O49      1.0000 0.00000  0.00000  0.34858  Biso   1.000  O
  O50      1.0000 0.65142  0.65142  0.65142  Biso   1.000  O
  O51      1.0000 0.34858  0.00000  0.00000  Biso   1.000  O
  O52      1.0000 0.00000  0.34858  0.00000  Biso   1.000  O
