data_image0
_cell_length_a       26.0328
_cell_length_b       9.1655
_cell_length_c       27.4382
_cell_angle_alpha    90
_cell_angle_beta     117.814
_cell_angle_gamma    90

_symmetry_space_group_name_H-M    "P 1"
_symmetry_int_tables_number       1

loop_
  _symmetry_equiv_pos_as_xyz
  'x, y, z'

loop_
  _atom_site_label
  _atom_site_occupancy
  _atom_site_fract_x
  _atom_site_fract_y
  _atom_site_fract_z
  _atom_site_thermal_displace_type
  _atom_site_B_iso_or_equiv
  _atom_site_type_symbol
  Zn1      1.0000 0.11317  0.13603  0.16457  Biso   1.000  Zn
  N1       1.0000 0.25625  0.47110  0.48284  Biso   1.000  N
  N2       1.0000 0.15023  0.92770  0.18693  Biso   1.000  N
  C1       1.0000 0.16437  0.36930  0.31366  Biso   1.000  C
  C2       1.0000 0.14670  0.48400  0.33493  Biso   1.000  C
  H1       1.0000 0.11470  0.53960  0.31160  Biso   1.000  H
  C3       1.0000 0.17629  0.51730  0.39087  Biso   1.000  C
  H2       1.0000 0.16330  0.59320  0.40480  Biso   1.000  H
  C4       1.0000 0.22498  0.43790  0.42591  Biso   1.000  C
  C5       1.0000 0.24286  0.32340  0.40395  Biso   1.000  C
  H3       1.0000 0.27560  0.26930  0.42670  Biso   1.000  H
  C6       1.0000 0.21254  0.28980  0.34903  Biso   1.000  C
  H4       1.0000 0.22470  0.21180  0.33530  Biso   1.000  H
  C7       1.0000 0.31806  0.46350  0.51029  Biso   1.000  C
  C8       1.0000 0.34809  0.41490  0.56471  Biso   1.000  C
  H5       1.0000 0.32770  0.38690  0.58340  Biso   1.000  H
  C9       1.0000 0.40797  0.40820  0.59087  Biso   1.000  C
  H6       1.0000 0.42750  0.37530  0.62710  Biso   1.000  H
  C10      1.0000 0.43937  0.44950  0.56418  Biso   1.000  C
  C11      1.0000 0.40953  0.49680  0.50997  Biso   1.000  C
  H7       1.0000 0.43020  0.52420  0.49140  Biso   1.000  H
  C12      1.0000 0.34984  0.50390  0.48325  Biso   1.000  C
  H8       1.0000 0.33060  0.53580  0.44690  Biso   1.000  H
  C13      1.0000 0.22662  0.52060  0.51187  Biso   1.000  C
  C14      1.0000 0.17390  0.45970  0.50230  Biso   1.000  C
  H9       1.0000 0.15830  0.38350  0.47720  Biso   1.000  H
  C15      1.0000 0.14447  0.51090  0.52957  Biso   1.000  C
  H10      1.0000 0.10890  0.46980  0.52230  Biso   1.000  H
  C16      1.0000 0.16746  0.62400  0.56800  Biso   1.000  C
  C17      1.0000 0.22107  0.68070  0.57852  Biso   1.000  C
  H11      1.0000 0.23760  0.75410  0.60470  Biso   1.000  H
  C18      1.0000 0.25022  0.63070  0.55097  Biso   1.000  C
  H12      1.0000 0.28600  0.67090  0.55860  Biso   1.000  H
  C19      1.0000 0.13261  0.33250  0.25244  Biso   1.000  C
  C20      1.0000 0.50518  0.44410  0.59277  Biso   1.000  C
  C21      1.0000 0.13346  0.68400  0.59564  Biso   1.000  C
  C22      1.0000 0.17943  0.88530  0.23944  Biso   1.000  C
  H13      1.0000 0.18520  0.95220  0.26700  Biso   1.000  H
  C23      1.0000 0.20127  0.74650  0.25428  Biso   1.000  C
  H14      1.0000 0.22200  0.72130  0.29130  Biso   1.000  H
  C24      1.0000 0.19252  0.64620  0.21460  Biso   1.000  C
  H15      1.0000 0.20590  0.55090  0.22390  Biso   1.000  H
  C25      1.0000 0.16394  0.68820  0.16112  Biso   1.000  C
  H16      1.0000 0.15830  0.62260  0.13320  Biso   1.000  H
  C26      1.0000 0.14335  0.82850  0.14844  Biso   1.000  C
  H17      1.0000 0.12380  0.85580  0.11160  Biso   1.000  H
  O1       1.0000 0.09562  0.41570  0.22118  Biso   1.000  O
  O2       1.0000 0.14827  0.21470  0.23944  Biso   1.000  O
  O3       1.0000 0.53176  0.50490  0.57113  Biso   1.000  O
  O4       1.0000 0.52930  0.37800  0.63824  Biso   1.000  O
  O5       1.0000 0.15705  0.78870  0.62848  Biso   1.000  O
  O6       1.0000 0.08533  0.63290  0.58398  Biso   1.000  O
  Zn2      1.0000 0.61317  0.63603  0.16457  Biso   1.000  Zn
  N3       1.0000 0.75625  0.97110  0.48284  Biso   1.000  N
  N4       1.0000 0.65023  0.42770  0.18693  Biso   1.000  N
  C27      1.0000 0.66437  0.86930  0.31366  Biso   1.000  C
  C28      1.0000 0.64670  0.98400  0.33493  Biso   1.000  C
  H18      1.0000 0.61470  0.03960  0.31160  Biso   1.000  H
  C29      1.0000 0.67629  0.01730  0.39087  Biso   1.000  C
  H19      1.0000 0.66330  0.09320  0.40480  Biso   1.000  H
  C30      1.0000 0.72498  0.93790  0.42591  Biso   1.000  C
  C31      1.0000 0.74286  0.82340  0.40395  Biso   1.000  C
  H20      1.0000 0.77560  0.76930  0.42670  Biso   1.000  H
  C32      1.0000 0.71254  0.78980  0.34903  Biso   1.000  C
  H21      1.0000 0.72470  0.71180  0.33530  Biso   1.000  H
  C33      1.0000 0.81806  0.96350  0.51029  Biso   1.000  C
  C34      1.0000 0.84809  0.91490  0.56471  Biso   1.000  C
  H22      1.0000 0.82770  0.88690  0.58340  Biso   1.000  H
  C35      1.0000 0.90797  0.90820  0.59087  Biso   1.000  C
  H23      1.0000 0.92750  0.87530  0.62710  Biso   1.000  H
  C36      1.0000 0.93937  0.94950  0.56418  Biso   1.000  C
  C37      1.0000 0.90953  0.99680  0.50997  Biso   1.000  C
  H24      1.0000 0.93020  0.02420  0.49140  Biso   1.000  H
  C38      1.0000 0.84984  0.00390  0.48325  Biso   1.000  C
  H25      1.0000 0.83060  0.03580  0.44690  Biso   1.000  H
  C39      1.0000 0.72662  0.02060  0.51187  Biso   1.000  C
  C40      1.0000 0.67390  0.95970  0.50230  Biso   1.000  C
  H26      1.0000 0.65830  0.88350  0.47720  Biso   1.000  H
  C41      1.0000 0.64447  0.01090  0.52957  Biso   1.000  C
  H27      1.0000 0.60890  0.96980  0.52230  Biso   1.000  H
  C42      1.0000 0.66746  0.12400  0.56800  Biso   1.000  C
  C43      1.0000 0.72107  0.18070  0.57852  Biso   1.000  C
  H28      1.0000 0.73760  0.25410  0.60470  Biso   1.000  H
  C44      1.0000 0.75022  0.13070  0.55097  Biso   1.000  C
  H29      1.0000 0.78600  0.17090  0.55860  Biso   1.000  H
  C45      1.0000 0.63261  0.83250  0.25244  Biso   1.000  C
  C46      1.0000 0.00518  0.94410  0.59277  Biso   1.000  C
  C47      1.0000 0.63346  0.18400  0.59564  Biso   1.000  C
  C48      1.0000 0.67943  0.38530  0.23944  Biso   1.000  C
  H30      1.0000 0.68520  0.45220  0.26700  Biso   1.000  H
  C49      1.0000 0.70127  0.24650  0.25428  Biso   1.000  C
  H31      1.0000 0.72200  0.22130  0.29130  Biso   1.000  H
  C50      1.0000 0.69252  0.14620  0.21460  Biso   1.000  C
  H32      1.0000 0.70590  0.05090  0.22390  Biso   1.000  H
  C51      1.0000 0.66394  0.18820  0.16112  Biso   1.000  C
  H33      1.0000 0.65830  0.12260  0.13320  Biso   1.000  H
  C52      1.0000 0.64335  0.32850  0.14844  Biso   1.000  C
  H34      1.0000 0.62380  0.35580  0.11160  Biso   1.000  H
  O7       1.0000 0.59562  0.91570  0.22118  Biso   1.000  O
  O8       1.0000 0.64827  0.71470  0.23944  Biso   1.000  O
  O9       1.0000 0.03176  0.00490  0.57113  Biso   1.000  O
  O10      1.0000 0.02930  0.87800  0.63824  Biso   1.000  O
  O11      1.0000 0.65705  0.28870  0.62848  Biso   1.000  O
  O12      1.0000 0.58533  0.13290  0.58398  Biso   1.000  O
  Zn3      1.0000 0.11317  0.86397  0.66457  Biso   1.000  Zn
  N5       1.0000 0.25625  0.52890  0.98284  Biso   1.000  N
  N6       1.0000 0.15023  0.07230  0.68693  Biso   1.000  N
  C53      1.0000 0.16437  0.63070  0.81366  Biso   1.000  C
  C54      1.0000 0.14670  0.51600  0.83493  Biso   1.000  C
  H35      1.0000 0.11470  0.46040  0.81160  Biso   1.000  H
  C55      1.0000 0.17629  0.48270  0.89087  Biso   1.000  C
  H36      1.0000 0.16330  0.40680  0.90480  Biso   1.000  H
  C56      1.0000 0.22498  0.56210  0.92591  Biso   1.000  C
  C57      1.0000 0.24286  0.67660  0.90395  Biso   1.000  C
  H37      1.0000 0.27560  0.73070  0.92670  Biso   1.000  H
  C58      1.0000 0.21254  0.71020  0.84903  Biso   1.000  C
  H38      1.0000 0.22470  0.78820  0.83530  Biso   1.000  H
  C59      1.0000 0.31806  0.53650  0.01029  Biso   1.000  C
  C60      1.0000 0.34809  0.58510  0.06471  Biso   1.000  C
  H39      1.0000 0.32770  0.61310  0.08340  Biso   1.000  H
  C61      1.0000 0.40797  0.59180  0.09087  Biso   1.000  C
  H40      1.0000 0.42750  0.62470  0.12710  Biso   1.000  H
  C62      1.0000 0.43937  0.55050  0.06418  Biso   1.000  C
  C63      1.0000 0.40953  0.50320  0.00997  Biso   1.000  C
  H41      1.0000 0.43020  0.47580  0.99140  Biso   1.000  H
  C64      1.0000 0.34984  0.49610  0.98325  Biso   1.000  C
  H42      1.0000 0.33060  0.46420  0.94690  Biso   1.000  H
  C65      1.0000 0.22662  0.47940  0.01187  Biso   1.000  C
  C66      1.0000 0.17390  0.54030  0.00230  Biso   1.000  C
  H43      1.0000 0.15830  0.61650  0.97720  Biso   1.000  H
  C67      1.0000 0.14447  0.48910  0.02957  Biso   1.000  C
  H44      1.0000 0.10890  0.53020  0.02230  Biso   1.000  H
  C68      1.0000 0.16746  0.37600  0.06800  Biso   1.000  C
  C69      1.0000 0.22107  0.31930  0.07852  Biso   1.000  C
  H45      1.0000 0.23760  0.24590  0.10470  Biso   1.000  H
  C70      1.0000 0.25022  0.36930  0.05097  Biso   1.000  C
  H46      1.0000 0.28600  0.32910  0.05860  Biso   1.000  H
  C71      1.0000 0.13261  0.66750  0.75244  Biso   1.000  C
  C72      1.0000 0.50518  0.55590  0.09277  Biso   1.000  C
  C73      1.0000 0.13346  0.31600  0.09564  Biso   1.000  C
  C74      1.0000 0.17943  0.11470  0.73944  Biso   1.000  C
  H47      1.0000 0.18520  0.04780  0.76700  Biso   1.000  H
  C75      1.0000 0.20127  0.25350  0.75428  Biso   1.000  C
  H48      1.0000 0.22200  0.27870  0.79130  Biso   1.000  H
  C76      1.0000 0.19252  0.35380  0.71460  Biso   1.000  C
  H49      1.0000 0.20590  0.44910  0.72390  Biso   1.000  H
  C77      1.0000 0.16394  0.31180  0.66112  Biso   1.000  C
  H50      1.0000 0.15830  0.37740  0.63320  Biso   1.000  H
  C78      1.0000 0.14335  0.17150  0.64844  Biso   1.000  C
  H51      1.0000 0.12380  0.14420  0.61160  Biso   1.000  H
  O13      1.0000 0.09562  0.58430  0.72118  Biso   1.000  O
  O14      1.0000 0.14827  0.78530  0.73944  Biso   1.000  O
  O15      1.0000 0.53176  0.49510  0.07113  Biso   1.000  O
  O16      1.0000 0.52930  0.62200  0.13824  Biso   1.000  O
  O17      1.0000 0.15705  0.21130  0.12848  Biso   1.000  O
  O18      1.0000 0.08533  0.36710  0.08398  Biso   1.000  O
  Zn4      1.0000 0.61317  0.36397  0.66457  Biso   1.000  Zn
  N7       1.0000 0.75625  0.02890  0.98284  Biso   1.000  N
  N8       1.0000 0.65023  0.57230  0.68693  Biso   1.000  N
  C79      1.0000 0.66437  0.13070  0.81366  Biso   1.000  C
  C80      1.0000 0.64670  0.01600  0.83493  Biso   1.000  C
  H52      1.0000 0.61470  0.96040  0.81160  Biso   1.000  H
  C81      1.0000 0.67629  0.98270  0.89087  Biso   1.000  C
  H53      1.0000 0.66330  0.90680  0.90480  Biso   1.000  H
  C82      1.0000 0.72498  0.06210  0.92591  Biso   1.000  C
  C83      1.0000 0.74286  0.17660  0.90395  Biso   1.000  C
  H54      1.0000 0.77560  0.23070  0.92670  Biso   1.000  H
  C84      1.0000 0.71254  0.21020  0.84903  Biso   1.000  C
  H55      1.0000 0.72470  0.28820  0.83530  Biso   1.000  H
  C85      1.0000 0.81806  0.03650  0.01029  Biso   1.000  C
  C86      1.0000 0.84809  0.08510  0.06471  Biso   1.000  C
  H56      1.0000 0.82770  0.11310  0.08340  Biso   1.000  H
  C87      1.0000 0.90797  0.09180  0.09087  Biso   1.000  C
  H57      1.0000 0.92750  0.12470  0.12710  Biso   1.000  H
  C88      1.0000 0.93937  0.05050  0.06418  Biso   1.000  C
  C89      1.0000 0.90953  0.00320  0.00997  Biso   1.000  C
  H58      1.0000 0.93020  0.97580  0.99140  Biso   1.000  H
  C90      1.0000 0.84984  0.99610  0.98325  Biso   1.000  C
  H59      1.0000 0.83060  0.96420  0.94690  Biso   1.000  H
  C91      1.0000 0.72662  0.97940  0.01187  Biso   1.000  C
  C92      1.0000 0.67390  0.04030  0.00230  Biso   1.000  C
  H60      1.0000 0.65830  0.11650  0.97720  Biso   1.000  H
  C93      1.0000 0.64447  0.98910  0.02957  Biso   1.000  C
  H61      1.0000 0.60890  0.03020  0.02230  Biso   1.000  H
  C94      1.0000 0.66746  0.87600  0.06800  Biso   1.000  C
  C95      1.0000 0.72107  0.81930  0.07852  Biso   1.000  C
  H62      1.0000 0.73760  0.74590  0.10470  Biso   1.000  H
  C96      1.0000 0.75022  0.86930  0.05097  Biso   1.000  C
  H63      1.0000 0.78600  0.82910  0.05860  Biso   1.000  H
  C97      1.0000 0.63261  0.16750  0.75244  Biso   1.000  C
  C98      1.0000 0.00518  0.05590  0.09277  Biso   1.000  C
  C99      1.0000 0.63346  0.81600  0.09564  Biso   1.000  C
  C100     1.0000 0.67943  0.61470  0.73944  Biso   1.000  C
  H64      1.0000 0.68520  0.54780  0.76700  Biso   1.000  H
  C101     1.0000 0.70127  0.75350  0.75428  Biso   1.000  C
  H65      1.0000 0.72200  0.77870  0.79130  Biso   1.000  H
  C102     1.0000 0.69252  0.85380  0.71460  Biso   1.000  C
  H66      1.0000 0.70590  0.94910  0.72390  Biso   1.000  H
  C103     1.0000 0.66394  0.81180  0.66112  Biso   1.000  C
  H67      1.0000 0.65830  0.87740  0.63320  Biso   1.000  H
  C104     1.0000 0.64335  0.67150  0.64844  Biso   1.000  C
  H68      1.0000 0.62380  0.64420  0.61160  Biso   1.000  H
  O19      1.0000 0.59562  0.08430  0.72118  Biso   1.000  O
  O20      1.0000 0.64827  0.28530  0.73944  Biso   1.000  O
  O21      1.0000 0.03176  0.99510  0.07113  Biso   1.000  O
  O22      1.0000 0.02930  0.12200  0.13824  Biso   1.000  O
  O23      1.0000 0.65705  0.71130  0.12848  Biso   1.000  O
  O24      1.0000 0.58533  0.86710  0.08398  Biso   1.000  O
  Zn5      1.0000 0.88683  0.13603  0.33543  Biso   1.000  Zn
  N9       1.0000 0.74375  0.47110  0.01716  Biso   1.000  N
  N10      1.0000 0.84977  0.92770  0.31307  Biso   1.000  N
  C105     1.0000 0.83563  0.36930  0.18634  Biso   1.000  C
  C106     1.0000 0.85330  0.48400  0.16507  Biso   1.000  C
  H69      1.0000 0.88530  0.53960  0.18840  Biso   1.000  H
  C107     1.0000 0.82371  0.51730  0.10913  Biso   1.000  C
  H70      1.0000 0.83670  0.59320  0.09520  Biso   1.000  H
  C108     1.0000 0.77502  0.43790  0.07409  Biso   1.000  C
  C109     1.0000 0.75714  0.32340  0.09605  Biso   1.000  C
  H71      1.0000 0.72440  0.26930  0.07330  Biso   1.000  H
  C110     1.0000 0.78746  0.28980  0.15097  Biso   1.000  C
  H72      1.0000 0.77530  0.21180  0.16470  Biso   1.000  H
  C111     1.0000 0.68194  0.46350  0.98971  Biso   1.000  C
  C112     1.0000 0.65191  0.41490  0.93529  Biso   1.000  C
  H73      1.0000 0.67230  0.38690  0.91660  Biso   1.000  H
  C113     1.0000 0.59203  0.40820  0.90913  Biso   1.000  C
  H74      1.0000 0.57250  0.37530  0.87290  Biso   1.000  H
  C114     1.0000 0.56063  0.44950  0.93582  Biso   1.000  C
  C115     1.0000 0.59047  0.49680  0.99003  Biso   1.000  C
  H75      1.0000 0.56980  0.52420  0.00860  Biso   1.000  H
  C116     1.0000 0.65016  0.50390  0.01675  Biso   1.000  C
  H76      1.0000 0.66940  0.53580  0.05310  Biso   1.000  H
  C117     1.0000 0.77338  0.52060  0.98813  Biso   1.000  C
  C118     1.0000 0.82610  0.45970  0.99770  Biso   1.000  C
  H77      1.0000 0.84170  0.38350  0.02280  Biso   1.000  H
  C119     1.0000 0.85553  0.51090  0.97043  Biso   1.000  C
  H78      1.0000 0.89110  0.46980  0.97770  Biso   1.000  H
  C120     1.0000 0.83254  0.62400  0.93200  Biso   1.000  C
  C121     1.0000 0.77893  0.68070  0.92148  Biso   1.000  C
  H79      1.0000 0.76240  0.75410  0.89530  Biso   1.000  H
  C122     1.0000 0.74978  0.63070  0.94903  Biso   1.000  C
  H80      1.0000 0.71400  0.67090  0.94140  Biso   1.000  H
  C123     1.0000 0.86739  0.33250  0.24756  Biso   1.000  C
  C124     1.0000 0.49482  0.44410  0.90723  Biso   1.000  C
  C125     1.0000 0.86654  0.68400  0.90436  Biso   1.000  C
  C126     1.0000 0.82057  0.88530  0.26056  Biso   1.000  C
  H81      1.0000 0.81480  0.95220  0.23300  Biso   1.000  H
  C127     1.0000 0.79873  0.74650  0.24572  Biso   1.000  C
  H82      1.0000 0.77800  0.72130  0.20870  Biso   1.000  H
  C128     1.0000 0.80748  0.64620  0.28540  Biso   1.000  C
  H83      1.0000 0.79410  0.55090  0.27610  Biso   1.000  H
  C129     1.0000 0.83606  0.68820  0.33888  Biso   1.000  C
  H84      1.0000 0.84170  0.62260  0.36680  Biso   1.000  H
  C130     1.0000 0.85665  0.82850  0.35156  Biso   1.000  C
  H85      1.0000 0.87620  0.85580  0.38840  Biso   1.000  H
  O25      1.0000 0.90438  0.41570  0.27882  Biso   1.000  O
  O26      1.0000 0.85173  0.21470  0.26056  Biso   1.000  O
  O27      1.0000 0.46824  0.50490  0.92887  Biso   1.000  O
  O28      1.0000 0.47070  0.37800  0.86176  Biso   1.000  O
  O29      1.0000 0.84295  0.78870  0.87152  Biso   1.000  O
  O30      1.0000 0.91467  0.63290  0.91602  Biso   1.000  O
  Zn6      1.0000 0.38683  0.63603  0.33543  Biso   1.000  Zn
  N11      1.0000 0.24375  0.97110  0.01716  Biso   1.000  N
  N12      1.0000 0.34977  0.42770  0.31307  Biso   1.000  N
  C131     1.0000 0.33563  0.86930  0.18634  Biso   1.000  C
  C132     1.0000 0.35330  0.98400  0.16507  Biso   1.000  C
  H86      1.0000 0.38530  0.03960  0.18840  Biso   1.000  H
  C133     1.0000 0.32371  0.01730  0.10913  Biso   1.000  C
  H87      1.0000 0.33670  0.09320  0.09520  Biso   1.000  H
  C134     1.0000 0.27502  0.93790  0.07409  Biso   1.000  C
  C135     1.0000 0.25714  0.82340  0.09605  Biso   1.000  C
  H88      1.0000 0.22440  0.76930  0.07330  Biso   1.000  H
  C136     1.0000 0.28746  0.78980  0.15097  Biso   1.000  C
  H89      1.0000 0.27530  0.71180  0.16470  Biso   1.000  H
  C137     1.0000 0.18194  0.96350  0.98971  Biso   1.000  C
  C138     1.0000 0.15191  0.91490  0.93529  Biso   1.000  C
  H90      1.0000 0.17230  0.88690  0.91660  Biso   1.000  H
  C139     1.0000 0.09203  0.90820  0.90913  Biso   1.000  C
  H91      1.0000 0.07250  0.87530  0.87290  Biso   1.000  H
  C140     1.0000 0.06063  0.94950  0.93582  Biso   1.000  C
  C141     1.0000 0.09047  0.99680  0.99003  Biso   1.000  C
  H92      1.0000 0.06980  0.02420  0.00860  Biso   1.000  H
  C142     1.0000 0.15016  0.00390  0.01675  Biso   1.000  C
  H93      1.0000 0.16940  0.03580  0.05310  Biso   1.000  H
  C143     1.0000 0.27338  0.02060  0.98813  Biso   1.000  C
  C144     1.0000 0.32610  0.95970  0.99770  Biso   1.000  C
  H94      1.0000 0.34170  0.88350  0.02280  Biso   1.000  H
  C145     1.0000 0.35553  0.01090  0.97043  Biso   1.000  C
  H95      1.0000 0.39110  0.96980  0.97770  Biso   1.000  H
  C146     1.0000 0.33254  0.12400  0.93200  Biso   1.000  C
  C147     1.0000 0.27893  0.18070  0.92148  Biso   1.000  C
  H96      1.0000 0.26240  0.25410  0.89530  Biso   1.000  H
  C148     1.0000 0.24978  0.13070  0.94903  Biso   1.000  C
  H97      1.0000 0.21400  0.17090  0.94140  Biso   1.000  H
  C149     1.0000 0.36739  0.83250  0.24756  Biso   1.000  C
  C150     1.0000 0.99482  0.94410  0.90723  Biso   1.000  C
  C151     1.0000 0.36654  0.18400  0.90436  Biso   1.000  C
  C152     1.0000 0.32057  0.38530  0.26056  Biso   1.000  C
  H98      1.0000 0.31480  0.45220  0.23300  Biso   1.000  H
  C153     1.0000 0.29873  0.24650  0.24572  Biso   1.000  C
  H99      1.0000 0.27800  0.22130  0.20870  Biso   1.000  H
  C154     1.0000 0.30748  0.14620  0.28540  Biso   1.000  C
  H100     1.0000 0.29410  0.05090  0.27610  Biso   1.000  H
  C155     1.0000 0.33606  0.18820  0.33888  Biso   1.000  C
  H101     1.0000 0.34170  0.12260  0.36680  Biso   1.000  H
  C156     1.0000 0.35665  0.32850  0.35156  Biso   1.000  C
  H102     1.0000 0.37620  0.35580  0.38840  Biso   1.000  H
  O31      1.0000 0.40438  0.91570  0.27882  Biso   1.000  O
  O32      1.0000 0.35173  0.71470  0.26056  Biso   1.000  O
  O33      1.0000 0.96824  0.00490  0.92887  Biso   1.000  O
  O34      1.0000 0.97070  0.87800  0.86176  Biso   1.000  O
  O35      1.0000 0.34295  0.28870  0.87152  Biso   1.000  O
  O36      1.0000 0.41467  0.13290  0.91602  Biso   1.000  O
  Zn7      1.0000 0.88683  0.86397  0.83543  Biso   1.000  Zn
  N13      1.0000 0.74375  0.52890  0.51716  Biso   1.000  N
  N14      1.0000 0.84977  0.07230  0.81307  Biso   1.000  N
  C157     1.0000 0.83563  0.63070  0.68634  Biso   1.000  C
  C158     1.0000 0.85330  0.51600  0.66507  Biso   1.000  C
  H103     1.0000 0.88530  0.46040  0.68840  Biso   1.000  H
  C159     1.0000 0.82371  0.48270  0.60913  Biso   1.000  C
  H104     1.0000 0.83670  0.40680  0.59520  Biso   1.000  H
  C160     1.0000 0.77502  0.56210  0.57409  Biso   1.000  C
  C161     1.0000 0.75714  0.67660  0.59605  Biso   1.000  C
  H105     1.0000 0.72440  0.73070  0.57330  Biso   1.000  H
  C162     1.0000 0.78746  0.71020  0.65097  Biso   1.000  C
  H106     1.0000 0.77530  0.78820  0.66470  Biso   1.000  H
  C163     1.0000 0.68194  0.53650  0.48971  Biso   1.000  C
  C164     1.0000 0.65191  0.58510  0.43529  Biso   1.000  C
  H107     1.0000 0.67230  0.61310  0.41660  Biso   1.000  H
  C165     1.0000 0.59203  0.59180  0.40913  Biso   1.000  C
  H108     1.0000 0.57250  0.62470  0.37290  Biso   1.000  H
  C166     1.0000 0.56063  0.55050  0.43582  Biso   1.000  C
  C167     1.0000 0.59047  0.50320  0.49003  Biso   1.000  C
  H109     1.0000 0.56980  0.47580  0.50860  Biso   1.000  H
  C168     1.0000 0.65016  0.49610  0.51675  Biso   1.000  C
  H110     1.0000 0.66940  0.46420  0.55310  Biso   1.000  H
  C169     1.0000 0.77338  0.47940  0.48813  Biso   1.000  C
  C170     1.0000 0.82610  0.54030  0.49770  Biso   1.000  C
  H111     1.0000 0.84170  0.61650  0.52280  Biso   1.000  H
  C171     1.0000 0.85553  0.48910  0.47043  Biso   1.000  C
  H112     1.0000 0.89110  0.53020  0.47770  Biso   1.000  H
  C172     1.0000 0.83254  0.37600  0.43200  Biso   1.000  C
  C173     1.0000 0.77893  0.31930  0.42148  Biso   1.000  C
  H113     1.0000 0.76240  0.24590  0.39530  Biso   1.000  H
  C174     1.0000 0.74978  0.36930  0.44903  Biso   1.000  C
  H114     1.0000 0.71400  0.32910  0.44140  Biso   1.000  H
  C175     1.0000 0.86739  0.66750  0.74756  Biso   1.000  C
  C176     1.0000 0.49482  0.55590  0.40723  Biso   1.000  C
  C177     1.0000 0.86654  0.31600  0.40436  Biso   1.000  C
  C178     1.0000 0.82057  0.11470  0.76056  Biso   1.000  C
  H115     1.0000 0.81480  0.04780  0.73300  Biso   1.000  H
  C179     1.0000 0.79873  0.25350  0.74572  Biso   1.000  C
  H116     1.0000 0.77800  0.27870  0.70870  Biso   1.000  H
  C180     1.0000 0.80748  0.35380  0.78540  Biso   1.000  C
  H117     1.0000 0.79410  0.44910  0.77610  Biso   1.000  H
  C181     1.0000 0.83606  0.31180  0.83888  Biso   1.000  C
  H118     1.0000 0.84170  0.37740  0.86680  Biso   1.000  H
  C182     1.0000 0.85665  0.17150  0.85156  Biso   1.000  C
  H119     1.0000 0.87620  0.14420  0.88840  Biso   1.000  H
  O37      1.0000 0.90438  0.58430  0.77882  Biso   1.000  O
  O38      1.0000 0.85173  0.78530  0.76056  Biso   1.000  O
  O39      1.0000 0.46824  0.49510  0.42887  Biso   1.000  O
  O40      1.0000 0.47070  0.62200  0.36176  Biso   1.000  O
  O41      1.0000 0.84295  0.21130  0.37152  Biso   1.000  O
  O42      1.0000 0.91467  0.36710  0.41602  Biso   1.000  O
  Zn8      1.0000 0.38683  0.36397  0.83543  Biso   1.000  Zn
  N15      1.0000 0.24375  0.02890  0.51716  Biso   1.000  N
  N16      1.0000 0.34977  0.57230  0.81307  Biso   1.000  N
  C183     1.0000 0.33563  0.13070  0.68634  Biso   1.000  C
  C184     1.0000 0.35330  0.01600  0.66507  Biso   1.000  C
  H120     1.0000 0.38530  0.96040  0.68840  Biso   1.000  H
  C185     1.0000 0.32371  0.98270  0.60913  Biso   1.000  C
  H121     1.0000 0.33670  0.90680  0.59520  Biso   1.000  H
  C186     1.0000 0.27502  0.06210  0.57409  Biso   1.000  C
  C187     1.0000 0.25714  0.17660  0.59605  Biso   1.000  C
  H122     1.0000 0.22440  0.23070  0.57330  Biso   1.000  H
  C188     1.0000 0.28746  0.21020  0.65097  Biso   1.000  C
  H123     1.0000 0.27530  0.28820  0.66470  Biso   1.000  H
  C189     1.0000 0.18194  0.03650  0.48971  Biso   1.000  C
  C190     1.0000 0.15191  0.08510  0.43529  Biso   1.000  C
  H124     1.0000 0.17230  0.11310  0.41660  Biso   1.000  H
  C191     1.0000 0.09203  0.09180  0.40913  Biso   1.000  C
  H125     1.0000 0.07250  0.12470  0.37290  Biso   1.000  H
  C192     1.0000 0.06063  0.05050  0.43582  Biso   1.000  C
  C193     1.0000 0.09047  0.00320  0.49003  Biso   1.000  C
  H126     1.0000 0.06980  0.97580  0.50860  Biso   1.000  H
  C194     1.0000 0.15016  0.99610  0.51675  Biso   1.000  C
  H127     1.0000 0.16940  0.96420  0.55310  Biso   1.000  H
  C195     1.0000 0.27338  0.97940  0.48813  Biso   1.000  C
  C196     1.0000 0.32610  0.04030  0.49770  Biso   1.000  C
  H128     1.0000 0.34170  0.11650  0.52280  Biso   1.000  H
  C197     1.0000 0.35553  0.98910  0.47043  Biso   1.000  C
  H129     1.0000 0.39110  0.03020  0.47770  Biso   1.000  H
  C198     1.0000 0.33254  0.87600  0.43200  Biso   1.000  C
  C199     1.0000 0.27893  0.81930  0.42148  Biso   1.000  C
  H130     1.0000 0.26240  0.74590  0.39530  Biso   1.000  H
  C200     1.0000 0.24978  0.86930  0.44903  Biso   1.000  C
  H131     1.0000 0.21400  0.82910  0.44140  Biso   1.000  H
  C201     1.0000 0.36739  0.16750  0.74756  Biso   1.000  C
  C202     1.0000 0.99482  0.05590  0.40723  Biso   1.000  C
  C203     1.0000 0.36654  0.81600  0.40436  Biso   1.000  C
  C204     1.0000 0.32057  0.61470  0.76056  Biso   1.000  C
  H132     1.0000 0.31480  0.54780  0.73300  Biso   1.000  H
  C205     1.0000 0.29873  0.75350  0.74572  Biso   1.000  C
  H133     1.0000 0.27800  0.77870  0.70870  Biso   1.000  H
  C206     1.0000 0.30748  0.85380  0.78540  Biso   1.000  C
  H134     1.0000 0.29410  0.94910  0.77610  Biso   1.000  H
  C207     1.0000 0.33606  0.81180  0.83888  Biso   1.000  C
  H135     1.0000 0.34170  0.87740  0.86680  Biso   1.000  H
  C208     1.0000 0.35665  0.67150  0.85156  Biso   1.000  C
  H136     1.0000 0.37620  0.64420  0.88840  Biso   1.000  H
  O43      1.0000 0.40438  0.08430  0.77882  Biso   1.000  O
  O44      1.0000 0.35173  0.28530  0.76056  Biso   1.000  O
  O45      1.0000 0.96824  0.99510  0.42887  Biso   1.000  O
  O46      1.0000 0.97070  0.12200  0.36176  Biso   1.000  O
  O47      1.0000 0.34295  0.71130  0.37152  Biso   1.000  O
  O48      1.0000 0.41467  0.86710  0.41602  Biso   1.000  O
