data_image0
_cell_length_a       23.8212
_cell_length_b       23.8212
_cell_length_c       30.2938
_cell_angle_alpha    90
_cell_angle_beta     90
_cell_angle_gamma    120

_symmetry_space_group_name_H-M    "P 1"
_symmetry_int_tables_number       1

loop_
  _symmetry_equiv_pos_as_xyz
  'x, y, z'

loop_
  _atom_site_label
  _atom_site_occupancy
  _atom_site_fract_x
  _atom_site_fract_y
  _atom_site_fract_z
  _atom_site_thermal_displace_type
  _atom_site_B_iso_or_equiv
  _atom_site_type_symbol
  O1       1.0000 0.32200  0.55041  0.86694  Biso   1.000  O
  C1       1.0000 0.24660  0.39210  0.94830  Biso   1.000  C
  C2       1.0000 0.27290  0.44710  0.92180  Biso   1.000  C
  H1       1.0000 0.31620  0.46680  0.91350  Biso   1.000  H
  O2       1.0000 0.98867  0.88374  0.20027  Biso   1.000  O
  C3       1.0000 0.91327  0.72543  0.28163  Biso   1.000  C
  C4       1.0000 0.93957  0.78043  0.25513  Biso   1.000  C
  H2       1.0000 0.98287  0.80013  0.24683  Biso   1.000  H
  O3       1.0000 0.65533  0.21708  0.53361  Biso   1.000  O
  C5       1.0000 0.57993  0.05877  0.61497  Biso   1.000  C
  C6       1.0000 0.60623  0.11377  0.58847  Biso   1.000  C
  H3       1.0000 0.64953  0.13347  0.58017  Biso   1.000  H
  O4       1.0000 0.44959  0.77159  0.86694  Biso   1.000  O
  C7       1.0000 0.60790  0.85450  0.94830  Biso   1.000  C
  C8       1.0000 0.55290  0.82580  0.92180  Biso   1.000  C
  H4       1.0000 0.53320  0.84940  0.91350  Biso   1.000  H
  O5       1.0000 0.11626  0.10492  0.20027  Biso   1.000  O
  C9       1.0000 0.27457  0.18783  0.28163  Biso   1.000  C
  C10      1.0000 0.21957  0.15913  0.25513  Biso   1.000  C
  H5       1.0000 0.19987  0.18273  0.24683  Biso   1.000  H
  O6       1.0000 0.78292  0.43826  0.53361  Biso   1.000  O
  C11      1.0000 0.94123  0.52117  0.61497  Biso   1.000  C
  C12      1.0000 0.88623  0.49247  0.58847  Biso   1.000  C
  H6       1.0000 0.86653  0.51607  0.58017  Biso   1.000  H
  O7       1.0000 0.22841  0.67800  0.86694  Biso   1.000  O
  C13      1.0000 0.14550  0.75340  0.94830  Biso   1.000  C
  C14      1.0000 0.17420  0.72710  0.92180  Biso   1.000  C
  H7       1.0000 0.15060  0.68380  0.91350  Biso   1.000  H
  O8       1.0000 0.89508  0.01133  0.20027  Biso   1.000  O
  C15      1.0000 0.81217  0.08673  0.28163  Biso   1.000  C
  C16      1.0000 0.84087  0.06043  0.25513  Biso   1.000  C
  H8       1.0000 0.81727  0.01713  0.24683  Biso   1.000  H
  O9       1.0000 0.56174  0.34467  0.53361  Biso   1.000  O
  C17      1.0000 0.47883  0.42007  0.61497  Biso   1.000  C
  C18      1.0000 0.50753  0.39377  0.58847  Biso   1.000  C
  H9       1.0000 0.48393  0.35047  0.58017  Biso   1.000  H
  O10      1.0000 0.44959  0.67800  0.86694  Biso   1.000  O
  C19      1.0000 0.60790  0.75340  0.94830  Biso   1.000  C
  C20      1.0000 0.55290  0.72710  0.92180  Biso   1.000  C
  H10      1.0000 0.53320  0.68380  0.91350  Biso   1.000  H
  O11      1.0000 0.11626  0.01133  0.20027  Biso   1.000  O
  C21      1.0000 0.27457  0.08673  0.28163  Biso   1.000  C
  C22      1.0000 0.21957  0.06043  0.25513  Biso   1.000  C
  H11      1.0000 0.19987  0.01713  0.24683  Biso   1.000  H
  O12      1.0000 0.78292  0.34467  0.53361  Biso   1.000  O
  C23      1.0000 0.94123  0.42007  0.61497  Biso   1.000  C
  C24      1.0000 0.88623  0.39377  0.58847  Biso   1.000  C
  H12      1.0000 0.86653  0.35047  0.58017  Biso   1.000  H
  O13      1.0000 0.22841  0.55041  0.86694  Biso   1.000  O
  C25      1.0000 0.14550  0.39210  0.94830  Biso   1.000  C
  C26      1.0000 0.17420  0.44710  0.92180  Biso   1.000  C
  H13      1.0000 0.15060  0.46680  0.91350  Biso   1.000  H
  O14      1.0000 0.89508  0.88374  0.20027  Biso   1.000  O
  C27      1.0000 0.81217  0.72543  0.28163  Biso   1.000  C
  C28      1.0000 0.84087  0.78043  0.25513  Biso   1.000  C
  H14      1.0000 0.81727  0.80013  0.24683  Biso   1.000  H
  O15      1.0000 0.56174  0.21708  0.53361  Biso   1.000  O
  C29      1.0000 0.47883  0.05877  0.61497  Biso   1.000  C
  C30      1.0000 0.50753  0.11377  0.58847  Biso   1.000  C
  H15      1.0000 0.48393  0.13347  0.58017  Biso   1.000  H
  O16      1.0000 0.32200  0.77159  0.86694  Biso   1.000  O
  C31      1.0000 0.24660  0.85450  0.94830  Biso   1.000  C
  C32      1.0000 0.27290  0.82580  0.92180  Biso   1.000  C
  H16      1.0000 0.31620  0.84940  0.91350  Biso   1.000  H
  O17      1.0000 0.98867  0.10492  0.20027  Biso   1.000  O
  C33      1.0000 0.91327  0.18783  0.28163  Biso   1.000  C
  C34      1.0000 0.93957  0.15913  0.25513  Biso   1.000  C
  H17      1.0000 0.98287  0.18273  0.24683  Biso   1.000  H
  O18      1.0000 0.65533  0.43826  0.53361  Biso   1.000  O
  C35      1.0000 0.57993  0.52117  0.61497  Biso   1.000  C
  C36      1.0000 0.60623  0.49247  0.58847  Biso   1.000  C
  H18      1.0000 0.64953  0.51607  0.58017  Biso   1.000  H
  Zn1      1.0000 0.00000  0.00000  0.07759  Biso   1.000  Zn
  O19      1.0000 0.00000  0.00000  0.14164  Biso   1.000  O
  Zn2      1.0000 0.66667  0.33333  0.41092  Biso   1.000  Zn
  O20      1.0000 0.66667  0.33333  0.47497  Biso   1.000  O
  Zn3      1.0000 0.33333  0.66667  0.74426  Biso   1.000  Zn
  O21      1.0000 0.33333  0.66667  0.80831  Biso   1.000  O
  Zn4      1.0000 0.04443  0.08887  0.16150  Biso   1.000  Zn
  O22      1.0000 0.07440  0.14880  0.11320  Biso   1.000  O
  O23      1.0000 0.04310  0.08620  0.05425  Biso   1.000  O
  C37      1.0000 0.06940  0.13880  0.07170  Biso   1.000  C
  C38      1.0000 0.09795  0.19590  0.04540  Biso   1.000  C
  C39      1.0000 0.12875  0.25750  0.06400  Biso   1.000  C
  H19      1.0000 0.13110  0.26220  0.09450  Biso   1.000  H
  C40      1.0000 0.15635  0.31270  0.03690  Biso   1.000  C
  C41      1.0000 0.15250  0.30500  0.98990  Biso   1.000  C
  C42      1.0000 0.12145  0.24290  0.97100  Biso   1.000  C
  C43      1.0000 0.09450  0.18900  0.99950  Biso   1.000  C
  H20      1.0000 0.07380  0.14760  0.98750  Biso   1.000  H
  C44      1.0000 0.18145  0.36290  0.96120  Biso   1.000  C
  C45      1.0000 0.23615  0.47230  0.90790  Biso   1.000  C
  C46      1.0000 0.26640  0.53280  0.87850  Biso   1.000  C
  Zn5      1.0000 0.71110  0.42220  0.49483  Biso   1.000  Zn
  O24      1.0000 0.74107  0.48213  0.44653  Biso   1.000  O
  O25      1.0000 0.70977  0.41953  0.38758  Biso   1.000  O
  C47      1.0000 0.73607  0.47213  0.40503  Biso   1.000  C
  C48      1.0000 0.76462  0.52923  0.37873  Biso   1.000  C
  C49      1.0000 0.79542  0.59083  0.39733  Biso   1.000  C
  H21      1.0000 0.79777  0.59553  0.42783  Biso   1.000  H
  C50      1.0000 0.82302  0.64603  0.37023  Biso   1.000  C
  C51      1.0000 0.81917  0.63833  0.32323  Biso   1.000  C
  C52      1.0000 0.78812  0.57623  0.30433  Biso   1.000  C
  C53      1.0000 0.76117  0.52233  0.33283  Biso   1.000  C
  H22      1.0000 0.74047  0.48093  0.32083  Biso   1.000  H
  C54      1.0000 0.84812  0.69623  0.29453  Biso   1.000  C
  C55      1.0000 0.90282  0.80563  0.24123  Biso   1.000  C
  C56      1.0000 0.93307  0.86613  0.21183  Biso   1.000  C
  Zn6      1.0000 0.37777  0.75554  0.82817  Biso   1.000  Zn
  O26      1.0000 0.40773  0.81547  0.77987  Biso   1.000  O
  O27      1.0000 0.37643  0.75287  0.72092  Biso   1.000  O
  C57      1.0000 0.40273  0.80547  0.73837  Biso   1.000  C
  C58      1.0000 0.43128  0.86257  0.71207  Biso   1.000  C
  C59      1.0000 0.46208  0.92417  0.73067  Biso   1.000  C
  H23      1.0000 0.46443  0.92887  0.76117  Biso   1.000  H
  C60      1.0000 0.48968  0.97937  0.70357  Biso   1.000  C
  C61      1.0000 0.48583  0.97167  0.65657  Biso   1.000  C
  C62      1.0000 0.45478  0.90957  0.63767  Biso   1.000  C
  C63      1.0000 0.42783  0.85567  0.66617  Biso   1.000  C
  H24      1.0000 0.40713  0.81427  0.65417  Biso   1.000  H
  C64      1.0000 0.51478  0.02957  0.62787  Biso   1.000  C
  C65      1.0000 0.56948  0.13897  0.57457  Biso   1.000  C
  C66      1.0000 0.59973  0.19947  0.54517  Biso   1.000  C
  Zn7      1.0000 0.91113  0.95557  0.16150  Biso   1.000  Zn
  O28      1.0000 0.85120  0.92560  0.11320  Biso   1.000  O
  O29      1.0000 0.91380  0.95690  0.05425  Biso   1.000  O
  C67      1.0000 0.86120  0.93060  0.07170  Biso   1.000  C
  C68      1.0000 0.80410  0.90205  0.04540  Biso   1.000  C
  C69      1.0000 0.74250  0.87125  0.06400  Biso   1.000  C
  H25      1.0000 0.73780  0.86890  0.09450  Biso   1.000  H
  C70      1.0000 0.68730  0.84365  0.03690  Biso   1.000  C
  C71      1.0000 0.69500  0.84750  0.98990  Biso   1.000  C
  C72      1.0000 0.75710  0.87855  0.97100  Biso   1.000  C
  C73      1.0000 0.81100  0.90550  0.99950  Biso   1.000  C
  H26      1.0000 0.85240  0.92620  0.98750  Biso   1.000  H
  C74      1.0000 0.63710  0.81855  0.96120  Biso   1.000  C
  C75      1.0000 0.52770  0.76385  0.90790  Biso   1.000  C
  C76      1.0000 0.46720  0.73360  0.87850  Biso   1.000  C
  Zn8      1.0000 0.57780  0.28890  0.49483  Biso   1.000  Zn
  O30      1.0000 0.51787  0.25893  0.44653  Biso   1.000  O
  O31      1.0000 0.58047  0.29023  0.38758  Biso   1.000  O
  C77      1.0000 0.52787  0.26393  0.40503  Biso   1.000  C
  C78      1.0000 0.47077  0.23538  0.37873  Biso   1.000  C
  C79      1.0000 0.40917  0.20458  0.39733  Biso   1.000  C
  H27      1.0000 0.40447  0.20223  0.42783  Biso   1.000  H
  C80      1.0000 0.35397  0.17698  0.37023  Biso   1.000  C
  C81      1.0000 0.36167  0.18083  0.32323  Biso   1.000  C
  C82      1.0000 0.42377  0.21188  0.30433  Biso   1.000  C
  C83      1.0000 0.47767  0.23883  0.33283  Biso   1.000  C
  H28      1.0000 0.51907  0.25953  0.32083  Biso   1.000  H
  C84      1.0000 0.30377  0.15188  0.29453  Biso   1.000  C
  C85      1.0000 0.19437  0.09718  0.24123  Biso   1.000  C
  C86      1.0000 0.13387  0.06693  0.21183  Biso   1.000  C
  Zn9      1.0000 0.24446  0.62223  0.82817  Biso   1.000  Zn
  O32      1.0000 0.18453  0.59227  0.77987  Biso   1.000  O
  O33      1.0000 0.24713  0.62357  0.72092  Biso   1.000  O
  C87      1.0000 0.19453  0.59727  0.73837  Biso   1.000  C
  C88      1.0000 0.13743  0.56872  0.71207  Biso   1.000  C
  C89      1.0000 0.07583  0.53792  0.73067  Biso   1.000  C
  H29      1.0000 0.07113  0.53557  0.76117  Biso   1.000  H
  C90      1.0000 0.02063  0.51032  0.70357  Biso   1.000  C
  C91      1.0000 0.02833  0.51417  0.65657  Biso   1.000  C
  C92      1.0000 0.09043  0.54522  0.63767  Biso   1.000  C
  C93      1.0000 0.14433  0.57217  0.66617  Biso   1.000  C
  H30      1.0000 0.18573  0.59287  0.65417  Biso   1.000  H
  C94      1.0000 0.97043  0.48522  0.62787  Biso   1.000  C
  C95      1.0000 0.86103  0.43052  0.57457  Biso   1.000  C
  C96      1.0000 0.80053  0.40027  0.54517  Biso   1.000  C
  Zn10     1.0000 0.04444  0.95557  0.16150  Biso   1.000  Zn
  O34      1.0000 0.07440  0.92560  0.11320  Biso   1.000  O
  O35      1.0000 0.04310  0.95690  0.05425  Biso   1.000  O
  C97      1.0000 0.06940  0.93060  0.07170  Biso   1.000  C
  C98      1.0000 0.09795  0.90205  0.04540  Biso   1.000  C
  C99      1.0000 0.12875  0.87125  0.06400  Biso   1.000  C
  H31      1.0000 0.13110  0.86890  0.09450  Biso   1.000  H
  C100     1.0000 0.15635  0.84365  0.03690  Biso   1.000  C
  C101     1.0000 0.15250  0.84750  0.98990  Biso   1.000  C
  C102     1.0000 0.12145  0.87855  0.97100  Biso   1.000  C
  C103     1.0000 0.09450  0.90550  0.99950  Biso   1.000  C
  H32      1.0000 0.07380  0.92620  0.98750  Biso   1.000  H
  C104     1.0000 0.18145  0.81855  0.96120  Biso   1.000  C
  C105     1.0000 0.23615  0.76385  0.90790  Biso   1.000  C
  C106     1.0000 0.26640  0.73360  0.87850  Biso   1.000  C
  Zn11     1.0000 0.71110  0.28890  0.49483  Biso   1.000  Zn
  O36      1.0000 0.74107  0.25893  0.44653  Biso   1.000  O
  O37      1.0000 0.70977  0.29023  0.38758  Biso   1.000  O
  C107     1.0000 0.73607  0.26393  0.40503  Biso   1.000  C
  C108     1.0000 0.76462  0.23538  0.37873  Biso   1.000  C
  C109     1.0000 0.79542  0.20458  0.39733  Biso   1.000  C
  H33      1.0000 0.79777  0.20223  0.42783  Biso   1.000  H
  C110     1.0000 0.82302  0.17698  0.37023  Biso   1.000  C
  C111     1.0000 0.81917  0.18083  0.32323  Biso   1.000  C
  C112     1.0000 0.78812  0.21188  0.30433  Biso   1.000  C
  C113     1.0000 0.76117  0.23883  0.33283  Biso   1.000  C
  H34      1.0000 0.74047  0.25953  0.32083  Biso   1.000  H
  C114     1.0000 0.84812  0.15188  0.29453  Biso   1.000  C
  C115     1.0000 0.90282  0.09718  0.24123  Biso   1.000  C
  C116     1.0000 0.93307  0.06693  0.21183  Biso   1.000  C
  Zn12     1.0000 0.37777  0.62223  0.82817  Biso   1.000  Zn
  O38      1.0000 0.40773  0.59227  0.77987  Biso   1.000  O
  O39      1.0000 0.37643  0.62357  0.72092  Biso   1.000  O
  C117     1.0000 0.40273  0.59727  0.73837  Biso   1.000  C
  C118     1.0000 0.43128  0.56872  0.71207  Biso   1.000  C
  C119     1.0000 0.46208  0.53792  0.73067  Biso   1.000  C
  H35      1.0000 0.46443  0.53557  0.76117  Biso   1.000  H
  C120     1.0000 0.48968  0.51032  0.70357  Biso   1.000  C
  C121     1.0000 0.48583  0.51417  0.65657  Biso   1.000  C
  C122     1.0000 0.45478  0.54522  0.63767  Biso   1.000  C
  C123     1.0000 0.42783  0.57217  0.66617  Biso   1.000  C
  H36      1.0000 0.40713  0.59287  0.65417  Biso   1.000  H
  C124     1.0000 0.51478  0.48522  0.62787  Biso   1.000  C
  C125     1.0000 0.56948  0.43052  0.57457  Biso   1.000  C
  C126     1.0000 0.59973  0.40027  0.54517  Biso   1.000  C
  O40      1.0000 0.55041  0.32200  0.13306  Biso   1.000  O
  C127     1.0000 0.39210  0.24660  0.05170  Biso   1.000  C
  C128     1.0000 0.44710  0.27290  0.07820  Biso   1.000  C
  H37      1.0000 0.46680  0.31620  0.08650  Biso   1.000  H
  O41      1.0000 0.21708  0.65533  0.46639  Biso   1.000  O
  C129     1.0000 0.05877  0.57993  0.38503  Biso   1.000  C
  C130     1.0000 0.11377  0.60623  0.41153  Biso   1.000  C
  H38      1.0000 0.13347  0.64953  0.41983  Biso   1.000  H
  O42      1.0000 0.88374  0.98867  0.79973  Biso   1.000  O
  C131     1.0000 0.72543  0.91327  0.71837  Biso   1.000  C
  C132     1.0000 0.78043  0.93957  0.74487  Biso   1.000  C
  H39      1.0000 0.80013  0.98287  0.75317  Biso   1.000  H
  O43      1.0000 0.77159  0.44959  0.13306  Biso   1.000  O
  C133     1.0000 0.85450  0.60790  0.05170  Biso   1.000  C
  C134     1.0000 0.82580  0.55290  0.07820  Biso   1.000  C
  H40      1.0000 0.84940  0.53320  0.08650  Biso   1.000  H
  O44      1.0000 0.43826  0.78292  0.46639  Biso   1.000  O
  C135     1.0000 0.52117  0.94123  0.38503  Biso   1.000  C
  C136     1.0000 0.49247  0.88623  0.41153  Biso   1.000  C
  H41      1.0000 0.51607  0.86653  0.41983  Biso   1.000  H
  O45      1.0000 0.10492  0.11626  0.79973  Biso   1.000  O
  C137     1.0000 0.18783  0.27457  0.71837  Biso   1.000  C
  C138     1.0000 0.15913  0.21957  0.74487  Biso   1.000  C
  H42      1.0000 0.18273  0.19987  0.75317  Biso   1.000  H
  O46      1.0000 0.67800  0.22841  0.13306  Biso   1.000  O
  C139     1.0000 0.75340  0.14550  0.05170  Biso   1.000  C
  C140     1.0000 0.72710  0.17420  0.07820  Biso   1.000  C
  H43      1.0000 0.68380  0.15060  0.08650  Biso   1.000  H
  O47      1.0000 0.34467  0.56174  0.46639  Biso   1.000  O
  C141     1.0000 0.42007  0.47883  0.38503  Biso   1.000  C
  C142     1.0000 0.39377  0.50753  0.41153  Biso   1.000  C
  H44      1.0000 0.35047  0.48393  0.41983  Biso   1.000  H
  O48      1.0000 0.01133  0.89508  0.79973  Biso   1.000  O
  C143     1.0000 0.08673  0.81217  0.71837  Biso   1.000  C
  C144     1.0000 0.06043  0.84087  0.74487  Biso   1.000  C
  H45      1.0000 0.01713  0.81727  0.75317  Biso   1.000  H
  O49      1.0000 0.67800  0.44959  0.13306  Biso   1.000  O
  C145     1.0000 0.75340  0.60790  0.05170  Biso   1.000  C
  C146     1.0000 0.72710  0.55290  0.07820  Biso   1.000  C
  H46      1.0000 0.68380  0.53320  0.08650  Biso   1.000  H
  O50      1.0000 0.34467  0.78292  0.46639  Biso   1.000  O
  C147     1.0000 0.42007  0.94123  0.38503  Biso   1.000  C
  C148     1.0000 0.39377  0.88623  0.41153  Biso   1.000  C
  H47      1.0000 0.35047  0.86653  0.41983  Biso   1.000  H
  O51      1.0000 0.01133  0.11626  0.79973  Biso   1.000  O
  C149     1.0000 0.08673  0.27457  0.71837  Biso   1.000  C
  C150     1.0000 0.06043  0.21957  0.74487  Biso   1.000  C
  H48      1.0000 0.01713  0.19987  0.75317  Biso   1.000  H
  O52      1.0000 0.55041  0.22841  0.13306  Biso   1.000  O
  C151     1.0000 0.39210  0.14550  0.05170  Biso   1.000  C
  C152     1.0000 0.44710  0.17420  0.07820  Biso   1.000  C
  H49      1.0000 0.46680  0.15060  0.08650  Biso   1.000  H
  O53      1.0000 0.21708  0.56174  0.46639  Biso   1.000  O
  C153     1.0000 0.05877  0.47883  0.38503  Biso   1.000  C
  C154     1.0000 0.11377  0.50753  0.41153  Biso   1.000  C
  H50      1.0000 0.13347  0.48393  0.41983  Biso   1.000  H
  O54      1.0000 0.88374  0.89508  0.79973  Biso   1.000  O
  C155     1.0000 0.72543  0.81217  0.71837  Biso   1.000  C
  C156     1.0000 0.78043  0.84087  0.74487  Biso   1.000  C
  H51      1.0000 0.80013  0.81727  0.75317  Biso   1.000  H
  O55      1.0000 0.77159  0.32200  0.13306  Biso   1.000  O
  C157     1.0000 0.85450  0.24660  0.05170  Biso   1.000  C
  C158     1.0000 0.82580  0.27290  0.07820  Biso   1.000  C
  H52      1.0000 0.84940  0.31620  0.08650  Biso   1.000  H
  O56      1.0000 0.43826  0.65533  0.46639  Biso   1.000  O
  C159     1.0000 0.52117  0.57993  0.38503  Biso   1.000  C
  C160     1.0000 0.49247  0.60623  0.41153  Biso   1.000  C
  H53      1.0000 0.51607  0.64953  0.41983  Biso   1.000  H
  O57      1.0000 0.10492  0.98867  0.79973  Biso   1.000  O
  C161     1.0000 0.18783  0.91327  0.71837  Biso   1.000  C
  C162     1.0000 0.15913  0.93957  0.74487  Biso   1.000  C
  H54      1.0000 0.18273  0.98287  0.75317  Biso   1.000  H
  Zn13     1.0000 0.00000  0.00000  0.92241  Biso   1.000  Zn
  O58      1.0000 0.00000  0.00000  0.85836  Biso   1.000  O
  Zn14     1.0000 0.66667  0.33333  0.25574  Biso   1.000  Zn
  O59      1.0000 0.66667  0.33333  0.19169  Biso   1.000  O
  Zn15     1.0000 0.33333  0.66667  0.58908  Biso   1.000  Zn
  O60      1.0000 0.33333  0.66667  0.52503  Biso   1.000  O
  Zn16     1.0000 0.08887  0.04443  0.83850  Biso   1.000  Zn
  O61      1.0000 0.14880  0.07440  0.88680  Biso   1.000  O
  O62      1.0000 0.08620  0.04310  0.94575  Biso   1.000  O
  C163     1.0000 0.13880  0.06940  0.92830  Biso   1.000  C
  C164     1.0000 0.19590  0.09795  0.95460  Biso   1.000  C
  C165     1.0000 0.25750  0.12875  0.93600  Biso   1.000  C
  H55      1.0000 0.26220  0.13110  0.90550  Biso   1.000  H
  C166     1.0000 0.31270  0.15635  0.96310  Biso   1.000  C
  C167     1.0000 0.30500  0.15250  0.01010  Biso   1.000  C
  C168     1.0000 0.24290  0.12145  0.02900  Biso   1.000  C
  C169     1.0000 0.18900  0.09450  0.00050  Biso   1.000  C
  H56      1.0000 0.14760  0.07380  0.01250  Biso   1.000  H
  C170     1.0000 0.36290  0.18145  0.03880  Biso   1.000  C
  C171     1.0000 0.47230  0.23615  0.09210  Biso   1.000  C
  C172     1.0000 0.53280  0.26640  0.12150  Biso   1.000  C
  Zn17     1.0000 0.75554  0.37777  0.17183  Biso   1.000  Zn
  O63      1.0000 0.81547  0.40773  0.22013  Biso   1.000  O
  O64      1.0000 0.75287  0.37643  0.27908  Biso   1.000  O
  C173     1.0000 0.80547  0.40273  0.26163  Biso   1.000  C
  C174     1.0000 0.86257  0.43128  0.28793  Biso   1.000  C
  C175     1.0000 0.92417  0.46208  0.26933  Biso   1.000  C
  H57      1.0000 0.92887  0.46443  0.23883  Biso   1.000  H
  C176     1.0000 0.97937  0.48968  0.29643  Biso   1.000  C
  C177     1.0000 0.97167  0.48583  0.34343  Biso   1.000  C
  C178     1.0000 0.90957  0.45478  0.36233  Biso   1.000  C
  C179     1.0000 0.85567  0.42783  0.33383  Biso   1.000  C
  H58      1.0000 0.81427  0.40713  0.34583  Biso   1.000  H
  C180     1.0000 0.02957  0.51478  0.37213  Biso   1.000  C
  C181     1.0000 0.13897  0.56948  0.42543  Biso   1.000  C
  C182     1.0000 0.19947  0.59973  0.45483  Biso   1.000  C
  Zn18     1.0000 0.42220  0.71110  0.50517  Biso   1.000  Zn
  O65      1.0000 0.48213  0.74107  0.55347  Biso   1.000  O
  O66      1.0000 0.41953  0.70977  0.61242  Biso   1.000  O
  C183     1.0000 0.47213  0.73607  0.59497  Biso   1.000  C
  C184     1.0000 0.52923  0.76462  0.62127  Biso   1.000  C
  C185     1.0000 0.59083  0.79542  0.60267  Biso   1.000  C
  H59      1.0000 0.59553  0.79777  0.57217  Biso   1.000  H
  C186     1.0000 0.64603  0.82302  0.62977  Biso   1.000  C
  C187     1.0000 0.63833  0.81917  0.67677  Biso   1.000  C
  C188     1.0000 0.57623  0.78812  0.69567  Biso   1.000  C
  C189     1.0000 0.52233  0.76117  0.66717  Biso   1.000  C
  H60      1.0000 0.48093  0.74047  0.67917  Biso   1.000  H
  C190     1.0000 0.69623  0.84812  0.70547  Biso   1.000  C
  C191     1.0000 0.80563  0.90282  0.75877  Biso   1.000  C
  C192     1.0000 0.86613  0.93307  0.78817  Biso   1.000  C
  Zn19     1.0000 0.95556  0.91113  0.83850  Biso   1.000  Zn
  O67      1.0000 0.92560  0.85120  0.88680  Biso   1.000  O
  O68      1.0000 0.95690  0.91380  0.94575  Biso   1.000  O
  C193     1.0000 0.93060  0.86120  0.92830  Biso   1.000  C
  C194     1.0000 0.90205  0.80410  0.95460  Biso   1.000  C
  C195     1.0000 0.87125  0.74250  0.93600  Biso   1.000  C
  H61      1.0000 0.86890  0.73780  0.90550  Biso   1.000  H
  C196     1.0000 0.84365  0.68730  0.96310  Biso   1.000  C
  C197     1.0000 0.84750  0.69500  0.01010  Biso   1.000  C
  C198     1.0000 0.87855  0.75710  0.02900  Biso   1.000  C
  C199     1.0000 0.90550  0.81100  0.00050  Biso   1.000  C
  H62      1.0000 0.92620  0.85240  0.01250  Biso   1.000  H
  C200     1.0000 0.81855  0.63710  0.03880  Biso   1.000  C
  C201     1.0000 0.76385  0.52770  0.09210  Biso   1.000  C
  C202     1.0000 0.73360  0.46720  0.12150  Biso   1.000  C
  Zn20     1.0000 0.62223  0.24446  0.17183  Biso   1.000  Zn
  O69      1.0000 0.59227  0.18453  0.22013  Biso   1.000  O
  O70      1.0000 0.62357  0.24713  0.27908  Biso   1.000  O
  C203     1.0000 0.59727  0.19453  0.26163  Biso   1.000  C
  C204     1.0000 0.56872  0.13743  0.28793  Biso   1.000  C
  C205     1.0000 0.53792  0.07583  0.26933  Biso   1.000  C
  H63      1.0000 0.53557  0.07113  0.23883  Biso   1.000  H
  C206     1.0000 0.51032  0.02063  0.29643  Biso   1.000  C
  C207     1.0000 0.51417  0.02833  0.34343  Biso   1.000  C
  C208     1.0000 0.54522  0.09043  0.36233  Biso   1.000  C
  C209     1.0000 0.57217  0.14433  0.33383  Biso   1.000  C
  H64      1.0000 0.59287  0.18573  0.34583  Biso   1.000  H
  C210     1.0000 0.48522  0.97043  0.37213  Biso   1.000  C
  C211     1.0000 0.43052  0.86103  0.42543  Biso   1.000  C
  C212     1.0000 0.40027  0.80053  0.45483  Biso   1.000  C
  Zn21     1.0000 0.28890  0.57780  0.50517  Biso   1.000  Zn
  O71      1.0000 0.25893  0.51787  0.55347  Biso   1.000  O
  O72      1.0000 0.29023  0.58047  0.61242  Biso   1.000  O
  C213     1.0000 0.26393  0.52787  0.59497  Biso   1.000  C
  C214     1.0000 0.23538  0.47077  0.62127  Biso   1.000  C
  C215     1.0000 0.20458  0.40917  0.60267  Biso   1.000  C
  H65      1.0000 0.20223  0.40447  0.57217  Biso   1.000  H
  C216     1.0000 0.17698  0.35397  0.62977  Biso   1.000  C
  C217     1.0000 0.18083  0.36167  0.67677  Biso   1.000  C
  C218     1.0000 0.21188  0.42377  0.69567  Biso   1.000  C
  C219     1.0000 0.23883  0.47767  0.66717  Biso   1.000  C
  H66      1.0000 0.25953  0.51907  0.67917  Biso   1.000  H
  C220     1.0000 0.15188  0.30377  0.70547  Biso   1.000  C
  C221     1.0000 0.09718  0.19437  0.75877  Biso   1.000  C
  C222     1.0000 0.06693  0.13387  0.78817  Biso   1.000  C
  Zn22     1.0000 0.95556  0.04443  0.83850  Biso   1.000  Zn
  O73      1.0000 0.92560  0.07440  0.88680  Biso   1.000  O
  O74      1.0000 0.95690  0.04310  0.94575  Biso   1.000  O
  C223     1.0000 0.93060  0.06940  0.92830  Biso   1.000  C
  C224     1.0000 0.90205  0.09795  0.95460  Biso   1.000  C
  C225     1.0000 0.87125  0.12875  0.93600  Biso   1.000  C
  H67      1.0000 0.86890  0.13110  0.90550  Biso   1.000  H
  C226     1.0000 0.84365  0.15635  0.96310  Biso   1.000  C
  C227     1.0000 0.84750  0.15250  0.01010  Biso   1.000  C
  C228     1.0000 0.87855  0.12145  0.02900  Biso   1.000  C
  C229     1.0000 0.90550  0.09450  0.00050  Biso   1.000  C
  H68      1.0000 0.92620  0.07380  0.01250  Biso   1.000  H
  C230     1.0000 0.81855  0.18145  0.03880  Biso   1.000  C
  C231     1.0000 0.76385  0.23615  0.09210  Biso   1.000  C
  C232     1.0000 0.73360  0.26640  0.12150  Biso   1.000  C
  Zn23     1.0000 0.62223  0.37777  0.17183  Biso   1.000  Zn
  O75      1.0000 0.59227  0.40773  0.22013  Biso   1.000  O
  O76      1.0000 0.62357  0.37643  0.27908  Biso   1.000  O
  C233     1.0000 0.59727  0.40273  0.26163  Biso   1.000  C
  C234     1.0000 0.56872  0.43128  0.28793  Biso   1.000  C
  C235     1.0000 0.53792  0.46208  0.26933  Biso   1.000  C
  H69      1.0000 0.53557  0.46443  0.23883  Biso   1.000  H
  C236     1.0000 0.51032  0.48968  0.29643  Biso   1.000  C
  C237     1.0000 0.51417  0.48583  0.34343  Biso   1.000  C
  C238     1.0000 0.54522  0.45478  0.36233  Biso   1.000  C
  C239     1.0000 0.57217  0.42783  0.33383  Biso   1.000  C
  H70      1.0000 0.59287  0.40713  0.34583  Biso   1.000  H
  C240     1.0000 0.48522  0.51478  0.37213  Biso   1.000  C
  C241     1.0000 0.43052  0.56948  0.42543  Biso   1.000  C
  C242     1.0000 0.40027  0.59973  0.45483  Biso   1.000  C
  Zn24     1.0000 0.28890  0.71110  0.50517  Biso   1.000  Zn
  O77      1.0000 0.25893  0.74107  0.55347  Biso   1.000  O
  O78      1.0000 0.29023  0.70977  0.61242  Biso   1.000  O
  C243     1.0000 0.26393  0.73607  0.59497  Biso   1.000  C
  C244     1.0000 0.23538  0.76462  0.62127  Biso   1.000  C
  C245     1.0000 0.20458  0.79542  0.60267  Biso   1.000  C
  H71      1.0000 0.20223  0.79777  0.57217  Biso   1.000  H
  C246     1.0000 0.17698  0.82302  0.62977  Biso   1.000  C
  C247     1.0000 0.18083  0.81917  0.67677  Biso   1.000  C
  C248     1.0000 0.21188  0.78812  0.69567  Biso   1.000  C
  C249     1.0000 0.23883  0.76117  0.66717  Biso   1.000  C
  H72      1.0000 0.25953  0.74047  0.67917  Biso   1.000  H
  C250     1.0000 0.15188  0.84812  0.70547  Biso   1.000  C
  C251     1.0000 0.09718  0.90282  0.75877  Biso   1.000  C
  C252     1.0000 0.06693  0.93307  0.78817  Biso   1.000  C
