data_image0
_cell_length_a       12.6176
_cell_length_b       14.198
_cell_length_c       14.896
_cell_angle_alpha    69.221
_cell_angle_beta     67.598
_cell_angle_gamma    78.395

_symmetry_space_group_name_H-M    "P 1"
_symmetry_int_tables_number       1

loop_
  _symmetry_equiv_pos_as_xyz
  'x, y, z'

loop_
  _atom_site_label
  _atom_site_occupancy
  _atom_site_fract_x
  _atom_site_fract_y
  _atom_site_fract_z
  _atom_site_thermal_displace_type
  _atom_site_B_iso_or_equiv
  _atom_site_type_symbol
  Gd1      1.0000 0.06449  0.51862  0.59596  Biso   1.000  Gd
  Gd2      1.0000 0.44884  0.94610  0.90664  Biso   1.000  Gd
  O1       1.0000 0.05540  0.49130  0.77700  Biso   1.000  O
  O2       1.0000 0.69560  0.04690  0.93540  Biso   1.000  O
  O3       1.0000 0.63050  0.01160  0.83200  Biso   1.000  O
  O4       1.0000 0.96980  0.39550  0.55940  Biso   1.000  O
  O5       1.0000 0.57040  0.82020  0.82380  Biso   1.000  O
  O6       1.0000 0.80860  0.56250  0.51920  Biso   1.000  O
  O7       1.0000 0.86350  0.58170  0.63760  Biso   1.000  O
  O8       1.0000 0.49170  0.95110  0.73180  Biso   1.000  O
  O9       1.0000 0.46310  0.14440  0.97470  Biso   1.000  O
  N1       1.0000 0.23540  0.63880  0.48200  Biso   1.000  N
  O10      1.0000 0.99370  0.34550  0.70900  Biso   1.000  O
  O11      1.0000 0.21250  0.44010  0.67030  Biso   1.000  O
  C1       1.0000 0.84060  0.18160  0.74960  Biso   1.000  C
  H1       1.0000 0.80880  0.21040  0.80220  Biso   1.000  H
  C2       1.0000 0.70080  0.04710  0.84880  Biso   1.000  C
  C3       1.0000 0.80000  0.09330  0.75860  Biso   1.000  C
  N2       1.0000 0.05450  0.68500  0.63580  Biso   1.000  N
  C4       1.0000 0.96570  0.32780  0.64490  Biso   1.000  C
  O12      1.0000 0.39960  0.12400  0.86450  Biso   1.000  O
  C5       1.0000 0.92920  0.22690  0.66150  Biso   1.000  C
  C6       1.0000 0.40230  0.17380  0.91800  Biso   1.000  C
  C7       1.0000 0.60640  0.82810  0.65230  Biso   1.000  C
  N3       1.0000 0.25260  0.97500  0.87480  Biso   1.000  N
  C8       1.0000 0.28250  0.31760  0.83780  Biso   1.000  C
  H2       1.0000 0.30480  0.29240  0.78300  Biso   1.000  H
  C9       1.0000 0.32630  0.27010  0.91700  Biso   1.000  C
  C10      1.0000 0.98360  0.17990  0.58700  Biso   1.000  C
  H3       1.0000 0.04380  0.20920  0.52930  Biso   1.000  H
  N4       1.0000 0.33130  0.79120  0.97970  Biso   1.000  N
  C11      1.0000 0.14240  0.74660  0.58670  Biso   1.000  C
  C12      1.0000 0.23450  0.72400  0.50310  Biso   1.000  C
  C13      1.0000 0.85220  0.04850  0.68170  Biso   1.000  C
  H4       1.0000 0.82330  0.99150  0.68540  Biso   1.000  H
  C14      1.0000 0.15500  0.44780  0.75720  Biso   1.000  C
  C15      1.0000 0.68000  0.74260  0.65650  Biso   1.000  C
  H5       1.0000 0.70040  0.71060  0.71460  Biso   1.000  H
  C16      1.0000 0.94800  0.08840  0.59900  Biso   1.000  C
  H6       1.0000 0.98800  0.05380  0.55190  Biso   1.000  H
  C17      1.0000 0.20600  0.40190  0.84040  Biso   1.000  C
  C18      1.0000 0.80360  0.60730  0.57980  Biso   1.000  C
  C19      1.0000 0.55220  0.86900  0.74110  Biso   1.000  C
  C20      1.0000 0.29830  0.31030  0.99630  Biso   1.000  C
  H7       1.0000 0.33060  0.28030  0.04750  Biso   1.000  H
  C21      1.0000 0.18160  0.89750  0.92300  Biso   1.000  C
  C22      1.0000 0.72480  0.70270  0.57510  Biso   1.000  C
  C23      1.0000 0.17460  0.44050  0.92180  Biso   1.000  C
  H8       1.0000 0.12180  0.49640  0.92460  Biso   1.000  H
  C24      1.0000 0.22230  0.80240  0.97850  Biso   1.000  C
  C25      1.0000 0.32180  0.79220  0.44520  Biso   1.000  C
  C26      1.0000 0.57750  0.87680  0.56450  Biso   1.000  C
  H9       1.0000 0.52760  0.93490  0.56100  Biso   1.000  H
  C27      1.0000 0.69410  0.75200  0.48910  Biso   1.000  C
  H10      1.0000 0.72250  0.72540  0.43480  Biso   1.000  H
  C28      1.0000 0.31890  0.62190  0.40290  Biso   1.000  C
  H11      1.0000 0.31800  0.56470  0.38660  Biso   1.000  H
  C29      1.0000 0.22250  0.39500  0.99910  Biso   1.000  C
  H12      1.0000 0.20330  0.42180  0.05240  Biso   1.000  H
  C30      1.0000 0.96790  0.70490  0.71440  Biso   1.000  C
  H13      1.0000 0.90650  0.66420  0.74710  Biso   1.000  H
  C31      1.0000 0.14180  0.83240  0.61410  Biso   1.000  C
  C32      1.0000 0.06880  0.91250  0.91940  Biso   1.000  C
  C33      1.0000 0.14720  0.72300  0.03070  Biso   1.000  C
  C34      1.0000 0.36710  0.70090  0.03350  Biso   1.000  C
  H14      1.0000 0.44170  0.69160  0.03490  Biso   1.000  H
  C35      1.0000 0.31690  0.87910  0.47450  Biso   1.000  C
  H15      1.0000 0.37370  0.92430  0.43580  Biso   1.000  H
  C36      1.0000 0.29700  0.62090  0.08720  Biso   1.000  C
  H16      1.0000 0.32550  0.55990  0.12370  Biso   1.000  H
  C37      1.0000 0.41080  0.76960  0.36140  Biso   1.000  C
  H17      1.0000 0.46930  0.81270  0.32070  Biso   1.000  H
  C38      1.0000 0.40960  0.68420  0.34100  Biso   1.000  C
  H18      1.0000 0.46790  0.66710  0.28690  Biso   1.000  H
  C39      1.0000 0.23450  0.89720  0.55460  Biso   1.000  C
  H19      1.0000 0.23630  0.95280  0.57290  Biso   1.000  H
  C40      1.0000 0.21410  0.06420  0.82240  Biso   1.000  C
  H20      1.0000 0.26270  0.11650  0.78850  Biso   1.000  H
  C41      1.0000 0.62300  0.83860  0.48190  Biso   1.000  C
  H21      1.0000 0.60520  0.87180  0.42270  Biso   1.000  H
  C42      1.0000 0.19070  0.63010  0.08720  Biso   1.000  C
  H22      1.0000 0.14450  0.57610  0.12400  Biso   1.000  H
  C43      1.0000 0.03530  0.74040  0.02430  Biso   1.000  C
  H23      1.0000 0.98690  0.68790  0.05760  Biso   1.000  H
  C44      1.0000 0.96580  0.78440  0.74950  Biso   1.000  C
  H24      1.0000 0.90680  0.79340  0.80740  Biso   1.000  H
  C45      1.0000 0.05110  0.84860  0.69810  Biso   1.000  C
  H25      1.0000 0.04880  0.90350  0.71910  Biso   1.000  H
  C46      1.0000 0.03030  0.00890  0.86600  Biso   1.000  C
  H26      1.0000 0.95540  0.02190  0.86490  Biso   1.000  H
  C47      1.0000 0.10510  0.08140  0.81660  Biso   1.000  C
  H27      1.0000 0.08280  0.14420  0.77790  Biso   1.000  H
  C48      1.0000 0.99700  0.82920  0.97260  Biso   1.000  C
  H28      1.0000 0.92280  0.83750  0.97080  Biso   1.000  H
  Gd3      1.0000 0.93551  0.48138  0.40404  Biso   1.000  Gd
  Gd4      1.0000 0.55116  0.05390  0.09336  Biso   1.000  Gd
  O13      1.0000 0.94460  0.50870  0.22300  Biso   1.000  O
  O14      1.0000 0.30440  0.95310  0.06460  Biso   1.000  O
  O15      1.0000 0.36950  0.98840  0.16800  Biso   1.000  O
  O16      1.0000 0.03020  0.60450  0.44060  Biso   1.000  O
  O17      1.0000 0.42960  0.17980  0.17620  Biso   1.000  O
  O18      1.0000 0.19140  0.43750  0.48080  Biso   1.000  O
  O19      1.0000 0.13650  0.41830  0.36240  Biso   1.000  O
  O20      1.0000 0.50830  0.04890  0.26820  Biso   1.000  O
  O21      1.0000 0.53690  0.85560  0.02530  Biso   1.000  O
  N5       1.0000 0.76460  0.36120  0.51800  Biso   1.000  N
  O22      1.0000 0.00630  0.65450  0.29100  Biso   1.000  O
  O23      1.0000 0.78750  0.55990  0.32970  Biso   1.000  O
  C49      1.0000 0.15940  0.81840  0.25040  Biso   1.000  C
  H29      1.0000 0.19120  0.78960  0.19780  Biso   1.000  H
  C50      1.0000 0.29920  0.95290  0.15120  Biso   1.000  C
  C51      1.0000 0.20000  0.90670  0.24140  Biso   1.000  C
  N6       1.0000 0.94550  0.31500  0.36420  Biso   1.000  N
  C52      1.0000 0.03430  0.67220  0.35510  Biso   1.000  C
  O24      1.0000 0.60040  0.87600  0.13550  Biso   1.000  O
  C53      1.0000 0.07080  0.77310  0.33850  Biso   1.000  C
  C54      1.0000 0.59770  0.82620  0.08200  Biso   1.000  C
  C55      1.0000 0.39360  0.17190  0.34770  Biso   1.000  C
  N7       1.0000 0.74740  0.02500  0.12520  Biso   1.000  N
  C56      1.0000 0.71750  0.68240  0.16220  Biso   1.000  C
  H30      1.0000 0.69520  0.70760  0.21700  Biso   1.000  H
  C57      1.0000 0.67370  0.72990  0.08300  Biso   1.000  C
  C58      1.0000 0.01640  0.82010  0.41300  Biso   1.000  C
  H31      1.0000 0.95620  0.79080  0.47070  Biso   1.000  H
  N8       1.0000 0.66870  0.20880  0.02030  Biso   1.000  N
  C59      1.0000 0.85760  0.25340  0.41330  Biso   1.000  C
  C60      1.0000 0.76550  0.27600  0.49690  Biso   1.000  C
  C61      1.0000 0.14780  0.95150  0.31830  Biso   1.000  C
  H32      1.0000 0.17670  0.00850  0.31460  Biso   1.000  H
  C62      1.0000 0.84500  0.55220  0.24280  Biso   1.000  C
  C63      1.0000 0.32000  0.25740  0.34350  Biso   1.000  C
  H33      1.0000 0.29960  0.28940  0.28540  Biso   1.000  H
  C64      1.0000 0.05200  0.91160  0.40100  Biso   1.000  C
  H34      1.0000 0.01200  0.94620  0.44810  Biso   1.000  H
  C65      1.0000 0.79400  0.59810  0.15960  Biso   1.000  C
  C66      1.0000 0.19640  0.39270  0.42020  Biso   1.000  C
  C67      1.0000 0.44780  0.13100  0.25890  Biso   1.000  C
  C68      1.0000 0.70170  0.68970  0.00370  Biso   1.000  C
  H35      1.0000 0.66940  0.71970  0.95250  Biso   1.000  H
  C69      1.0000 0.81840  0.10250  0.07700  Biso   1.000  C
  C70      1.0000 0.27520  0.29730  0.42490  Biso   1.000  C
  C71      1.0000 0.82540  0.55950  0.07820  Biso   1.000  C
  H36      1.0000 0.87820  0.50360  0.07540  Biso   1.000  H
  C72      1.0000 0.77770  0.19760  0.02150  Biso   1.000  C
  C73      1.0000 0.67820  0.20780  0.55480  Biso   1.000  C
  C74      1.0000 0.42250  0.12320  0.43550  Biso   1.000  C
  H37      1.0000 0.47240  0.06510  0.43900  Biso   1.000  H
  C75      1.0000 0.30590  0.24800  0.51090  Biso   1.000  C
  H38      1.0000 0.27750  0.27460  0.56520  Biso   1.000  H
  C76      1.0000 0.68110  0.37810  0.59710  Biso   1.000  C
  H39      1.0000 0.68200  0.43530  0.61340  Biso   1.000  H
  C77      1.0000 0.77750  0.60500  0.00090  Biso   1.000  C
  H40      1.0000 0.79670  0.57820  0.94760  Biso   1.000  H
  C78      1.0000 0.03210  0.29510  0.28560  Biso   1.000  C
  H41      1.0000 0.09350  0.33580  0.25290  Biso   1.000  H
  C79      1.0000 0.85820  0.16760  0.38590  Biso   1.000  C
  C80      1.0000 0.93120  0.08750  0.08060  Biso   1.000  C
  C81      1.0000 0.85280  0.27700  0.96930  Biso   1.000  C
  C82      1.0000 0.63290  0.29910  0.96650  Biso   1.000  C
  H42      1.0000 0.55830  0.30840  0.96510  Biso   1.000  H
  C83      1.0000 0.68310  0.12090  0.52550  Biso   1.000  C
  H43      1.0000 0.62630  0.07570  0.56420  Biso   1.000  H
  C84      1.0000 0.70300  0.37910  0.91280  Biso   1.000  C
  H44      1.0000 0.67450  0.44010  0.87630  Biso   1.000  H
  C85      1.0000 0.58920  0.23040  0.63860  Biso   1.000  C
  H45      1.0000 0.53070  0.18730  0.67930  Biso   1.000  H
  C86      1.0000 0.59040  0.31580  0.65900  Biso   1.000  C
  H46      1.0000 0.53210  0.33290  0.71310  Biso   1.000  H
  C87      1.0000 0.76550  0.10280  0.44540  Biso   1.000  C
  H47      1.0000 0.76370  0.04720  0.42710  Biso   1.000  H
  C88      1.0000 0.78590  0.93580  0.17760  Biso   1.000  C
  H48      1.0000 0.73730  0.88350  0.21150  Biso   1.000  H
  C89      1.0000 0.37700  0.16140  0.51810  Biso   1.000  C
  H49      1.0000 0.39480  0.12820  0.57730  Biso   1.000  H
  C90      1.0000 0.80930  0.36990  0.91280  Biso   1.000  C
  H50      1.0000 0.85550  0.42390  0.87600  Biso   1.000  H
  C91      1.0000 0.96470  0.25960  0.97570  Biso   1.000  C
  H51      1.0000 0.01310  0.31210  0.94240  Biso   1.000  H
  C92      1.0000 0.03420  0.21560  0.25050  Biso   1.000  C
  H52      1.0000 0.09320  0.20660  0.19260  Biso   1.000  H
  C93      1.0000 0.94890  0.15140  0.30190  Biso   1.000  C
  H53      1.0000 0.95120  0.09650  0.28090  Biso   1.000  H
  C94      1.0000 0.96970  0.99110  0.13400  Biso   1.000  C
  H54      1.0000 0.04460  0.97810  0.13510  Biso   1.000  H
  C95      1.0000 0.89490  0.91860  0.18340  Biso   1.000  C
  H55      1.0000 0.91720  0.85580  0.22210  Biso   1.000  H
  C96      1.0000 0.00300  0.17080  0.02740  Biso   1.000  C
  H56      1.0000 0.07720  0.16250  0.02920  Biso   1.000  H
