data_image0
_cell_length_a       13.657
_cell_length_b       13.657
_cell_length_c       53.305
_cell_angle_alpha    90
_cell_angle_beta     90
_cell_angle_gamma    90

_symmetry_space_group_name_H-M    "P 1"
_symmetry_int_tables_number       1

loop_
  _symmetry_equiv_pos_as_xyz
  'x, y, z'

loop_
  _atom_site_label
  _atom_site_occupancy
  _atom_site_fract_x
  _atom_site_fract_y
  _atom_site_fract_z
  _atom_site_thermal_displace_type
  _atom_site_B_iso_or_equiv
  _atom_site_type_symbol
  Cu1      1.0000 0.94031  0.93609  0.11800  Biso   1.000  Cu
  S1       1.0000 0.87155  0.79422  0.10164  Biso   1.000  S
  N1       1.0000 0.02820  0.97950  0.08593  Biso   1.000  N
  N2       1.0000 0.85030  0.04120  0.12349  Biso   1.000  N
  N3       1.0000 0.15150  0.02850  0.99827  Biso   1.000  N
  N4       1.0000 0.29530  0.02840  0.02250  Biso   1.000  N
  C1       1.0000 0.12170  0.00310  0.08729  Biso   1.000  C
  H1       1.0000 0.14980  0.00940  0.10310  Biso   1.000  H
  C2       1.0000 0.18030  0.01880  0.06663  Biso   1.000  C
  H2       1.0000 0.24650  0.03290  0.06850  Biso   1.000  H
  C3       1.0000 0.13960  0.01140  0.04310  Biso   1.000  C
  C4       1.0000 0.04340  0.98900  0.04160  Biso   1.000  C
  H3       1.0000 0.01240  0.98750  0.02610  Biso   1.000  H
  C5       1.0000 0.99010  0.97340  0.06343  Biso   1.000  C
  H4       1.0000 0.92520  0.95340  0.06200  Biso   1.000  H
  C6       1.0000 0.19900  0.02360  0.02011  Biso   1.000  C
  C7       1.0000 0.79120  0.10030  0.12651  Biso   1.000  C
  Cu2      1.0000 0.44031  0.43609  0.61800  Biso   1.000  Cu
  S2       1.0000 0.37155  0.29422  0.60164  Biso   1.000  S
  N5       1.0000 0.52820  0.47950  0.58593  Biso   1.000  N
  N6       1.0000 0.35030  0.54120  0.62349  Biso   1.000  N
  N7       1.0000 0.65150  0.52850  0.49827  Biso   1.000  N
  N8       1.0000 0.79530  0.52840  0.52250  Biso   1.000  N
  C8       1.0000 0.62170  0.50310  0.58729  Biso   1.000  C
  H5       1.0000 0.64980  0.50940  0.60310  Biso   1.000  H
  C9       1.0000 0.68030  0.51880  0.56663  Biso   1.000  C
  H6       1.0000 0.74650  0.53290  0.56850  Biso   1.000  H
  C10      1.0000 0.63960  0.51140  0.54310  Biso   1.000  C
  C11      1.0000 0.54340  0.48900  0.54160  Biso   1.000  C
  H7       1.0000 0.51240  0.48750  0.52610  Biso   1.000  H
  C12      1.0000 0.49010  0.47340  0.56343  Biso   1.000  C
  H8       1.0000 0.42520  0.45340  0.56200  Biso   1.000  H
  C13      1.0000 0.69900  0.52360  0.52011  Biso   1.000  C
  C14      1.0000 0.29120  0.60030  0.62651  Biso   1.000  C
  Cu3      1.0000 0.55969  0.06391  0.61800  Biso   1.000  Cu
  S3       1.0000 0.62845  0.20578  0.60164  Biso   1.000  S
  N9       1.0000 0.47180  0.02050  0.58593  Biso   1.000  N
  N10      1.0000 0.64970  0.95880  0.62349  Biso   1.000  N
  N11      1.0000 0.34850  0.97150  0.49827  Biso   1.000  N
  N12      1.0000 0.20470  0.97160  0.52250  Biso   1.000  N
  C15      1.0000 0.37830  0.99690  0.58729  Biso   1.000  C
  H9       1.0000 0.35020  0.99060  0.60310  Biso   1.000  H
  C16      1.0000 0.31970  0.98120  0.56663  Biso   1.000  C
  H10      1.0000 0.25350  0.96710  0.56850  Biso   1.000  H
  C17      1.0000 0.36040  0.98860  0.54310  Biso   1.000  C
  C18      1.0000 0.45660  0.01100  0.54160  Biso   1.000  C
  H11      1.0000 0.48760  0.01250  0.52610  Biso   1.000  H
  C19      1.0000 0.50990  0.02660  0.56343  Biso   1.000  C
  H12      1.0000 0.57480  0.04660  0.56200  Biso   1.000  H
  C20      1.0000 0.30100  0.97640  0.52011  Biso   1.000  C
  C21      1.0000 0.70880  0.89970  0.62651  Biso   1.000  C
  Cu4      1.0000 0.05969  0.56391  0.11800  Biso   1.000  Cu
  S4       1.0000 0.12845  0.70578  0.10164  Biso   1.000  S
  N13      1.0000 0.97180  0.52050  0.08593  Biso   1.000  N
  N14      1.0000 0.14970  0.45880  0.12349  Biso   1.000  N
  N15      1.0000 0.84850  0.47150  0.99827  Biso   1.000  N
  N16      1.0000 0.70470  0.47160  0.02250  Biso   1.000  N
  C22      1.0000 0.87830  0.49690  0.08729  Biso   1.000  C
  H13      1.0000 0.85020  0.49060  0.10310  Biso   1.000  H
  C23      1.0000 0.81970  0.48120  0.06663  Biso   1.000  C
  H14      1.0000 0.75350  0.46710  0.06850  Biso   1.000  H
  C24      1.0000 0.86040  0.48860  0.04310  Biso   1.000  C
  C25      1.0000 0.95660  0.51100  0.04160  Biso   1.000  C
  H15      1.0000 0.98760  0.51250  0.02610  Biso   1.000  H
  C26      1.0000 0.00990  0.52660  0.06343  Biso   1.000  C
  H16      1.0000 0.07480  0.54660  0.06200  Biso   1.000  H
  C27      1.0000 0.80100  0.47640  0.02011  Biso   1.000  C
  C28      1.0000 0.20880  0.39970  0.12651  Biso   1.000  C
  Cu5      1.0000 0.31391  0.69031  0.36800  Biso   1.000  Cu
  S5       1.0000 0.45578  0.62155  0.35164  Biso   1.000  S
  N17      1.0000 0.27050  0.77820  0.33593  Biso   1.000  N
  N18      1.0000 0.20880  0.60030  0.37349  Biso   1.000  N
  N19      1.0000 0.22150  0.90150  0.24827  Biso   1.000  N
  N20      1.0000 0.22160  0.04530  0.27250  Biso   1.000  N
  C29      1.0000 0.24690  0.87170  0.33729  Biso   1.000  C
  H17      1.0000 0.24060  0.89980  0.35310  Biso   1.000  H
  C30      1.0000 0.23120  0.93030  0.31663  Biso   1.000  C
  H18      1.0000 0.21710  0.99650  0.31850  Biso   1.000  H
  C31      1.0000 0.23860  0.88960  0.29310  Biso   1.000  C
  C32      1.0000 0.26100  0.79340  0.29160  Biso   1.000  C
  H19      1.0000 0.26250  0.76240  0.27610  Biso   1.000  H
  C33      1.0000 0.27660  0.74010  0.31343  Biso   1.000  C
  H20      1.0000 0.29660  0.67520  0.31200  Biso   1.000  H
  C34      1.0000 0.22640  0.94900  0.27011  Biso   1.000  C
  C35      1.0000 0.14970  0.54120  0.37651  Biso   1.000  C
  Cu6      1.0000 0.81391  0.19031  0.86800  Biso   1.000  Cu
  S6       1.0000 0.95578  0.12155  0.85164  Biso   1.000  S
  N21      1.0000 0.77050  0.27820  0.83593  Biso   1.000  N
  N22      1.0000 0.70880  0.10030  0.87349  Biso   1.000  N
  N23      1.0000 0.72150  0.40150  0.74827  Biso   1.000  N
  N24      1.0000 0.72160  0.54530  0.77250  Biso   1.000  N
  C36      1.0000 0.74690  0.37170  0.83729  Biso   1.000  C
  H21      1.0000 0.74060  0.39980  0.85310  Biso   1.000  H
  C37      1.0000 0.73120  0.43030  0.81663  Biso   1.000  C
  H22      1.0000 0.71710  0.49650  0.81850  Biso   1.000  H
  C38      1.0000 0.73860  0.38960  0.79310  Biso   1.000  C
  C39      1.0000 0.76100  0.29340  0.79160  Biso   1.000  C
  H23      1.0000 0.76250  0.26240  0.77610  Biso   1.000  H
  C40      1.0000 0.77660  0.24010  0.81343  Biso   1.000  C
  H24      1.0000 0.79660  0.17520  0.81200  Biso   1.000  H
  C41      1.0000 0.72640  0.44900  0.77011  Biso   1.000  C
  C42      1.0000 0.64970  0.04120  0.87651  Biso   1.000  C
  Cu7      1.0000 0.18609  0.30969  0.86800  Biso   1.000  Cu
  S7       1.0000 0.04422  0.37845  0.85164  Biso   1.000  S
  N25      1.0000 0.22950  0.22180  0.83593  Biso   1.000  N
  N26      1.0000 0.29120  0.39970  0.87349  Biso   1.000  N
  N27      1.0000 0.27850  0.09850  0.74827  Biso   1.000  N
  N28      1.0000 0.27840  0.95470  0.77250  Biso   1.000  N
  C43      1.0000 0.25310  0.12830  0.83729  Biso   1.000  C
  H25      1.0000 0.25940  0.10020  0.85310  Biso   1.000  H
  C44      1.0000 0.26880  0.06970  0.81663  Biso   1.000  C
  H26      1.0000 0.28290  0.00350  0.81850  Biso   1.000  H
  C45      1.0000 0.26140  0.11040  0.79310  Biso   1.000  C
  C46      1.0000 0.23900  0.20660  0.79160  Biso   1.000  C
  H27      1.0000 0.23750  0.23760  0.77610  Biso   1.000  H
  C47      1.0000 0.22340  0.25990  0.81343  Biso   1.000  C
  H28      1.0000 0.20340  0.32480  0.81200  Biso   1.000  H
  C48      1.0000 0.27360  0.05100  0.77011  Biso   1.000  C
  C49      1.0000 0.35030  0.45880  0.87651  Biso   1.000  C
  Cu8      1.0000 0.68609  0.80969  0.36800  Biso   1.000  Cu
  S8       1.0000 0.54422  0.87845  0.35164  Biso   1.000  S
  N29      1.0000 0.72950  0.72180  0.33593  Biso   1.000  N
  N30      1.0000 0.79120  0.89970  0.37349  Biso   1.000  N
  N31      1.0000 0.77850  0.59850  0.24827  Biso   1.000  N
  N32      1.0000 0.77840  0.45470  0.27250  Biso   1.000  N
  C50      1.0000 0.75310  0.62830  0.33729  Biso   1.000  C
  H29      1.0000 0.75940  0.60020  0.35310  Biso   1.000  H
  C51      1.0000 0.76880  0.56970  0.31663  Biso   1.000  C
  H30      1.0000 0.78290  0.50350  0.31850  Biso   1.000  H
  C52      1.0000 0.76140  0.61040  0.29310  Biso   1.000  C
  C53      1.0000 0.73900  0.70660  0.29160  Biso   1.000  C
  H31      1.0000 0.73750  0.73760  0.27610  Biso   1.000  H
  C54      1.0000 0.72340  0.75990  0.31343  Biso   1.000  C
  H32      1.0000 0.70340  0.82480  0.31200  Biso   1.000  H
  C55      1.0000 0.77360  0.55100  0.27011  Biso   1.000  C
  C56      1.0000 0.85030  0.95880  0.37651  Biso   1.000  C
  Cu9      1.0000 0.55969  0.93609  0.88200  Biso   1.000  Cu
  S9       1.0000 0.62845  0.79422  0.89836  Biso   1.000  S
  N33      1.0000 0.47180  0.97950  0.91407  Biso   1.000  N
  N34      1.0000 0.34850  0.02850  0.00173  Biso   1.000  N
  N35      1.0000 0.20470  0.02840  0.97750  Biso   1.000  N
  C57      1.0000 0.37830  0.00310  0.91271  Biso   1.000  C
  H33      1.0000 0.35020  0.00940  0.89690  Biso   1.000  H
  C58      1.0000 0.31970  0.01880  0.93337  Biso   1.000  C
  H34      1.0000 0.25350  0.03290  0.93150  Biso   1.000  H
  C59      1.0000 0.36040  0.01140  0.95690  Biso   1.000  C
  C60      1.0000 0.45660  0.98900  0.95840  Biso   1.000  C
  H35      1.0000 0.48760  0.98750  0.97390  Biso   1.000  H
  C61      1.0000 0.50990  0.97340  0.93657  Biso   1.000  C
  H36      1.0000 0.57480  0.95340  0.93800  Biso   1.000  H
  C62      1.0000 0.30100  0.02360  0.97989  Biso   1.000  C
  Cu10     1.0000 0.05969  0.43609  0.38200  Biso   1.000  Cu
  S10      1.0000 0.12845  0.29422  0.39836  Biso   1.000  S
  N36      1.0000 0.97180  0.47950  0.41407  Biso   1.000  N
  N37      1.0000 0.84850  0.52850  0.50173  Biso   1.000  N
  N38      1.0000 0.70470  0.52840  0.47750  Biso   1.000  N
  C63      1.0000 0.87830  0.50310  0.41271  Biso   1.000  C
  H37      1.0000 0.85020  0.50940  0.39690  Biso   1.000  H
  C64      1.0000 0.81970  0.51880  0.43337  Biso   1.000  C
  H38      1.0000 0.75350  0.53290  0.43150  Biso   1.000  H
  C65      1.0000 0.86040  0.51140  0.45690  Biso   1.000  C
  C66      1.0000 0.95660  0.48900  0.45840  Biso   1.000  C
  H39      1.0000 0.98760  0.48750  0.47390  Biso   1.000  H
  C67      1.0000 0.00990  0.47340  0.43657  Biso   1.000  C
  H40      1.0000 0.07480  0.45340  0.43800  Biso   1.000  H
  C68      1.0000 0.80100  0.52360  0.47989  Biso   1.000  C
  Cu11     1.0000 0.94031  0.06391  0.38200  Biso   1.000  Cu
  S11      1.0000 0.87155  0.20578  0.39836  Biso   1.000  S
  N39      1.0000 0.02820  0.02050  0.41407  Biso   1.000  N
  N40      1.0000 0.15150  0.97150  0.50173  Biso   1.000  N
  N41      1.0000 0.29530  0.97160  0.47750  Biso   1.000  N
  C69      1.0000 0.12170  0.99690  0.41271  Biso   1.000  C
  H41      1.0000 0.14980  0.99060  0.39690  Biso   1.000  H
  C70      1.0000 0.18030  0.98120  0.43337  Biso   1.000  C
  H42      1.0000 0.24650  0.96710  0.43150  Biso   1.000  H
  C71      1.0000 0.13960  0.98860  0.45690  Biso   1.000  C
  C72      1.0000 0.04340  0.01100  0.45840  Biso   1.000  C
  H43      1.0000 0.01240  0.01250  0.47390  Biso   1.000  H
  C73      1.0000 0.99010  0.02660  0.43657  Biso   1.000  C
  H44      1.0000 0.92520  0.04660  0.43800  Biso   1.000  H
  C74      1.0000 0.19900  0.97640  0.47989  Biso   1.000  C
  Cu12     1.0000 0.44031  0.56391  0.88200  Biso   1.000  Cu
  S12      1.0000 0.37155  0.70578  0.89836  Biso   1.000  S
  N42      1.0000 0.52820  0.52050  0.91407  Biso   1.000  N
  N43      1.0000 0.65150  0.47150  0.00173  Biso   1.000  N
  N44      1.0000 0.79530  0.47160  0.97750  Biso   1.000  N
  C75      1.0000 0.62170  0.49690  0.91271  Biso   1.000  C
  H45      1.0000 0.64980  0.49060  0.89690  Biso   1.000  H
  C76      1.0000 0.68030  0.48120  0.93337  Biso   1.000  C
  H46      1.0000 0.74650  0.46710  0.93150  Biso   1.000  H
  C77      1.0000 0.63960  0.48860  0.95690  Biso   1.000  C
  C78      1.0000 0.54340  0.51100  0.95840  Biso   1.000  C
  H47      1.0000 0.51240  0.51250  0.97390  Biso   1.000  H
  C79      1.0000 0.49010  0.52660  0.93657  Biso   1.000  C
  H48      1.0000 0.42520  0.54660  0.93800  Biso   1.000  H
  C80      1.0000 0.69900  0.47640  0.97989  Biso   1.000  C
  Cu13     1.0000 0.18609  0.69031  0.63200  Biso   1.000  Cu
  S13      1.0000 0.04422  0.62155  0.64836  Biso   1.000  S
  N45      1.0000 0.22950  0.77820  0.66407  Biso   1.000  N
  N46      1.0000 0.27850  0.90150  0.75173  Biso   1.000  N
  N47      1.0000 0.27840  0.04530  0.72750  Biso   1.000  N
  C81      1.0000 0.25310  0.87170  0.66271  Biso   1.000  C
  H49      1.0000 0.25940  0.89980  0.64690  Biso   1.000  H
  C82      1.0000 0.26880  0.93030  0.68337  Biso   1.000  C
  H50      1.0000 0.28290  0.99650  0.68150  Biso   1.000  H
  C83      1.0000 0.26140  0.88960  0.70690  Biso   1.000  C
  C84      1.0000 0.23900  0.79340  0.70840  Biso   1.000  C
  H51      1.0000 0.23750  0.76240  0.72390  Biso   1.000  H
  C85      1.0000 0.22340  0.74010  0.68657  Biso   1.000  C
  H52      1.0000 0.20340  0.67520  0.68800  Biso   1.000  H
  C86      1.0000 0.27360  0.94900  0.72989  Biso   1.000  C
  Cu14     1.0000 0.68609  0.19031  0.13200  Biso   1.000  Cu
  S14      1.0000 0.54422  0.12155  0.14836  Biso   1.000  S
  N48      1.0000 0.72950  0.27820  0.16407  Biso   1.000  N
  N49      1.0000 0.77850  0.40150  0.25173  Biso   1.000  N
  N50      1.0000 0.77840  0.54530  0.22750  Biso   1.000  N
  C87      1.0000 0.75310  0.37170  0.16271  Biso   1.000  C
  H53      1.0000 0.75940  0.39980  0.14690  Biso   1.000  H
  C88      1.0000 0.76880  0.43030  0.18337  Biso   1.000  C
  H54      1.0000 0.78290  0.49650  0.18150  Biso   1.000  H
  C89      1.0000 0.76140  0.38960  0.20690  Biso   1.000  C
  C90      1.0000 0.73900  0.29340  0.20840  Biso   1.000  C
  H55      1.0000 0.73750  0.26240  0.22390  Biso   1.000  H
  C91      1.0000 0.72340  0.24010  0.18657  Biso   1.000  C
  H56      1.0000 0.70340  0.17520  0.18800  Biso   1.000  H
  C92      1.0000 0.77360  0.44900  0.22989  Biso   1.000  C
  Cu15     1.0000 0.31391  0.30969  0.13200  Biso   1.000  Cu
  S15      1.0000 0.45578  0.37845  0.14836  Biso   1.000  S
  N51      1.0000 0.27050  0.22180  0.16407  Biso   1.000  N
  N52      1.0000 0.22150  0.09850  0.25173  Biso   1.000  N
  N53      1.0000 0.22160  0.95470  0.22750  Biso   1.000  N
  C93      1.0000 0.24690  0.12830  0.16271  Biso   1.000  C
  H57      1.0000 0.24060  0.10020  0.14690  Biso   1.000  H
  C94      1.0000 0.23120  0.06970  0.18337  Biso   1.000  C
  H58      1.0000 0.21710  0.00350  0.18150  Biso   1.000  H
  C95      1.0000 0.23860  0.11040  0.20690  Biso   1.000  C
  C96      1.0000 0.26100  0.20660  0.20840  Biso   1.000  C
  H59      1.0000 0.26250  0.23760  0.22390  Biso   1.000  H
  C97      1.0000 0.27660  0.25990  0.18657  Biso   1.000  C
  H60      1.0000 0.29660  0.32480  0.18800  Biso   1.000  H
  C98      1.0000 0.22640  0.05100  0.22989  Biso   1.000  C
  Cu16     1.0000 0.81391  0.80969  0.63200  Biso   1.000  Cu
  S16      1.0000 0.95578  0.87845  0.64836  Biso   1.000  S
  N54      1.0000 0.77050  0.72180  0.66407  Biso   1.000  N
  N55      1.0000 0.72150  0.59850  0.75173  Biso   1.000  N
  N56      1.0000 0.72160  0.45470  0.72750  Biso   1.000  N
  C99      1.0000 0.74690  0.62830  0.66271  Biso   1.000  C
  H61      1.0000 0.74060  0.60020  0.64690  Biso   1.000  H
  C100     1.0000 0.73120  0.56970  0.68337  Biso   1.000  C
  H62      1.0000 0.71710  0.50350  0.68150  Biso   1.000  H
  C101     1.0000 0.73860  0.61040  0.70690  Biso   1.000  C
  C102     1.0000 0.76100  0.70660  0.70840  Biso   1.000  C
  H63      1.0000 0.76250  0.73760  0.72390  Biso   1.000  H
  C103     1.0000 0.77660  0.75990  0.68657  Biso   1.000  C
  H64      1.0000 0.79660  0.82480  0.68800  Biso   1.000  H
  C104     1.0000 0.72640  0.55100  0.72989  Biso   1.000  C
  Cu17     1.0000 0.05969  0.06391  0.88200  Biso   1.000  Cu
  S17      1.0000 0.12845  0.20578  0.89836  Biso   1.000  S
  N57      1.0000 0.97180  0.02050  0.91407  Biso   1.000  N
  N58      1.0000 0.14970  0.95880  0.87651  Biso   1.000  N
  N59      1.0000 0.84850  0.97150  0.00173  Biso   1.000  N
  N60      1.0000 0.70470  0.97160  0.97750  Biso   1.000  N
  C105     1.0000 0.87830  0.99690  0.91271  Biso   1.000  C
  H65      1.0000 0.85020  0.99060  0.89690  Biso   1.000  H
  C106     1.0000 0.81970  0.98120  0.93337  Biso   1.000  C
  H66      1.0000 0.75350  0.96710  0.93150  Biso   1.000  H
  C107     1.0000 0.86040  0.98860  0.95690  Biso   1.000  C
  C108     1.0000 0.95660  0.01100  0.95840  Biso   1.000  C
  H67      1.0000 0.98760  0.01250  0.97390  Biso   1.000  H
  C109     1.0000 0.00990  0.02660  0.93657  Biso   1.000  C
  H68      1.0000 0.07480  0.04660  0.93800  Biso   1.000  H
  C110     1.0000 0.80100  0.97640  0.97989  Biso   1.000  C
  C111     1.0000 0.20880  0.89970  0.87349  Biso   1.000  C
  Cu18     1.0000 0.55969  0.56391  0.38200  Biso   1.000  Cu
  S18      1.0000 0.62845  0.70578  0.39836  Biso   1.000  S
  N61      1.0000 0.47180  0.52050  0.41407  Biso   1.000  N
  N62      1.0000 0.64970  0.45880  0.37651  Biso   1.000  N
  N63      1.0000 0.34850  0.47150  0.50173  Biso   1.000  N
  N64      1.0000 0.20470  0.47160  0.47750  Biso   1.000  N
  C112     1.0000 0.37830  0.49690  0.41271  Biso   1.000  C
  H69      1.0000 0.35020  0.49060  0.39690  Biso   1.000  H
  C113     1.0000 0.31970  0.48120  0.43337  Biso   1.000  C
  H70      1.0000 0.25350  0.46710  0.43150  Biso   1.000  H
  C114     1.0000 0.36040  0.48860  0.45690  Biso   1.000  C
  C115     1.0000 0.45660  0.51100  0.45840  Biso   1.000  C
  H71      1.0000 0.48760  0.51250  0.47390  Biso   1.000  H
  C116     1.0000 0.50990  0.52660  0.43657  Biso   1.000  C
  H72      1.0000 0.57480  0.54660  0.43800  Biso   1.000  H
  C117     1.0000 0.30100  0.47640  0.47989  Biso   1.000  C
  C118     1.0000 0.70880  0.39970  0.37349  Biso   1.000  C
  Cu19     1.0000 0.44031  0.93609  0.38200  Biso   1.000  Cu
  S19      1.0000 0.37155  0.79422  0.39836  Biso   1.000  S
  N65      1.0000 0.52820  0.97950  0.41407  Biso   1.000  N
  N66      1.0000 0.35030  0.04120  0.37651  Biso   1.000  N
  N67      1.0000 0.65150  0.02850  0.50173  Biso   1.000  N
  N68      1.0000 0.79530  0.02840  0.47750  Biso   1.000  N
  C119     1.0000 0.62170  0.00310  0.41271  Biso   1.000  C
  H73      1.0000 0.64980  0.00940  0.39690  Biso   1.000  H
  C120     1.0000 0.68030  0.01880  0.43337  Biso   1.000  C
  H74      1.0000 0.74650  0.03290  0.43150  Biso   1.000  H
  C121     1.0000 0.63960  0.01140  0.45690  Biso   1.000  C
  C122     1.0000 0.54340  0.98900  0.45840  Biso   1.000  C
  H75      1.0000 0.51240  0.98750  0.47390  Biso   1.000  H
  C123     1.0000 0.49010  0.97340  0.43657  Biso   1.000  C
  H76      1.0000 0.42520  0.95340  0.43800  Biso   1.000  H
  C124     1.0000 0.69900  0.02360  0.47989  Biso   1.000  C
  C125     1.0000 0.29120  0.10030  0.37349  Biso   1.000  C
  Cu20     1.0000 0.94031  0.43609  0.88200  Biso   1.000  Cu
  S20      1.0000 0.87155  0.29422  0.89836  Biso   1.000  S
  N69      1.0000 0.02820  0.47950  0.91407  Biso   1.000  N
  N70      1.0000 0.85030  0.54120  0.87651  Biso   1.000  N
  N71      1.0000 0.15150  0.52850  0.00173  Biso   1.000  N
  N72      1.0000 0.29530  0.52840  0.97750  Biso   1.000  N
  C126     1.0000 0.12170  0.50310  0.91271  Biso   1.000  C
  H77      1.0000 0.14980  0.50940  0.89690  Biso   1.000  H
  C127     1.0000 0.18030  0.51880  0.93337  Biso   1.000  C
  H78      1.0000 0.24650  0.53290  0.93150  Biso   1.000  H
  C128     1.0000 0.13960  0.51140  0.95690  Biso   1.000  C
  C129     1.0000 0.04340  0.48900  0.95840  Biso   1.000  C
  H79      1.0000 0.01240  0.48750  0.97390  Biso   1.000  H
  C130     1.0000 0.99010  0.47340  0.93657  Biso   1.000  C
  H80      1.0000 0.92520  0.45340  0.93800  Biso   1.000  H
  C131     1.0000 0.19900  0.52360  0.97989  Biso   1.000  C
  C132     1.0000 0.79120  0.60030  0.87349  Biso   1.000  C
  Cu21     1.0000 0.68609  0.30969  0.63200  Biso   1.000  Cu
  S21      1.0000 0.54422  0.37845  0.64836  Biso   1.000  S
  N73      1.0000 0.72950  0.22180  0.66407  Biso   1.000  N
  N74      1.0000 0.79120  0.39970  0.62651  Biso   1.000  N
  N75      1.0000 0.77850  0.09850  0.75173  Biso   1.000  N
  N76      1.0000 0.77840  0.95470  0.72750  Biso   1.000  N
  C133     1.0000 0.75310  0.12830  0.66271  Biso   1.000  C
  H81      1.0000 0.75940  0.10020  0.64690  Biso   1.000  H
  C134     1.0000 0.76880  0.06970  0.68337  Biso   1.000  C
  H82      1.0000 0.78290  0.00350  0.68150  Biso   1.000  H
  C135     1.0000 0.76140  0.11040  0.70690  Biso   1.000  C
  C136     1.0000 0.73900  0.20660  0.70840  Biso   1.000  C
  H83      1.0000 0.73750  0.23760  0.72390  Biso   1.000  H
  C137     1.0000 0.72340  0.25990  0.68657  Biso   1.000  C
  H84      1.0000 0.70340  0.32480  0.68800  Biso   1.000  H
  C138     1.0000 0.77360  0.05100  0.72989  Biso   1.000  C
  C139     1.0000 0.85030  0.45880  0.62349  Biso   1.000  C
  Cu22     1.0000 0.18609  0.80969  0.13200  Biso   1.000  Cu
  S22      1.0000 0.04422  0.87845  0.14836  Biso   1.000  S
  N77      1.0000 0.22950  0.72180  0.16407  Biso   1.000  N
  N78      1.0000 0.29120  0.89970  0.12651  Biso   1.000  N
  N79      1.0000 0.27850  0.59850  0.25173  Biso   1.000  N
  N80      1.0000 0.27840  0.45470  0.22750  Biso   1.000  N
  C140     1.0000 0.25310  0.62830  0.16271  Biso   1.000  C
  H85      1.0000 0.25940  0.60020  0.14690  Biso   1.000  H
  C141     1.0000 0.26880  0.56970  0.18337  Biso   1.000  C
  H86      1.0000 0.28290  0.50350  0.18150  Biso   1.000  H
  C142     1.0000 0.26140  0.61040  0.20690  Biso   1.000  C
  C143     1.0000 0.23900  0.70660  0.20840  Biso   1.000  C
  H87      1.0000 0.23750  0.73760  0.22390  Biso   1.000  H
  C144     1.0000 0.22340  0.75990  0.18657  Biso   1.000  C
  H88      1.0000 0.20340  0.82480  0.18800  Biso   1.000  H
  C145     1.0000 0.27360  0.55100  0.22989  Biso   1.000  C
  C146     1.0000 0.35030  0.95880  0.12349  Biso   1.000  C
  Cu23     1.0000 0.81391  0.69031  0.13200  Biso   1.000  Cu
  S23      1.0000 0.95578  0.62155  0.14836  Biso   1.000  S
  N81      1.0000 0.77050  0.77820  0.16407  Biso   1.000  N
  N82      1.0000 0.70880  0.60030  0.12651  Biso   1.000  N
  N83      1.0000 0.72150  0.90150  0.25173  Biso   1.000  N
  N84      1.0000 0.72160  0.04530  0.22750  Biso   1.000  N
  C147     1.0000 0.74690  0.87170  0.16271  Biso   1.000  C
  H89      1.0000 0.74060  0.89980  0.14690  Biso   1.000  H
  C148     1.0000 0.73120  0.93030  0.18337  Biso   1.000  C
  H90      1.0000 0.71710  0.99650  0.18150  Biso   1.000  H
  C149     1.0000 0.73860  0.88960  0.20690  Biso   1.000  C
  C150     1.0000 0.76100  0.79340  0.20840  Biso   1.000  C
  H91      1.0000 0.76250  0.76240  0.22390  Biso   1.000  H
  C151     1.0000 0.77660  0.74010  0.18657  Biso   1.000  C
  H92      1.0000 0.79660  0.67520  0.18800  Biso   1.000  H
  C152     1.0000 0.72640  0.94900  0.22989  Biso   1.000  C
  C153     1.0000 0.64970  0.54120  0.12349  Biso   1.000  C
  Cu24     1.0000 0.31391  0.19031  0.63200  Biso   1.000  Cu
  S24      1.0000 0.45578  0.12155  0.64836  Biso   1.000  S
  N85      1.0000 0.27050  0.27820  0.66407  Biso   1.000  N
  N86      1.0000 0.20880  0.10030  0.62651  Biso   1.000  N
  N87      1.0000 0.22150  0.40150  0.75173  Biso   1.000  N
  N88      1.0000 0.22160  0.54530  0.72750  Biso   1.000  N
  C154     1.0000 0.24690  0.37170  0.66271  Biso   1.000  C
  H93      1.0000 0.24060  0.39980  0.64690  Biso   1.000  H
  C155     1.0000 0.23120  0.43030  0.68337  Biso   1.000  C
  H94      1.0000 0.21710  0.49650  0.68150  Biso   1.000  H
  C156     1.0000 0.23860  0.38960  0.70690  Biso   1.000  C
  C157     1.0000 0.26100  0.29340  0.70840  Biso   1.000  C
  H95      1.0000 0.26250  0.26240  0.72390  Biso   1.000  H
  C158     1.0000 0.27660  0.24010  0.68657  Biso   1.000  C
  H96      1.0000 0.29660  0.17520  0.68800  Biso   1.000  H
  C159     1.0000 0.22640  0.44900  0.72989  Biso   1.000  C
  C160     1.0000 0.14970  0.04120  0.62349  Biso   1.000  C
  Cu25     1.0000 0.44031  0.06391  0.11800  Biso   1.000  Cu
  S25      1.0000 0.37155  0.20578  0.10164  Biso   1.000  S
  N89      1.0000 0.52820  0.02050  0.08593  Biso   1.000  N
  N90      1.0000 0.65150  0.97150  0.99827  Biso   1.000  N
  N91      1.0000 0.79530  0.97160  0.02250  Biso   1.000  N
  C161     1.0000 0.62170  0.99690  0.08729  Biso   1.000  C
  H97      1.0000 0.64980  0.99060  0.10310  Biso   1.000  H
  C162     1.0000 0.68030  0.98120  0.06663  Biso   1.000  C
  H98      1.0000 0.74650  0.96710  0.06850  Biso   1.000  H
  C163     1.0000 0.63960  0.98860  0.04310  Biso   1.000  C
  C164     1.0000 0.54340  0.01100  0.04160  Biso   1.000  C
  H99      1.0000 0.51240  0.01250  0.02610  Biso   1.000  H
  C165     1.0000 0.49010  0.02660  0.06343  Biso   1.000  C
  H100     1.0000 0.42520  0.04660  0.06200  Biso   1.000  H
  C166     1.0000 0.69900  0.97640  0.02011  Biso   1.000  C
  Cu26     1.0000 0.94031  0.56391  0.61800  Biso   1.000  Cu
  S26      1.0000 0.87155  0.70578  0.60164  Biso   1.000  S
  N92      1.0000 0.02820  0.52050  0.58593  Biso   1.000  N
  N93      1.0000 0.15150  0.47150  0.49827  Biso   1.000  N
  N94      1.0000 0.29530  0.47160  0.52250  Biso   1.000  N
  C167     1.0000 0.12170  0.49690  0.58729  Biso   1.000  C
  H101     1.0000 0.14980  0.49060  0.60310  Biso   1.000  H
  C168     1.0000 0.18030  0.48120  0.56663  Biso   1.000  C
  H102     1.0000 0.24650  0.46710  0.56850  Biso   1.000  H
  C169     1.0000 0.13960  0.48860  0.54310  Biso   1.000  C
  C170     1.0000 0.04340  0.51100  0.54160  Biso   1.000  C
  H103     1.0000 0.01240  0.51250  0.52610  Biso   1.000  H
  C171     1.0000 0.99010  0.52660  0.56343  Biso   1.000  C
  H104     1.0000 0.92520  0.54660  0.56200  Biso   1.000  H
  C172     1.0000 0.19900  0.47640  0.52011  Biso   1.000  C
  Cu27     1.0000 0.05969  0.93609  0.61800  Biso   1.000  Cu
  S27      1.0000 0.12845  0.79422  0.60164  Biso   1.000  S
  N95      1.0000 0.97180  0.97950  0.58593  Biso   1.000  N
  N96      1.0000 0.84850  0.02850  0.49827  Biso   1.000  N
  N97      1.0000 0.70470  0.02840  0.52250  Biso   1.000  N
  C173     1.0000 0.87830  0.00310  0.58729  Biso   1.000  C
  H105     1.0000 0.85020  0.00940  0.60310  Biso   1.000  H
  C174     1.0000 0.81970  0.01880  0.56663  Biso   1.000  C
  H106     1.0000 0.75350  0.03290  0.56850  Biso   1.000  H
  C175     1.0000 0.86040  0.01140  0.54310  Biso   1.000  C
  C176     1.0000 0.95660  0.98900  0.54160  Biso   1.000  C
  H107     1.0000 0.98760  0.98750  0.52610  Biso   1.000  H
  C177     1.0000 0.00990  0.97340  0.56343  Biso   1.000  C
  H108     1.0000 0.07480  0.95340  0.56200  Biso   1.000  H
  C178     1.0000 0.80100  0.02360  0.52011  Biso   1.000  C
  Cu28     1.0000 0.55969  0.43609  0.11800  Biso   1.000  Cu
  S28      1.0000 0.62845  0.29422  0.10164  Biso   1.000  S
  N98      1.0000 0.47180  0.47950  0.08593  Biso   1.000  N
  N99      1.0000 0.34850  0.52850  0.99827  Biso   1.000  N
  N100     1.0000 0.20470  0.52840  0.02250  Biso   1.000  N
  C179     1.0000 0.37830  0.50310  0.08729  Biso   1.000  C
  H109     1.0000 0.35020  0.50940  0.10310  Biso   1.000  H
  C180     1.0000 0.31970  0.51880  0.06663  Biso   1.000  C
  H110     1.0000 0.25350  0.53290  0.06850  Biso   1.000  H
  C181     1.0000 0.36040  0.51140  0.04310  Biso   1.000  C
  C182     1.0000 0.45660  0.48900  0.04160  Biso   1.000  C
  H111     1.0000 0.48760  0.48750  0.02610  Biso   1.000  H
  C183     1.0000 0.50990  0.47340  0.06343  Biso   1.000  C
  H112     1.0000 0.57480  0.45340  0.06200  Biso   1.000  H
  C184     1.0000 0.30100  0.52360  0.02011  Biso   1.000  C
  Cu29     1.0000 0.81391  0.30969  0.36800  Biso   1.000  Cu
  S29      1.0000 0.95578  0.37845  0.35164  Biso   1.000  S
  N101     1.0000 0.77050  0.22180  0.33593  Biso   1.000  N
  N102     1.0000 0.72150  0.09850  0.24827  Biso   1.000  N
  N103     1.0000 0.72160  0.95470  0.27250  Biso   1.000  N
  C185     1.0000 0.74690  0.12830  0.33729  Biso   1.000  C
  H113     1.0000 0.74060  0.10020  0.35310  Biso   1.000  H
  C186     1.0000 0.73120  0.06970  0.31663  Biso   1.000  C
  H114     1.0000 0.71710  0.00350  0.31850  Biso   1.000  H
  C187     1.0000 0.73860  0.11040  0.29310  Biso   1.000  C
  C188     1.0000 0.76100  0.20660  0.29160  Biso   1.000  C
  H115     1.0000 0.76250  0.23760  0.27610  Biso   1.000  H
  C189     1.0000 0.77660  0.25990  0.31343  Biso   1.000  C
  H116     1.0000 0.79660  0.32480  0.31200  Biso   1.000  H
  C190     1.0000 0.72640  0.05100  0.27011  Biso   1.000  C
  Cu30     1.0000 0.31391  0.80969  0.86800  Biso   1.000  Cu
  S30      1.0000 0.45578  0.87845  0.85164  Biso   1.000  S
  N104     1.0000 0.27050  0.72180  0.83593  Biso   1.000  N
  N105     1.0000 0.22150  0.59850  0.74827  Biso   1.000  N
  N106     1.0000 0.22160  0.45470  0.77250  Biso   1.000  N
  C191     1.0000 0.24690  0.62830  0.83729  Biso   1.000  C
  H117     1.0000 0.24060  0.60020  0.85310  Biso   1.000  H
  C192     1.0000 0.23120  0.56970  0.81663  Biso   1.000  C
  H118     1.0000 0.21710  0.50350  0.81850  Biso   1.000  H
  C193     1.0000 0.23860  0.61040  0.79310  Biso   1.000  C
  C194     1.0000 0.26100  0.70660  0.79160  Biso   1.000  C
  H119     1.0000 0.26250  0.73760  0.77610  Biso   1.000  H
  C195     1.0000 0.27660  0.75990  0.81343  Biso   1.000  C
  H120     1.0000 0.29660  0.82480  0.81200  Biso   1.000  H
  C196     1.0000 0.22640  0.55100  0.77011  Biso   1.000  C
  Cu31     1.0000 0.68609  0.69031  0.86800  Biso   1.000  Cu
  S31      1.0000 0.54422  0.62155  0.85164  Biso   1.000  S
  N107     1.0000 0.72950  0.77820  0.83593  Biso   1.000  N
  N108     1.0000 0.77850  0.90150  0.74827  Biso   1.000  N
  N109     1.0000 0.77840  0.04530  0.77250  Biso   1.000  N
  C197     1.0000 0.75310  0.87170  0.83729  Biso   1.000  C
  H121     1.0000 0.75940  0.89980  0.85310  Biso   1.000  H
  C198     1.0000 0.76880  0.93030  0.81663  Biso   1.000  C
  H122     1.0000 0.78290  0.99650  0.81850  Biso   1.000  H
  C199     1.0000 0.76140  0.88960  0.79310  Biso   1.000  C
  C200     1.0000 0.73900  0.79340  0.79160  Biso   1.000  C
  H123     1.0000 0.73750  0.76240  0.77610  Biso   1.000  H
  C201     1.0000 0.72340  0.74010  0.81343  Biso   1.000  C
  H124     1.0000 0.70340  0.67520  0.81200  Biso   1.000  H
  C202     1.0000 0.77360  0.94900  0.77011  Biso   1.000  C
  Cu32     1.0000 0.18609  0.19031  0.36800  Biso   1.000  Cu
  S32      1.0000 0.04422  0.12155  0.35164  Biso   1.000  S
  N110     1.0000 0.22950  0.27820  0.33593  Biso   1.000  N
  N111     1.0000 0.27850  0.40150  0.24827  Biso   1.000  N
  N112     1.0000 0.27840  0.54530  0.27250  Biso   1.000  N
  C203     1.0000 0.25310  0.37170  0.33729  Biso   1.000  C
  H125     1.0000 0.25940  0.39980  0.35310  Biso   1.000  H
  C204     1.0000 0.26880  0.43030  0.31663  Biso   1.000  C
  H126     1.0000 0.28290  0.49650  0.31850  Biso   1.000  H
  C205     1.0000 0.26140  0.38960  0.29310  Biso   1.000  C
  C206     1.0000 0.23900  0.29340  0.29160  Biso   1.000  C
  H127     1.0000 0.23750  0.26240  0.27610  Biso   1.000  H
  C207     1.0000 0.22340  0.24010  0.31343  Biso   1.000  C
  H128     1.0000 0.20340  0.17520  0.31200  Biso   1.000  H
  C208     1.0000 0.27360  0.44900  0.27011  Biso   1.000  C
  Mo1      1.0000 0.00000  0.75000  0.12500  Biso   1.000  Mo
  Mo2      1.0000 0.50000  0.25000  0.62500  Biso   1.000  Mo
  Mo3      1.0000 0.50000  0.75000  0.37500  Biso   1.000  Mo
  Mo4      1.0000 0.00000  0.25000  0.87500  Biso   1.000  Mo
  Mo5      1.0000 0.50000  0.75000  0.87500  Biso   1.000  Mo
  Mo6      1.0000 0.00000  0.25000  0.37500  Biso   1.000  Mo
  Mo7      1.0000 0.00000  0.75000  0.62500  Biso   1.000  Mo
  Mo8      1.0000 0.50000  0.25000  0.12500  Biso   1.000  Mo
