data_image0
_cell_length_a       15.9333
_cell_length_b       15.9333
_cell_length_c       21.1312
_cell_angle_alpha    90
_cell_angle_beta     90
_cell_angle_gamma    90

_symmetry_space_group_name_H-M    "P 1"
_symmetry_int_tables_number       1

loop_
  _symmetry_equiv_pos_as_xyz
  'x, y, z'

loop_
  _atom_site_label
  _atom_site_occupancy
  _atom_site_fract_x
  _atom_site_fract_y
  _atom_site_fract_z
  _atom_site_thermal_displace_type
  _atom_site_B_iso_or_equiv
  _atom_site_type_symbol
  C1       1.0000 0.30190  0.43060  0.19000  Biso   1.000  C
  H1       1.0000 0.34030  0.43790  0.15740  Biso   1.000  H
  C2       1.0000 0.25340  0.46530  0.28880  Biso   1.000  C
  H2       1.0000 0.25750  0.49660  0.32590  Biso   1.000  H
  C3       1.0000 0.18810  0.41040  0.28260  Biso   1.000  C
  H3       1.0000 0.14920  0.40580  0.31520  Biso   1.000  H
  C4       1.0000 0.17820  0.36070  0.22830  Biso   1.000  C
  C5       1.0000 0.23890  0.37490  0.18160  Biso   1.000  C
  H4       1.0000 0.23580  0.34530  0.14380  Biso   1.000  H
  C6       1.0000 0.11220  0.29640  0.22230  Biso   1.000  C
  C7       1.0000 0.03730  0.30040  0.25800  Biso   1.000  C
  H5       1.0000 0.02870  0.34490  0.28570  Biso   1.000  H
  C8       1.0000 0.97840  0.24030  0.25210  Biso   1.000  C
  H6       1.0000 0.92920  0.24490  0.27560  Biso   1.000  H
  C9       1.0000 0.98880  0.17100  0.21170  Biso   1.000  C
  H7       1.0000 0.94760  0.12990  0.20820  Biso   1.000  H
  C10      1.0000 0.06330  0.16630  0.17720  Biso   1.000  C
  C11      1.0000 0.12280  0.22760  0.18280  Biso   1.000  C
  H8       1.0000 0.17200  0.22300  0.15940  Biso   1.000  H
  C12      1.0000 0.07120  0.09410  0.13370  Biso   1.000  C
  C13      1.0000 0.12310  0.99670  0.07020  Biso   1.000  C
  C14      1.0000 0.18470  0.94250  0.03950  Biso   1.000  C
  C15      1.0000 0.21710  0.96310  0.97930  Biso   1.000  C
  H9       1.0000 0.19810  0.01020  0.95750  Biso   1.000  H
  C16      1.0000 0.27820  0.91120  0.95340  Biso   1.000  C
  H10      1.0000 0.30100  0.92430  0.91410  Biso   1.000  H
  C17      1.0000 0.30570  0.84030  0.98520  Biso   1.000  C
  H11      1.0000 0.34550  0.80570  0.96640  Biso   1.000  H
  C18      1.0000 0.27460  0.82000  0.04490  Biso   1.000  C
  C19      1.0000 0.21380  0.87190  0.07090  Biso   1.000  C
  H12      1.0000 0.19210  0.85900  0.11060  Biso   1.000  H
  C20      1.0000 0.30590  0.74640  0.08100  Biso   1.000  C
  C21      1.0000 0.26230  0.71750  0.13480  Biso   1.000  C
  H13      1.0000 0.21000  0.73970  0.14510  Biso   1.000  H
  C22      1.0000 0.29860  0.65480  0.17270  Biso   1.000  C
  H14      1.0000 0.26920  0.63710  0.20830  Biso   1.000  H
  C23      1.0000 0.41010  0.64220  0.10670  Biso   1.000  C
  H15      1.0000 0.45990  0.61580  0.09550  Biso   1.000  H
  C24      1.0000 0.37720  0.70450  0.06680  Biso   1.000  C
  H16      1.0000 0.40520  0.71730  0.02950  Biso   1.000  H
  N1       1.0000 0.03960  0.99240  0.06840  Biso   1.000  N
  N2       1.0000 0.00790  0.05470  0.10890  Biso   1.000  N
  N3       1.0000 0.14480  0.05940  0.11100  Biso   1.000  N
  N4       1.0000 0.22590  0.08310  0.12950  Biso   1.000  N
  H17      1.0000 0.25570  0.03720  0.13790  Biso   1.000  H
  H18      1.0000 0.25030  0.11150  0.09820  Biso   1.000  H
  N5       1.0000 0.31200  0.47630  0.24370  Biso   1.000  N
  N6       1.0000 0.37160  0.61960  0.16090  Biso   1.000  N
  C25      1.0000 0.69810  0.56940  0.69000  Biso   1.000  C
  H19      1.0000 0.65970  0.56210  0.65740  Biso   1.000  H
  C26      1.0000 0.74660  0.53470  0.78880  Biso   1.000  C
  H20      1.0000 0.74250  0.50340  0.82590  Biso   1.000  H
  C27      1.0000 0.81190  0.58960  0.78260  Biso   1.000  C
  H21      1.0000 0.85080  0.59420  0.81520  Biso   1.000  H
  C28      1.0000 0.82180  0.63930  0.72830  Biso   1.000  C
  C29      1.0000 0.76110  0.62510  0.68160  Biso   1.000  C
  H22      1.0000 0.76420  0.65470  0.64380  Biso   1.000  H
  C30      1.0000 0.88780  0.70360  0.72230  Biso   1.000  C
  C31      1.0000 0.96270  0.69960  0.75800  Biso   1.000  C
  H23      1.0000 0.97130  0.65510  0.78570  Biso   1.000  H
  C32      1.0000 0.02160  0.75970  0.75210  Biso   1.000  C
  H24      1.0000 0.07080  0.75510  0.77560  Biso   1.000  H
  C33      1.0000 0.01120  0.82900  0.71170  Biso   1.000  C
  H25      1.0000 0.05240  0.87010  0.70820  Biso   1.000  H
  C34      1.0000 0.93670  0.83370  0.67720  Biso   1.000  C
  C35      1.0000 0.87720  0.77240  0.68280  Biso   1.000  C
  H26      1.0000 0.82800  0.77700  0.65940  Biso   1.000  H
  C36      1.0000 0.92880  0.90590  0.63370  Biso   1.000  C
  C37      1.0000 0.87690  0.00330  0.57020  Biso   1.000  C
  C38      1.0000 0.81530  0.05750  0.53950  Biso   1.000  C
  C39      1.0000 0.78290  0.03690  0.47930  Biso   1.000  C
  H27      1.0000 0.80190  0.98980  0.45750  Biso   1.000  H
  C40      1.0000 0.72180  0.08880  0.45340  Biso   1.000  C
  H28      1.0000 0.69900  0.07570  0.41410  Biso   1.000  H
  C41      1.0000 0.69430  0.15970  0.48520  Biso   1.000  C
  H29      1.0000 0.65450  0.19430  0.46640  Biso   1.000  H
  C42      1.0000 0.72540  0.18000  0.54490  Biso   1.000  C
  C43      1.0000 0.78620  0.12810  0.57090  Biso   1.000  C
  H30      1.0000 0.80790  0.14100  0.61060  Biso   1.000  H
  C44      1.0000 0.69410  0.25360  0.58100  Biso   1.000  C
  C45      1.0000 0.73770  0.28250  0.63480  Biso   1.000  C
  H31      1.0000 0.79000  0.26030  0.64510  Biso   1.000  H
  C46      1.0000 0.70140  0.34520  0.67270  Biso   1.000  C
  H32      1.0000 0.73080  0.36290  0.70830  Biso   1.000  H
  C47      1.0000 0.58990  0.35780  0.60670  Biso   1.000  C
  H33      1.0000 0.54010  0.38420  0.59550  Biso   1.000  H
  C48      1.0000 0.62280  0.29550  0.56680  Biso   1.000  C
  H34      1.0000 0.59480  0.28270  0.52950  Biso   1.000  H
  N7       1.0000 0.96040  0.00760  0.56840  Biso   1.000  N
  N8       1.0000 0.99210  0.94530  0.60890  Biso   1.000  N
  N9       1.0000 0.85520  0.94060  0.61100  Biso   1.000  N
  N10      1.0000 0.77410  0.91690  0.62950  Biso   1.000  N
  H35      1.0000 0.74430  0.96280  0.63790  Biso   1.000  H
  H36      1.0000 0.74970  0.88850  0.59820  Biso   1.000  H
  N11      1.0000 0.68800  0.52370  0.74370  Biso   1.000  N
  N12      1.0000 0.62840  0.38040  0.66090  Biso   1.000  N
  C49      1.0000 0.06940  0.80190  0.94000  Biso   1.000  C
  H37      1.0000 0.06210  0.84030  0.90740  Biso   1.000  H
  C50      1.0000 0.03470  0.75340  0.03880  Biso   1.000  C
  H38      1.0000 0.00340  0.75750  0.07590  Biso   1.000  H
  C51      1.0000 0.08960  0.68810  0.03260  Biso   1.000  C
  H39      1.0000 0.09420  0.64920  0.06520  Biso   1.000  H
  C52      1.0000 0.13930  0.67820  0.97830  Biso   1.000  C
  C53      1.0000 0.12510  0.73890  0.93160  Biso   1.000  C
  H40      1.0000 0.15470  0.73580  0.89380  Biso   1.000  H
  C54      1.0000 0.20360  0.61220  0.97230  Biso   1.000  C
  C55      1.0000 0.19960  0.53730  0.00800  Biso   1.000  C
  H41      1.0000 0.15510  0.52870  0.03570  Biso   1.000  H
  C56      1.0000 0.25970  0.47840  0.00210  Biso   1.000  C
  H42      1.0000 0.25510  0.42920  0.02560  Biso   1.000  H
  C57      1.0000 0.32900  0.48880  0.96170  Biso   1.000  C
  H43      1.0000 0.37010  0.44760  0.95820  Biso   1.000  H
  C58      1.0000 0.33370  0.56330  0.92720  Biso   1.000  C
  C59      1.0000 0.27240  0.62280  0.93280  Biso   1.000  C
  H44      1.0000 0.27700  0.67200  0.90940  Biso   1.000  H
  C60      1.0000 0.40590  0.57120  0.88370  Biso   1.000  C
  C61      1.0000 0.50330  0.62310  0.82020  Biso   1.000  C
  C62      1.0000 0.55750  0.68470  0.78950  Biso   1.000  C
  C63      1.0000 0.53690  0.71710  0.72930  Biso   1.000  C
  H45      1.0000 0.48980  0.69810  0.70750  Biso   1.000  H
  C64      1.0000 0.58880  0.77820  0.70340  Biso   1.000  C
  H46      1.0000 0.57570  0.80100  0.66410  Biso   1.000  H
  C65      1.0000 0.65970  0.80570  0.73520  Biso   1.000  C
  H47      1.0000 0.69430  0.84550  0.71640  Biso   1.000  H
  C66      1.0000 0.68000  0.77460  0.79490  Biso   1.000  C
  C67      1.0000 0.62810  0.71380  0.82090  Biso   1.000  C
  H48      1.0000 0.64100  0.69210  0.86060  Biso   1.000  H
  C68      1.0000 0.75360  0.80590  0.83100  Biso   1.000  C
  C69      1.0000 0.78250  0.76230  0.88480  Biso   1.000  C
  H49      1.0000 0.76030  0.71000  0.89510  Biso   1.000  H
  C70      1.0000 0.84520  0.79860  0.92270  Biso   1.000  C
  H50      1.0000 0.86290  0.76920  0.95830  Biso   1.000  H
  C71      1.0000 0.85780  0.91010  0.85670  Biso   1.000  C
  H51      1.0000 0.88420  0.95990  0.84550  Biso   1.000  H
  C72      1.0000 0.79550  0.87720  0.81680  Biso   1.000  C
  H52      1.0000 0.78270  0.90520  0.77950  Biso   1.000  H
  N13      1.0000 0.50760  0.53960  0.81840  Biso   1.000  N
  N14      1.0000 0.44530  0.50790  0.85890  Biso   1.000  N
  N15      1.0000 0.44060  0.64480  0.86100  Biso   1.000  N
  N16      1.0000 0.41690  0.72590  0.87950  Biso   1.000  N
  H53      1.0000 0.46280  0.75570  0.88790  Biso   1.000  H
  H54      1.0000 0.38850  0.75030  0.84820  Biso   1.000  H
  N17      1.0000 0.02370  0.81200  0.99370  Biso   1.000  N
  N18      1.0000 0.88040  0.87160  0.91090  Biso   1.000  N
  C73      1.0000 0.93060  0.19810  0.44000  Biso   1.000  C
  H55      1.0000 0.93790  0.15970  0.40740  Biso   1.000  H
  C74      1.0000 0.96530  0.24660  0.53880  Biso   1.000  C
  H56      1.0000 0.99660  0.24250  0.57590  Biso   1.000  H
  C75      1.0000 0.91040  0.31190  0.53260  Biso   1.000  C
  H57      1.0000 0.90580  0.35080  0.56520  Biso   1.000  H
  C76      1.0000 0.86070  0.32180  0.47830  Biso   1.000  C
  C77      1.0000 0.87490  0.26110  0.43160  Biso   1.000  C
  H58      1.0000 0.84530  0.26420  0.39380  Biso   1.000  H
  C78      1.0000 0.79640  0.38780  0.47230  Biso   1.000  C
  C79      1.0000 0.80040  0.46270  0.50800  Biso   1.000  C
  H59      1.0000 0.84490  0.47130  0.53570  Biso   1.000  H
  C80      1.0000 0.74030  0.52160  0.50210  Biso   1.000  C
  H60      1.0000 0.74490  0.57080  0.52560  Biso   1.000  H
  C81      1.0000 0.67100  0.51120  0.46170  Biso   1.000  C
  H61      1.0000 0.62990  0.55240  0.45820  Biso   1.000  H
  C82      1.0000 0.66630  0.43670  0.42720  Biso   1.000  C
  C83      1.0000 0.72760  0.37720  0.43280  Biso   1.000  C
  H62      1.0000 0.72300  0.32800  0.40940  Biso   1.000  H
  C84      1.0000 0.59410  0.42880  0.38370  Biso   1.000  C
  C85      1.0000 0.49670  0.37690  0.32020  Biso   1.000  C
  C86      1.0000 0.44250  0.31530  0.28950  Biso   1.000  C
  C87      1.0000 0.46310  0.28290  0.22930  Biso   1.000  C
  H63      1.0000 0.51020  0.30190  0.20750  Biso   1.000  H
  C88      1.0000 0.41120  0.22180  0.20340  Biso   1.000  C
  H64      1.0000 0.42430  0.19900  0.16410  Biso   1.000  H
  C89      1.0000 0.34030  0.19430  0.23520  Biso   1.000  C
  H65      1.0000 0.30570  0.15450  0.21640  Biso   1.000  H
  C90      1.0000 0.32000  0.22540  0.29490  Biso   1.000  C
  C91      1.0000 0.37190  0.28620  0.32090  Biso   1.000  C
  H66      1.0000 0.35900  0.30790  0.36060  Biso   1.000  H
  C92      1.0000 0.24640  0.19410  0.33100  Biso   1.000  C
  C93      1.0000 0.21750  0.23770  0.38480  Biso   1.000  C
  H67      1.0000 0.23970  0.29000  0.39510  Biso   1.000  H
  C94      1.0000 0.15480  0.20140  0.42270  Biso   1.000  C
  H68      1.0000 0.13710  0.23080  0.45830  Biso   1.000  H
  C95      1.0000 0.14220  0.08990  0.35670  Biso   1.000  C
  H69      1.0000 0.11580  0.04010  0.34550  Biso   1.000  H
  C96      1.0000 0.20450  0.12280  0.31680  Biso   1.000  C
  H70      1.0000 0.21730  0.09480  0.27950  Biso   1.000  H
  N19      1.0000 0.49240  0.46040  0.31840  Biso   1.000  N
  N20      1.0000 0.55470  0.49210  0.35890  Biso   1.000  N
  N21      1.0000 0.55940  0.35520  0.36100  Biso   1.000  N
  N22      1.0000 0.58310  0.27410  0.37950  Biso   1.000  N
  H71      1.0000 0.53720  0.24430  0.38790  Biso   1.000  H
  H72      1.0000 0.61150  0.24970  0.34820  Biso   1.000  H
  N23      1.0000 0.97630  0.18800  0.49370  Biso   1.000  N
  N24      1.0000 0.11960  0.12840  0.41090  Biso   1.000  N
  C97      1.0000 0.19810  0.93060  0.56000  Biso   1.000  C
  H73      1.0000 0.15970  0.93790  0.59260  Biso   1.000  H
  C98      1.0000 0.24660  0.96530  0.46120  Biso   1.000  C
  H74      1.0000 0.24250  0.99660  0.42410  Biso   1.000  H
  C99      1.0000 0.31190  0.91040  0.46740  Biso   1.000  C
  H75      1.0000 0.35080  0.90580  0.43480  Biso   1.000  H
  C100     1.0000 0.32180  0.86070  0.52170  Biso   1.000  C
  C101     1.0000 0.26110  0.87490  0.56840  Biso   1.000  C
  H76      1.0000 0.26420  0.84530  0.60620  Biso   1.000  H
  C102     1.0000 0.38780  0.79640  0.52770  Biso   1.000  C
  C103     1.0000 0.46270  0.80040  0.49200  Biso   1.000  C
  H77      1.0000 0.47130  0.84490  0.46430  Biso   1.000  H
  C104     1.0000 0.52160  0.74030  0.49790  Biso   1.000  C
  H78      1.0000 0.57080  0.74490  0.47440  Biso   1.000  H
  C105     1.0000 0.51120  0.67100  0.53830  Biso   1.000  C
  H79      1.0000 0.55240  0.62990  0.54180  Biso   1.000  H
  C106     1.0000 0.43670  0.66630  0.57280  Biso   1.000  C
  C107     1.0000 0.37720  0.72760  0.56720  Biso   1.000  C
  H80      1.0000 0.32800  0.72300  0.59060  Biso   1.000  H
  C108     1.0000 0.42880  0.59410  0.61630  Biso   1.000  C
  C109     1.0000 0.37690  0.49670  0.67980  Biso   1.000  C
  C110     1.0000 0.31530  0.44250  0.71050  Biso   1.000  C
  C111     1.0000 0.28290  0.46310  0.77070  Biso   1.000  C
  H81      1.0000 0.30190  0.51020  0.79250  Biso   1.000  H
  C112     1.0000 0.22180  0.41120  0.79660  Biso   1.000  C
  H82      1.0000 0.19900  0.42430  0.83590  Biso   1.000  H
  C113     1.0000 0.19430  0.34030  0.76480  Biso   1.000  C
  H83      1.0000 0.15450  0.30570  0.78360  Biso   1.000  H
  C114     1.0000 0.22540  0.32000  0.70510  Biso   1.000  C
  C115     1.0000 0.28620  0.37190  0.67910  Biso   1.000  C
  H84      1.0000 0.30790  0.35900  0.63940  Biso   1.000  H
  C116     1.0000 0.19410  0.24640  0.66900  Biso   1.000  C
  C117     1.0000 0.23770  0.21750  0.61520  Biso   1.000  C
  H85      1.0000 0.29000  0.23970  0.60490  Biso   1.000  H
  C118     1.0000 0.20140  0.15480  0.57730  Biso   1.000  C
  H86      1.0000 0.23080  0.13710  0.54170  Biso   1.000  H
  C119     1.0000 0.08990  0.14220  0.64330  Biso   1.000  C
  H87      1.0000 0.04010  0.11580  0.65450  Biso   1.000  H
  C120     1.0000 0.12280  0.20450  0.68320  Biso   1.000  C
  H88      1.0000 0.09480  0.21730  0.72050  Biso   1.000  H
  N25      1.0000 0.46040  0.49240  0.68160  Biso   1.000  N
  N26      1.0000 0.49210  0.55470  0.64110  Biso   1.000  N
  N27      1.0000 0.35520  0.55940  0.63900  Biso   1.000  N
  N28      1.0000 0.27410  0.58310  0.62050  Biso   1.000  N
  H89      1.0000 0.24430  0.53720  0.61210  Biso   1.000  H
  H90      1.0000 0.24970  0.61150  0.65180  Biso   1.000  H
  N29      1.0000 0.18800  0.97630  0.50630  Biso   1.000  N
  N30      1.0000 0.12840  0.11960  0.58910  Biso   1.000  N
  C121     1.0000 0.80190  0.06940  0.06000  Biso   1.000  C
  H91      1.0000 0.84030  0.06210  0.09260  Biso   1.000  H
  C122     1.0000 0.75340  0.03470  0.96120  Biso   1.000  C
  H92      1.0000 0.75750  0.00340  0.92410  Biso   1.000  H
  C123     1.0000 0.68810  0.08960  0.96740  Biso   1.000  C
  H93      1.0000 0.64920  0.09420  0.93480  Biso   1.000  H
  C124     1.0000 0.67820  0.13930  0.02170  Biso   1.000  C
  C125     1.0000 0.73890  0.12510  0.06840  Biso   1.000  C
  H94      1.0000 0.73580  0.15470  0.10620  Biso   1.000  H
  C126     1.0000 0.61220  0.20360  0.02770  Biso   1.000  C
  C127     1.0000 0.53730  0.19960  0.99200  Biso   1.000  C
  H95      1.0000 0.52870  0.15510  0.96430  Biso   1.000  H
  C128     1.0000 0.47840  0.25970  0.99790  Biso   1.000  C
  H96      1.0000 0.42920  0.25510  0.97440  Biso   1.000  H
  C129     1.0000 0.48880  0.32900  0.03830  Biso   1.000  C
  H97      1.0000 0.44760  0.37010  0.04180  Biso   1.000  H
  C130     1.0000 0.56330  0.33370  0.07280  Biso   1.000  C
  C131     1.0000 0.62280  0.27240  0.06720  Biso   1.000  C
  H98      1.0000 0.67200  0.27700  0.09060  Biso   1.000  H
  C132     1.0000 0.57120  0.40590  0.11630  Biso   1.000  C
  C133     1.0000 0.62310  0.50330  0.17980  Biso   1.000  C
  C134     1.0000 0.68470  0.55750  0.21050  Biso   1.000  C
  C135     1.0000 0.71710  0.53690  0.27070  Biso   1.000  C
  H99      1.0000 0.69810  0.48980  0.29250  Biso   1.000  H
  C136     1.0000 0.77820  0.58880  0.29660  Biso   1.000  C
  H100     1.0000 0.80100  0.57570  0.33590  Biso   1.000  H
  C137     1.0000 0.80570  0.65970  0.26480  Biso   1.000  C
  H101     1.0000 0.84550  0.69430  0.28360  Biso   1.000  H
  C138     1.0000 0.77460  0.68000  0.20510  Biso   1.000  C
  C139     1.0000 0.71380  0.62810  0.17910  Biso   1.000  C
  H102     1.0000 0.69210  0.64100  0.13940  Biso   1.000  H
  C140     1.0000 0.80590  0.75360  0.16900  Biso   1.000  C
  C141     1.0000 0.76230  0.78250  0.11520  Biso   1.000  C
  H103     1.0000 0.71000  0.76030  0.10490  Biso   1.000  H
  C142     1.0000 0.79860  0.84520  0.07730  Biso   1.000  C
  H104     1.0000 0.76920  0.86290  0.04170  Biso   1.000  H
  C143     1.0000 0.91010  0.85780  0.14330  Biso   1.000  C
  H105     1.0000 0.95990  0.88420  0.15450  Biso   1.000  H
  C144     1.0000 0.87720  0.79550  0.18320  Biso   1.000  C
  H106     1.0000 0.90520  0.78270  0.22050  Biso   1.000  H
  N31      1.0000 0.53960  0.50760  0.18160  Biso   1.000  N
  N32      1.0000 0.50790  0.44530  0.14110  Biso   1.000  N
  N33      1.0000 0.64480  0.44060  0.13900  Biso   1.000  N
  N34      1.0000 0.72590  0.41690  0.12050  Biso   1.000  N
  H107     1.0000 0.75570  0.46280  0.11210  Biso   1.000  H
  H108     1.0000 0.75030  0.38850  0.15180  Biso   1.000  H
  N35      1.0000 0.81200  0.02370  0.00630  Biso   1.000  N
  N36      1.0000 0.87160  0.88040  0.08910  Biso   1.000  N
  C145     1.0000 0.43060  0.30190  0.81000  Biso   1.000  C
  H109     1.0000 0.43790  0.34030  0.84260  Biso   1.000  H
  C146     1.0000 0.46530  0.25340  0.71120  Biso   1.000  C
  H110     1.0000 0.49660  0.25750  0.67410  Biso   1.000  H
  C147     1.0000 0.41040  0.18810  0.71740  Biso   1.000  C
  H111     1.0000 0.40580  0.14920  0.68480  Biso   1.000  H
  C148     1.0000 0.36070  0.17820  0.77170  Biso   1.000  C
  C149     1.0000 0.37490  0.23890  0.81840  Biso   1.000  C
  H112     1.0000 0.34530  0.23580  0.85620  Biso   1.000  H
  C150     1.0000 0.29640  0.11220  0.77770  Biso   1.000  C
  C151     1.0000 0.30040  0.03730  0.74200  Biso   1.000  C
  H113     1.0000 0.34490  0.02870  0.71430  Biso   1.000  H
  C152     1.0000 0.24030  0.97840  0.74790  Biso   1.000  C
  H114     1.0000 0.24490  0.92920  0.72440  Biso   1.000  H
  C153     1.0000 0.17100  0.98880  0.78830  Biso   1.000  C
  H115     1.0000 0.12990  0.94760  0.79180  Biso   1.000  H
  C154     1.0000 0.16630  0.06330  0.82280  Biso   1.000  C
  C155     1.0000 0.22760  0.12280  0.81720  Biso   1.000  C
  H116     1.0000 0.22300  0.17200  0.84060  Biso   1.000  H
  C156     1.0000 0.09410  0.07120  0.86630  Biso   1.000  C
  C157     1.0000 0.99670  0.12310  0.92980  Biso   1.000  C
  C158     1.0000 0.94250  0.18470  0.96050  Biso   1.000  C
  C159     1.0000 0.96310  0.21710  0.02070  Biso   1.000  C
  H117     1.0000 0.01020  0.19810  0.04250  Biso   1.000  H
  C160     1.0000 0.91120  0.27820  0.04660  Biso   1.000  C
  H118     1.0000 0.92430  0.30100  0.08590  Biso   1.000  H
  C161     1.0000 0.84030  0.30570  0.01480  Biso   1.000  C
  H119     1.0000 0.80570  0.34550  0.03360  Biso   1.000  H
  C162     1.0000 0.82000  0.27460  0.95510  Biso   1.000  C
  C163     1.0000 0.87190  0.21380  0.92910  Biso   1.000  C
  H120     1.0000 0.85900  0.19210  0.88940  Biso   1.000  H
  C164     1.0000 0.74640  0.30590  0.91900  Biso   1.000  C
  C165     1.0000 0.71750  0.26230  0.86520  Biso   1.000  C
  H121     1.0000 0.73970  0.21000  0.85490  Biso   1.000  H
  C166     1.0000 0.65480  0.29860  0.82730  Biso   1.000  C
  H122     1.0000 0.63710  0.26920  0.79170  Biso   1.000  H
  C167     1.0000 0.64220  0.41010  0.89330  Biso   1.000  C
  H123     1.0000 0.61580  0.45990  0.90450  Biso   1.000  H
  C168     1.0000 0.70450  0.37720  0.93320  Biso   1.000  C
  H124     1.0000 0.71730  0.40520  0.97050  Biso   1.000  H
  N37      1.0000 0.99240  0.03960  0.93160  Biso   1.000  N
  N38      1.0000 0.05470  0.00790  0.89110  Biso   1.000  N
  N39      1.0000 0.05940  0.14480  0.88900  Biso   1.000  N
  N40      1.0000 0.08310  0.22590  0.87050  Biso   1.000  N
  H125     1.0000 0.03720  0.25570  0.86210  Biso   1.000  H
  H126     1.0000 0.11150  0.25030  0.90180  Biso   1.000  H
  N41      1.0000 0.47630  0.31200  0.75630  Biso   1.000  N
  N42      1.0000 0.61960  0.37160  0.83910  Biso   1.000  N
  C169     1.0000 0.56940  0.69810  0.31000  Biso   1.000  C
  H127     1.0000 0.56210  0.65970  0.34260  Biso   1.000  H
  C170     1.0000 0.53470  0.74660  0.21120  Biso   1.000  C
  H128     1.0000 0.50340  0.74250  0.17410  Biso   1.000  H
  C171     1.0000 0.58960  0.81190  0.21740  Biso   1.000  C
  H129     1.0000 0.59420  0.85080  0.18480  Biso   1.000  H
  C172     1.0000 0.63930  0.82180  0.27170  Biso   1.000  C
  C173     1.0000 0.62510  0.76110  0.31840  Biso   1.000  C
  H130     1.0000 0.65470  0.76420  0.35620  Biso   1.000  H
  C174     1.0000 0.70360  0.88780  0.27770  Biso   1.000  C
  C175     1.0000 0.69960  0.96270  0.24200  Biso   1.000  C
  H131     1.0000 0.65510  0.97130  0.21430  Biso   1.000  H
  C176     1.0000 0.75970  0.02160  0.24790  Biso   1.000  C
  H132     1.0000 0.75510  0.07080  0.22440  Biso   1.000  H
  C177     1.0000 0.82900  0.01120  0.28830  Biso   1.000  C
  H133     1.0000 0.87010  0.05240  0.29180  Biso   1.000  H
  C178     1.0000 0.83370  0.93670  0.32280  Biso   1.000  C
  C179     1.0000 0.77240  0.87720  0.31720  Biso   1.000  C
  H134     1.0000 0.77700  0.82800  0.34060  Biso   1.000  H
  C180     1.0000 0.90590  0.92880  0.36630  Biso   1.000  C
  C181     1.0000 0.00330  0.87690  0.42980  Biso   1.000  C
  C182     1.0000 0.05750  0.81530  0.46050  Biso   1.000  C
  C183     1.0000 0.03690  0.78290  0.52070  Biso   1.000  C
  H135     1.0000 0.98980  0.80190  0.54250  Biso   1.000  H
  C184     1.0000 0.08880  0.72180  0.54660  Biso   1.000  C
  H136     1.0000 0.07570  0.69900  0.58590  Biso   1.000  H
  C185     1.0000 0.15970  0.69430  0.51480  Biso   1.000  C
  H137     1.0000 0.19430  0.65450  0.53360  Biso   1.000  H
  C186     1.0000 0.18000  0.72540  0.45510  Biso   1.000  C
  C187     1.0000 0.12810  0.78620  0.42910  Biso   1.000  C
  H138     1.0000 0.14100  0.80790  0.38940  Biso   1.000  H
  C188     1.0000 0.25360  0.69410  0.41900  Biso   1.000  C
  C189     1.0000 0.28250  0.73770  0.36520  Biso   1.000  C
  H139     1.0000 0.26030  0.79000  0.35490  Biso   1.000  H
  C190     1.0000 0.34520  0.70140  0.32730  Biso   1.000  C
  H140     1.0000 0.36290  0.73080  0.29170  Biso   1.000  H
  C191     1.0000 0.35780  0.58990  0.39330  Biso   1.000  C
  H141     1.0000 0.38420  0.54010  0.40450  Biso   1.000  H
  C192     1.0000 0.29550  0.62280  0.43320  Biso   1.000  C
  H142     1.0000 0.28270  0.59480  0.47050  Biso   1.000  H
  N43      1.0000 0.00760  0.96040  0.43160  Biso   1.000  N
  N44      1.0000 0.94530  0.99210  0.39110  Biso   1.000  N
  N45      1.0000 0.94060  0.85520  0.38900  Biso   1.000  N
  N46      1.0000 0.91690  0.77410  0.37050  Biso   1.000  N
  H143     1.0000 0.96280  0.74430  0.36210  Biso   1.000  H
  H144     1.0000 0.88850  0.74970  0.40180  Biso   1.000  H
  N47      1.0000 0.52370  0.68800  0.25630  Biso   1.000  N
  N48      1.0000 0.38040  0.62840  0.33910  Biso   1.000  N
  Cd1      1.0000 0.93977  0.93977  0.00000  Biso   1.000  Cd
  Cd2      1.0000 0.06023  0.06023  0.50000  Biso   1.000  Cd
  Cd3      1.0000 0.56023  0.43977  0.75000  Biso   1.000  Cd
  Cd4      1.0000 0.43977  0.56023  0.25000  Biso   1.000  Cd
