data_image0
_cell_length_a       30.978
_cell_length_b       12.62
_cell_length_c       13.339
_cell_angle_alpha    90
_cell_angle_beta     90
_cell_angle_gamma    90

_symmetry_space_group_name_H-M    "P 1"
_symmetry_int_tables_number       1

loop_
  _symmetry_equiv_pos_as_xyz
  'x, y, z'

loop_
  _atom_site_label
  _atom_site_occupancy
  _atom_site_fract_x
  _atom_site_fract_y
  _atom_site_fract_z
  _atom_site_thermal_displace_type
  _atom_site_B_iso_or_equiv
  _atom_site_type_symbol
  Zn1      1.0000 0.20299  0.40042  0.10042  Biso   1.000  Zn
  O1       1.0000 0.14650  0.46660  0.06630  Biso   1.000  O
  N1       1.0000 0.21850  0.38360  0.24460  Biso   1.000  N
  N2       1.0000 0.21620  0.26600  0.03230  Biso   1.000  N
  N3       1.0000 0.24980  0.50590  0.06140  Biso   1.000  N
  C1       1.0000 0.11880  0.40460  0.11010  Biso   1.000  C
  C2       1.0000 0.19590  0.35490  0.32100  Biso   1.000  C
  C3       1.0000 0.25620  0.40950  0.28660  Biso   1.000  C
  N4       1.0000 0.25260  0.23840  0.97510  Biso   1.000  N
  C4       1.0000 0.19440  0.17260  0.03850  Biso   1.000  C
  O2       1.0000 0.12680  0.32500  0.15230  Biso   1.000  O
  C5       1.0000 0.07310  0.44480  0.10210  Biso   1.000  C
  N5       1.0000 0.21620  0.35070  0.40780  Biso   1.000  N
  H1       1.0000 0.16610  0.33770  0.31510  Biso   1.000  H
  N6       1.0000 0.25520  0.39040  0.38360  Biso   1.000  N
  H2       1.0000 0.28020  0.43780  0.25150  Biso   1.000  H
  C6       1.0000 0.24930  0.14290  0.94970  Biso   1.000  C
  Zn2      1.0000 0.29566  0.34578  0.92689  Biso   1.000  Zn
  N7       1.0000 0.21400  0.09610  0.98550  Biso   1.000  N
  H3       1.0000 0.16850  0.16280  0.07570  Biso   1.000  H
  C7       1.0000 0.04180  0.40240  0.16310  Biso   1.000  C
  C8       1.0000 0.06100  0.52300  0.04140  Biso   1.000  C
  Zn3      1.0000 0.19533  0.30376  0.54339  Biso   1.000  Zn
  Zn4      1.0000 0.30157  0.43654  0.48712  Biso   1.000  Zn
  H4       1.0000 0.26990  0.10750  0.90890  Biso   1.000  H
  C9       1.0000 0.99960  0.43450  0.16050  Biso   1.000  C
  H5       1.0000 0.04980  0.34840  0.20910  Biso   1.000  H
  H6       1.0000 0.08310  0.55380  0.00150  Biso   1.000  H
  C10      1.0000 0.01880  0.56610  0.02940  Biso   1.000  C
  N8       1.0000 0.21180  0.15020  0.54410  Biso   1.000  N
  O3       1.0000 0.13900  0.36350  0.57910  Biso   1.000  O
  N9       1.0000 0.23880  0.35420  0.64300  Biso   1.000  N
  O4       1.0000 0.14080  0.91800  0.90880  Biso   1.000  O
  O5       1.0000 0.13610  0.98000  0.06440  Biso   1.000  O
  N10      1.0000 0.22100  0.89280  0.12230  Biso   1.000  N
  H7       1.0000 0.97870  0.40270  0.20310  Biso   1.000  H
  C11      1.0000 0.98750  0.51670  0.09240  Biso   1.000  C
  C12      1.0000 0.00700  0.64610  0.96650  Biso   1.000  C
  C13      1.0000 0.19450  0.06920  0.49390  Biso   1.000  C
  C14      1.0000 0.24650  0.10440  0.58610  Biso   1.000  C
  C15      1.0000 0.11860  0.95860  0.98600  Biso   1.000  C
  C16      1.0000 0.20070  0.89070  0.20690  Biso   1.000  C
  C17      1.0000 0.94390  0.55620  0.09120  Biso   1.000  C
  C18      1.0000 0.96560  0.68190  0.96240  Biso   1.000  C
  H8       1.0000 0.02810  0.67760  0.92450  Biso   1.000  H
  N11      1.0000 0.21670  0.98650  0.49680  Biso   1.000  N
  H9       1.0000 0.16770  0.07390  0.45930  Biso   1.000  H
  H10      1.0000 0.26610  0.14040  0.62910  Biso   1.000  H
  C19      1.0000 0.07160  0.97850  0.96940  Biso   1.000  C
  C20      1.0000 0.26130  0.84040  0.24130  Biso   1.000  C
  N12      1.0000 0.22440  0.86580  0.28330  Biso   1.000  N
  H11      1.0000 0.17080  0.90620  0.21260  Biso   1.000  H
  C21      1.0000 0.93410  0.63280  0.02460  Biso   1.000  C
  H12      1.0000 0.92270  0.52910  0.13590  Biso   1.000  H
  H13      1.0000 0.95790  0.73850  0.91900  Biso   1.000  H
  C22      1.0000 0.05130  0.03970  0.03780  Biso   1.000  C
  C23      1.0000 0.04860  0.93160  0.88810  Biso   1.000  C
  H14      1.0000 0.28560  0.81490  0.27760  Biso   1.000  H
  C24      1.0000 0.88850  0.67940  0.01660  Biso   1.000  C
  O6       1.0000 0.14190  0.87200  0.39650  Biso   1.000  O
  H15      1.0000 0.06620  0.06240  0.09630  Biso   1.000  H
  C25      1.0000 0.00680  0.07070  0.02220  Biso   1.000  C
  H16      1.0000 0.06300  0.88270  0.84540  Biso   1.000  H
  C26      1.0000 0.00630  0.95570  0.87050  Biso   1.000  C
  O7       1.0000 0.87890  0.74870  0.95740  Biso   1.000  O
  C27      1.0000 0.98550  0.02080  0.94550  Biso   1.000  C
  C28      1.0000 0.98550  0.13640  0.08660  Biso   1.000  C
  H17      1.0000 0.99150  0.93130  0.81260  Biso   1.000  H
  C29      1.0000 0.94120  0.05460  0.92870  Biso   1.000  C
  H18      1.0000 0.00050  0.16230  0.14360  Biso   1.000  H
  C30      1.0000 0.94290  0.16740  0.07310  Biso   1.000  C
  C31      1.0000 0.92140  0.12330  0.98990  Biso   1.000  C
  H19      1.0000 0.92580  0.02710  0.87280  Biso   1.000  H
  H20      1.0000 0.92910  0.21570  0.11730  Biso   1.000  H
  C32      1.0000 0.87290  0.15300  0.97400  Biso   1.000  C
  O8       1.0000 0.85250  0.19660  0.05300  Biso   1.000  O
  Zn5      1.0000 0.79701  0.59958  0.60042  Biso   1.000  Zn
  O9       1.0000 0.85350  0.53340  0.56630  Biso   1.000  O
  N13      1.0000 0.78150  0.61640  0.74460  Biso   1.000  N
  N14      1.0000 0.78380  0.73400  0.53230  Biso   1.000  N
  N15      1.0000 0.75020  0.49410  0.56140  Biso   1.000  N
  C33      1.0000 0.88120  0.59540  0.61010  Biso   1.000  C
  C34      1.0000 0.80410  0.64510  0.82100  Biso   1.000  C
  C35      1.0000 0.74380  0.59050  0.78660  Biso   1.000  C
  N16      1.0000 0.74740  0.76160  0.47510  Biso   1.000  N
  C36      1.0000 0.80560  0.82740  0.53850  Biso   1.000  C
  O10      1.0000 0.87320  0.67500  0.65230  Biso   1.000  O
  C37      1.0000 0.92690  0.55520  0.60210  Biso   1.000  C
  N17      1.0000 0.78380  0.64930  0.90780  Biso   1.000  N
  H21      1.0000 0.83390  0.66230  0.81510  Biso   1.000  H
  N18      1.0000 0.74480  0.60960  0.88360  Biso   1.000  N
  H22      1.0000 0.71980  0.56220  0.75150  Biso   1.000  H
  C38      1.0000 0.75070  0.85710  0.44970  Biso   1.000  C
  Zn6      1.0000 0.70434  0.65422  0.42689  Biso   1.000  Zn
  N19      1.0000 0.78600  0.90390  0.48550  Biso   1.000  N
  H23      1.0000 0.83150  0.83720  0.57570  Biso   1.000  H
  C39      1.0000 0.95820  0.59760  0.66310  Biso   1.000  C
  C40      1.0000 0.93900  0.47700  0.54140  Biso   1.000  C
  Zn7      1.0000 0.80467  0.69624  0.04339  Biso   1.000  Zn
  Zn8      1.0000 0.69843  0.56346  0.98712  Biso   1.000  Zn
  H24      1.0000 0.73010  0.89250  0.40890  Biso   1.000  H
  C41      1.0000 0.00040  0.56550  0.66050  Biso   1.000  C
  H25      1.0000 0.95020  0.65160  0.70910  Biso   1.000  H
  H26      1.0000 0.91690  0.44620  0.50150  Biso   1.000  H
  C42      1.0000 0.98120  0.43390  0.52940  Biso   1.000  C
  N20      1.0000 0.78820  0.84980  0.04410  Biso   1.000  N
  O11      1.0000 0.86100  0.63650  0.07910  Biso   1.000  O
  N21      1.0000 0.76120  0.64580  0.14300  Biso   1.000  N
  O12      1.0000 0.85920  0.08200  0.40880  Biso   1.000  O
  O13      1.0000 0.86390  0.02000  0.56440  Biso   1.000  O
  N22      1.0000 0.77900  0.10720  0.62230  Biso   1.000  N
  H27      1.0000 0.02130  0.59730  0.70310  Biso   1.000  H
  C43      1.0000 0.01250  0.48330  0.59240  Biso   1.000  C
  C44      1.0000 0.99300  0.35390  0.46650  Biso   1.000  C
  C45      1.0000 0.80550  0.93080  0.99390  Biso   1.000  C
  C46      1.0000 0.75350  0.89560  0.08610  Biso   1.000  C
  C47      1.0000 0.88140  0.04140  0.48600  Biso   1.000  C
  C48      1.0000 0.79930  0.10930  0.70690  Biso   1.000  C
  C49      1.0000 0.05610  0.44380  0.59120  Biso   1.000  C
  C50      1.0000 0.03440  0.31810  0.46240  Biso   1.000  C
  H28      1.0000 0.97190  0.32240  0.42450  Biso   1.000  H
  N23      1.0000 0.78330  0.01350  0.99680  Biso   1.000  N
  H29      1.0000 0.83230  0.92610  0.95930  Biso   1.000  H
  H30      1.0000 0.73390  0.85960  0.12910  Biso   1.000  H
  C51      1.0000 0.92840  0.02150  0.46940  Biso   1.000  C
  C52      1.0000 0.73870  0.15960  0.74130  Biso   1.000  C
  N24      1.0000 0.77560  0.13420  0.78330  Biso   1.000  N
  H31      1.0000 0.82920  0.09380  0.71260  Biso   1.000  H
  C53      1.0000 0.06590  0.36720  0.52460  Biso   1.000  C
  H32      1.0000 0.07730  0.47090  0.63590  Biso   1.000  H
  H33      1.0000 0.04210  0.26150  0.41900  Biso   1.000  H
  C54      1.0000 0.94870  0.96030  0.53780  Biso   1.000  C
  C55      1.0000 0.95140  0.06840  0.38810  Biso   1.000  C
  H34      1.0000 0.71440  0.18510  0.77760  Biso   1.000  H
  C56      1.0000 0.11150  0.32060  0.51660  Biso   1.000  C
  O14      1.0000 0.85810  0.12800  0.89650  Biso   1.000  O
  H35      1.0000 0.93380  0.93760  0.59630  Biso   1.000  H
  C57      1.0000 0.99320  0.92930  0.52220  Biso   1.000  C
  H36      1.0000 0.93700  0.11730  0.34540  Biso   1.000  H
  C58      1.0000 0.99370  0.04430  0.37050  Biso   1.000  C
  O15      1.0000 0.12110  0.25130  0.45740  Biso   1.000  O
  C59      1.0000 0.01450  0.97920  0.44550  Biso   1.000  C
  C60      1.0000 0.01450  0.86360  0.58660  Biso   1.000  C
  H37      1.0000 0.00850  0.06870  0.31260  Biso   1.000  H
  C61      1.0000 0.05880  0.94540  0.42870  Biso   1.000  C
  H38      1.0000 0.99950  0.83770  0.64360  Biso   1.000  H
  C62      1.0000 0.05710  0.83260  0.57310  Biso   1.000  C
  C63      1.0000 0.07860  0.87670  0.48990  Biso   1.000  C
  H39      1.0000 0.07420  0.97290  0.37280  Biso   1.000  H
  H40      1.0000 0.07090  0.78430  0.61730  Biso   1.000  H
  C64      1.0000 0.12710  0.84700  0.47400  Biso   1.000  C
  O16      1.0000 0.14750  0.80340  0.55300  Biso   1.000  O
  Zn9      1.0000 0.70299  0.09958  0.10042  Biso   1.000  Zn
  O17      1.0000 0.64650  0.03340  0.06630  Biso   1.000  O
  N25      1.0000 0.71850  0.11640  0.24460  Biso   1.000  N
  N26      1.0000 0.71620  0.23400  0.03230  Biso   1.000  N
  N27      1.0000 0.74980  0.99410  0.06140  Biso   1.000  N
  C65      1.0000 0.61880  0.09540  0.11010  Biso   1.000  C
  C66      1.0000 0.69590  0.14510  0.32100  Biso   1.000  C
  C67      1.0000 0.75620  0.09050  0.28660  Biso   1.000  C
  N28      1.0000 0.75260  0.26160  0.97510  Biso   1.000  N
  C68      1.0000 0.69440  0.32740  0.03850  Biso   1.000  C
  O18      1.0000 0.62680  0.17500  0.15230  Biso   1.000  O
  C69      1.0000 0.57310  0.05520  0.10210  Biso   1.000  C
  N29      1.0000 0.71620  0.14930  0.40780  Biso   1.000  N
  H41      1.0000 0.66610  0.16230  0.31510  Biso   1.000  H
  N30      1.0000 0.75520  0.10960  0.38360  Biso   1.000  N
  H42      1.0000 0.78020  0.06220  0.25150  Biso   1.000  H
  C70      1.0000 0.74930  0.35710  0.94970  Biso   1.000  C
  Zn10     1.0000 0.79566  0.15422  0.92689  Biso   1.000  Zn
  N31      1.0000 0.71400  0.40390  0.98550  Biso   1.000  N
  H43      1.0000 0.66850  0.33720  0.07570  Biso   1.000  H
  C71      1.0000 0.54180  0.09760  0.16310  Biso   1.000  C
  C72      1.0000 0.56100  0.97700  0.04140  Biso   1.000  C
  Zn11     1.0000 0.69533  0.19624  0.54339  Biso   1.000  Zn
  Zn12     1.0000 0.80157  0.06346  0.48712  Biso   1.000  Zn
  H44      1.0000 0.76990  0.39250  0.90890  Biso   1.000  H
  C73      1.0000 0.49960  0.06550  0.16050  Biso   1.000  C
  H45      1.0000 0.54980  0.15160  0.20910  Biso   1.000  H
  H46      1.0000 0.58310  0.94620  0.00150  Biso   1.000  H
  C74      1.0000 0.51880  0.93390  0.02940  Biso   1.000  C
  N32      1.0000 0.71180  0.34980  0.54410  Biso   1.000  N
  O19      1.0000 0.63900  0.13650  0.57910  Biso   1.000  O
  N33      1.0000 0.73880  0.14580  0.64300  Biso   1.000  N
  O20      1.0000 0.64080  0.58200  0.90880  Biso   1.000  O
  O21      1.0000 0.63610  0.52000  0.06440  Biso   1.000  O
  N34      1.0000 0.72100  0.60720  0.12230  Biso   1.000  N
  H47      1.0000 0.47870  0.09730  0.20310  Biso   1.000  H
  C75      1.0000 0.48750  0.98330  0.09240  Biso   1.000  C
  C76      1.0000 0.50700  0.85390  0.96650  Biso   1.000  C
  C77      1.0000 0.69450  0.43080  0.49390  Biso   1.000  C
  C78      1.0000 0.74650  0.39560  0.58610  Biso   1.000  C
  C79      1.0000 0.61860  0.54140  0.98600  Biso   1.000  C
  C80      1.0000 0.70070  0.60930  0.20690  Biso   1.000  C
  C81      1.0000 0.44390  0.94380  0.09120  Biso   1.000  C
  C82      1.0000 0.46560  0.81810  0.96240  Biso   1.000  C
  H48      1.0000 0.52810  0.82240  0.92450  Biso   1.000  H
  N35      1.0000 0.71670  0.51350  0.49680  Biso   1.000  N
  H49      1.0000 0.66770  0.42610  0.45930  Biso   1.000  H
  H50      1.0000 0.76610  0.35960  0.62910  Biso   1.000  H
  C83      1.0000 0.57160  0.52150  0.96940  Biso   1.000  C
  C84      1.0000 0.76130  0.65960  0.24130  Biso   1.000  C
  N36      1.0000 0.72440  0.63420  0.28330  Biso   1.000  N
  H51      1.0000 0.67080  0.59380  0.21260  Biso   1.000  H
  C85      1.0000 0.43410  0.86720  0.02460  Biso   1.000  C
  H52      1.0000 0.42270  0.97090  0.13590  Biso   1.000  H
  H53      1.0000 0.45790  0.76150  0.91900  Biso   1.000  H
  C86      1.0000 0.55130  0.46030  0.03780  Biso   1.000  C
  C87      1.0000 0.54860  0.56840  0.88810  Biso   1.000  C
  H54      1.0000 0.78560  0.68510  0.27760  Biso   1.000  H
  C88      1.0000 0.38850  0.82060  0.01660  Biso   1.000  C
  O22      1.0000 0.64190  0.62800  0.39650  Biso   1.000  O
  H55      1.0000 0.56620  0.43760  0.09630  Biso   1.000  H
  C89      1.0000 0.50680  0.42930  0.02220  Biso   1.000  C
  H56      1.0000 0.56300  0.61730  0.84540  Biso   1.000  H
  C90      1.0000 0.50630  0.54430  0.87050  Biso   1.000  C
  O23      1.0000 0.37890  0.75130  0.95740  Biso   1.000  O
  C91      1.0000 0.48550  0.47920  0.94550  Biso   1.000  C
  C92      1.0000 0.48550  0.36360  0.08660  Biso   1.000  C
  H57      1.0000 0.49150  0.56870  0.81260  Biso   1.000  H
  C93      1.0000 0.44120  0.44540  0.92870  Biso   1.000  C
  H58      1.0000 0.50050  0.33770  0.14360  Biso   1.000  H
  C94      1.0000 0.44290  0.33260  0.07310  Biso   1.000  C
  C95      1.0000 0.42140  0.37670  0.98990  Biso   1.000  C
  H59      1.0000 0.42580  0.47290  0.87280  Biso   1.000  H
  H60      1.0000 0.42910  0.28430  0.11730  Biso   1.000  H
  C96      1.0000 0.37290  0.34700  0.97400  Biso   1.000  C
  O24      1.0000 0.35250  0.30340  0.05300  Biso   1.000  O
  Zn13     1.0000 0.29701  0.90042  0.60042  Biso   1.000  Zn
  O25      1.0000 0.35350  0.96660  0.56630  Biso   1.000  O
  N37      1.0000 0.28150  0.88360  0.74460  Biso   1.000  N
  N38      1.0000 0.28380  0.76600  0.53230  Biso   1.000  N
  N39      1.0000 0.25020  0.00590  0.56140  Biso   1.000  N
  C97      1.0000 0.38120  0.90460  0.61010  Biso   1.000  C
  C98      1.0000 0.30410  0.85490  0.82100  Biso   1.000  C
  C99      1.0000 0.24380  0.90950  0.78660  Biso   1.000  C
  N40      1.0000 0.24740  0.73840  0.47510  Biso   1.000  N
  C100     1.0000 0.30560  0.67260  0.53850  Biso   1.000  C
  O26      1.0000 0.37320  0.82500  0.65230  Biso   1.000  O
  C101     1.0000 0.42690  0.94480  0.60210  Biso   1.000  C
  N41      1.0000 0.28380  0.85070  0.90780  Biso   1.000  N
  H61      1.0000 0.33390  0.83770  0.81510  Biso   1.000  H
  N42      1.0000 0.24480  0.89040  0.88360  Biso   1.000  N
  H62      1.0000 0.21980  0.93780  0.75150  Biso   1.000  H
  C102     1.0000 0.25070  0.64290  0.44970  Biso   1.000  C
  Zn14     1.0000 0.20434  0.84578  0.42689  Biso   1.000  Zn
  N43      1.0000 0.28600  0.59610  0.48550  Biso   1.000  N
  H63      1.0000 0.33150  0.66280  0.57570  Biso   1.000  H
  C103     1.0000 0.45820  0.90240  0.66310  Biso   1.000  C
  C104     1.0000 0.43900  0.02300  0.54140  Biso   1.000  C
  Zn15     1.0000 0.30467  0.80376  0.04339  Biso   1.000  Zn
  Zn16     1.0000 0.19843  0.93654  0.98712  Biso   1.000  Zn
  H64      1.0000 0.23010  0.60750  0.40890  Biso   1.000  H
  C105     1.0000 0.50040  0.93450  0.66050  Biso   1.000  C
  H65      1.0000 0.45020  0.84840  0.70910  Biso   1.000  H
  H66      1.0000 0.41690  0.05380  0.50150  Biso   1.000  H
  C106     1.0000 0.48120  0.06610  0.52940  Biso   1.000  C
  N44      1.0000 0.28820  0.65020  0.04410  Biso   1.000  N
  O27      1.0000 0.36100  0.86350  0.07910  Biso   1.000  O
  N45      1.0000 0.26120  0.85420  0.14300  Biso   1.000  N
  O28      1.0000 0.35920  0.41800  0.40880  Biso   1.000  O
  O29      1.0000 0.36390  0.48000  0.56440  Biso   1.000  O
  N46      1.0000 0.27900  0.39280  0.62230  Biso   1.000  N
  H67      1.0000 0.52130  0.90270  0.70310  Biso   1.000  H
  C107     1.0000 0.51250  0.01670  0.59240  Biso   1.000  C
  C108     1.0000 0.49300  0.14610  0.46650  Biso   1.000  C
  C109     1.0000 0.30550  0.56920  0.99390  Biso   1.000  C
  C110     1.0000 0.25350  0.60440  0.08610  Biso   1.000  C
  C111     1.0000 0.38140  0.45860  0.48600  Biso   1.000  C
  C112     1.0000 0.29930  0.39070  0.70690  Biso   1.000  C
  C113     1.0000 0.55610  0.05620  0.59120  Biso   1.000  C
  C114     1.0000 0.53440  0.18190  0.46240  Biso   1.000  C
  H68      1.0000 0.47190  0.17760  0.42450  Biso   1.000  H
  N47      1.0000 0.28330  0.48650  0.99680  Biso   1.000  N
  H69      1.0000 0.33230  0.57390  0.95930  Biso   1.000  H
  H70      1.0000 0.23390  0.64040  0.12910  Biso   1.000  H
  C115     1.0000 0.42840  0.47850  0.46940  Biso   1.000  C
  C116     1.0000 0.23870  0.34040  0.74130  Biso   1.000  C
  N48      1.0000 0.27560  0.36580  0.78330  Biso   1.000  N
  H71      1.0000 0.32920  0.40620  0.71260  Biso   1.000  H
  C117     1.0000 0.56590  0.13280  0.52460  Biso   1.000  C
  H72      1.0000 0.57730  0.02910  0.63590  Biso   1.000  H
  H73      1.0000 0.54210  0.23850  0.41900  Biso   1.000  H
  C118     1.0000 0.44870  0.53970  0.53780  Biso   1.000  C
  C119     1.0000 0.45140  0.43160  0.38810  Biso   1.000  C
  H74      1.0000 0.21440  0.31490  0.77760  Biso   1.000  H
  C120     1.0000 0.61150  0.17940  0.51660  Biso   1.000  C
  O30      1.0000 0.35810  0.37200  0.89650  Biso   1.000  O
  H75      1.0000 0.43380  0.56240  0.59630  Biso   1.000  H
  C121     1.0000 0.49320  0.57070  0.52220  Biso   1.000  C
  H76      1.0000 0.43700  0.38270  0.34540  Biso   1.000  H
  C122     1.0000 0.49370  0.45570  0.37050  Biso   1.000  C
  O31      1.0000 0.62110  0.24870  0.45740  Biso   1.000  O
  C123     1.0000 0.51450  0.52080  0.44550  Biso   1.000  C
  C124     1.0000 0.51450  0.63640  0.58660  Biso   1.000  C
  H77      1.0000 0.50850  0.43130  0.31260  Biso   1.000  H
  C125     1.0000 0.55880  0.55460  0.42870  Biso   1.000  C
  H78      1.0000 0.49950  0.66230  0.64360  Biso   1.000  H
  C126     1.0000 0.55710  0.66740  0.57310  Biso   1.000  C
  C127     1.0000 0.57860  0.62330  0.48990  Biso   1.000  C
  H79      1.0000 0.57420  0.52710  0.37280  Biso   1.000  H
  H80      1.0000 0.57090  0.71570  0.61730  Biso   1.000  H
  C128     1.0000 0.62710  0.65300  0.47400  Biso   1.000  C
  O32      1.0000 0.64750  0.69660  0.55300  Biso   1.000  O
