data_image0
_cell_length_a       10.929
_cell_length_b       16.594
_cell_length_c       18.277
_cell_angle_alpha    63.002
_cell_angle_beta     72.6034
_cell_angle_gamma    90

_symmetry_space_group_name_H-M    P 1
_symmetry_int_tables_number       1

loop_
  _symmetry_equiv_pos_as_xyz
  'x, y, z'

loop_
  _atom_site_label
  _atom_site_occupancy
  _atom_site_fract_x
  _atom_site_fract_y
  _atom_site_fract_z
  _atom_site_thermal_displace_type
  _atom_site_B_iso_or_equiv
  _atom_site_type_symbol
  Zn1      1.0000 0.57411  0.78544  0.64924  Biso   1.000  Zn
  Zn2      1.0000 0.63569  0.47716  0.15342  Biso   1.000  Zn
  Zn3      1.0000 0.42589  0.43468  0.35076  Biso   1.000  Zn
  Zn4      1.0000 0.36431  0.63058  0.84658  Biso   1.000  Zn
  Zn5      1.0000 0.77665  0.28544  0.64924  Biso   1.000  Zn
  Zn6      1.0000 0.21089  0.97716  0.15342  Biso   1.000  Zn
  Zn7      1.0000 0.22335  0.93468  0.35076  Biso   1.000  Zn
  Zn8      1.0000 0.78911  0.13058  0.84658  Biso   1.000  Zn
  H1       1.0000 0.73550  0.49120  0.70840  Biso   1.000  H
  H2       1.0000 0.73420  0.31880  0.94900  Biso   1.000  H
  H3       1.0000 0.63400  0.56640  0.89440  Biso   1.000  H
  H4       1.0000 0.93750  0.99010  0.64100  Biso   1.000  H
  H5       1.0000 0.76730  0.85820  0.73620  Biso   1.000  H
  H6       1.0000 0.90810  0.01070  0.36740  Biso   1.000  H
  H7       1.0000 0.81790  0.99770  0.27060  Biso   1.000  H
  H8       1.0000 0.62510  0.90060  0.32600  Biso   1.000  H
  H9       1.0000 0.52330  0.82430  0.47220  Biso   1.000  H
  H10      1.0000 0.03850  0.09590  0.47780  Biso   1.000  H
  H11      1.0000 0.02530  0.05540  0.41720  Biso   1.000  H
  H12      1.0000 0.98890  0.18170  0.29980  Biso   1.000  H
  H13      1.0000 0.86440  0.29110  0.24260  Biso   1.000  H
  H14      1.0000 0.65220  0.23650  0.48400  Biso   1.000  H
  H15      1.0000 0.77060  0.12550  0.54080  Biso   1.000  H
  H16      1.0000 0.26450  0.19960  0.29160  Biso   1.000  H
  H17      1.0000 0.26580  0.26780  0.05100  Biso   1.000  H
  H18      1.0000 0.36600  0.46080  0.10560  Biso   1.000  H
  H19      1.0000 0.06250  0.63110  0.35900  Biso   1.000  H
  H20      1.0000 0.23270  0.59440  0.26380  Biso   1.000  H
  H21      1.0000 0.09190  0.37810  0.63260  Biso   1.000  H
  H22      1.0000 0.18210  0.26830  0.72940  Biso   1.000  H
  H23      1.0000 0.37490  0.22660  0.67400  Biso   1.000  H
  H24      1.0000 0.47670  0.29650  0.52780  Biso   1.000  H
  H25      1.0000 0.96150  0.57370  0.52220  Biso   1.000  H
  H26      1.0000 0.97470  0.47260  0.58280  Biso   1.000  H
  H27      1.0000 0.01110  0.48150  0.70020  Biso   1.000  H
  H28      1.0000 0.13560  0.53370  0.75740  Biso   1.000  H
  H29      1.0000 0.34780  0.72050  0.51600  Biso   1.000  H
  H30      1.0000 0.22940  0.66630  0.45920  Biso   1.000  H
  H31      1.0000 0.55610  0.99120  0.70840  Biso   1.000  H
  H32      1.0000 0.31680  0.81880  0.94900  Biso   1.000  H
  H33      1.0000 0.47160  0.06640  0.89440  Biso   1.000  H
  H34      1.0000 0.42150  0.49010  0.64100  Biso   1.000  H
  H35      1.0000 0.49650  0.35820  0.73620  Biso   1.000  H
  H36      1.0000 0.72450  0.51070  0.36740  Biso   1.000  H
  H37      1.0000 0.91150  0.49770  0.27060  Biso   1.000  H
  H38      1.0000 0.04890  0.40060  0.32600  Biso   1.000  H
  H39      1.0000 0.00450  0.32430  0.47220  Biso   1.000  H
  H40      1.0000 0.48370  0.59590  0.47780  Biso   1.000  H
  H41      1.0000 0.55750  0.55540  0.41720  Biso   1.000  H
  H42      1.0000 0.71130  0.68170  0.29980  Biso   1.000  H
  H43      1.0000 0.89300  0.79110  0.24260  Biso   1.000  H
  H44      1.0000 0.86380  0.73650  0.48400  Biso   1.000  H
  H45      1.0000 0.68860  0.62550  0.54080  Biso   1.000  H
  H46      1.0000 0.44390  0.69960  0.29160  Biso   1.000  H
  H47      1.0000 0.68320  0.76780  0.05100  Biso   1.000  H
  H48      1.0000 0.52840  0.96080  0.10560  Biso   1.000  H
  H49      1.0000 0.57850  0.13110  0.35900  Biso   1.000  H
  H50      1.0000 0.50350  0.09440  0.26380  Biso   1.000  H
  H51      1.0000 0.27550  0.87810  0.63260  Biso   1.000  H
  H52      1.0000 0.08850  0.76830  0.72940  Biso   1.000  H
  H53      1.0000 0.95110  0.72660  0.67400  Biso   1.000  H
  H54      1.0000 0.99550  0.79650  0.52780  Biso   1.000  H
  H55      1.0000 0.51630  0.07370  0.52220  Biso   1.000  H
  H56      1.0000 0.44250  0.97260  0.58280  Biso   1.000  H
  H57      1.0000 0.28870  0.98150  0.70020  Biso   1.000  H
  H58      1.0000 0.10700  0.03370  0.75740  Biso   1.000  H
  H59      1.0000 0.13620  0.22050  0.51600  Biso   1.000  H
  H60      1.0000 0.31140  0.16630  0.45920  Biso   1.000  H
  C1       1.0000 0.72161  0.47791  0.76578  Biso   1.000  C
  C2       1.0000 0.74324  0.39454  0.82352  Biso   1.000  C
  C3       1.0000 0.72294  0.37554  0.90912  Biso   1.000  C
  C4       1.0000 0.68540  0.44220  0.93520  Biso   1.000  C
  C5       1.0000 0.66210  0.52310  0.87680  Biso   1.000  C
  C6       1.0000 0.67943  0.54193  0.79274  Biso   1.000  C
  C7       1.0000 0.66930  0.42390  0.02660  Biso   1.000  C
  C8       1.0000 0.64992  0.63142  0.73096  Biso   1.000  C
  C9       1.0000 0.78046  0.32316  0.79648  Biso   1.000  C
  C10      1.0000 0.88650  0.96200  0.62380  Biso   1.000  C
  C11      1.0000 0.79180  0.88990  0.67580  Biso   1.000  C
  C12      1.0000 0.79721  0.93011  0.54518  Biso   1.000  C
  C13      1.0000 0.75907  0.92787  0.47506  Biso   1.000  C
  C14      1.0000 0.82830  0.97420  0.38800  Biso   1.000  C
  C15      1.0000 0.77530  0.96520  0.33040  Biso   1.000  C
  C16      1.0000 0.66110  0.90850  0.36280  Biso   1.000  C
  C17      1.0000 0.60090  0.86350  0.45060  Biso   1.000  C
  C18      1.0000 0.97680  0.07090  0.46180  Biso   1.000  C
  C19      1.0000 0.89328  0.14328  0.42504  Biso   1.000  C
  C20      1.0000 0.91990  0.19230  0.33700  Biso   1.000  C
  C21      1.0000 0.84503  0.25773  0.30254  Biso   1.000  C
  C22      1.0000 0.74245  0.27285  0.35750  Biso   1.000  C
  C23      1.0000 0.71869  0.22429  0.44662  Biso   1.000  C
  C24      1.0000 0.79038  0.15918  0.48064  Biso   1.000  C
  C25      1.0000 0.66095  0.34295  0.31990  Biso   1.000  C
  C26      1.0000 0.27839  0.24369  0.23422  Biso   1.000  C
  C27      1.0000 0.25676  0.21806  0.17648  Biso   1.000  C
  C28      1.0000 0.27706  0.28466  0.09088  Biso   1.000  C
  C29      1.0000 0.31460  0.37740  0.06480  Biso   1.000  C
  C30      1.0000 0.33790  0.39990  0.12320  Biso   1.000  C
  C31      1.0000 0.32057  0.33467  0.20726  Biso   1.000  C
  C32      1.0000 0.33070  0.45050  0.97340  Biso   1.000  C
  C33      1.0000 0.35008  0.36238  0.26904  Biso   1.000  C
  C34      1.0000 0.21954  0.11964  0.20352  Biso   1.000  C
  C35      1.0000 0.11350  0.58580  0.37620  Biso   1.000  C
  C36      1.0000 0.20820  0.56570  0.32420  Biso   1.000  C
  C37      1.0000 0.20279  0.47529  0.45482  Biso   1.000  C
  C38      1.0000 0.24093  0.40293  0.52494  Biso   1.000  C
  C39      1.0000 0.17170  0.36220  0.61200  Biso   1.000  C
  C40      1.0000 0.22470  0.29560  0.66960  Biso   1.000  C
  C41      1.0000 0.33890  0.27130  0.63720  Biso   1.000  C
  C42      1.0000 0.39910  0.31410  0.54940  Biso   1.000  C
  C43      1.0000 0.02320  0.53270  0.53820  Biso   1.000  C
  C44      1.0000 0.10672  0.56832  0.57496  Biso   1.000  C
  C45      1.0000 0.08010  0.52930  0.66300  Biso   1.000  C
  C46      1.0000 0.15497  0.56027  0.69746  Biso   1.000  C
  C47      1.0000 0.25755  0.63035  0.64250  Biso   1.000  C
  C48      1.0000 0.28131  0.67091  0.55338  Biso   1.000  C
  C49      1.0000 0.20962  0.63982  0.51936  Biso   1.000  C
  C50      1.0000 0.33905  0.66285  0.68010  Biso   1.000  C
  C51      1.0000 0.51261  0.97791  0.76578  Biso   1.000  C
  C52      1.0000 0.43324  0.89454  0.82352  Biso   1.000  C
  C53      1.0000 0.36794  0.87554  0.90912  Biso   1.000  C
  C54      1.0000 0.37940  0.94220  0.93520  Biso   1.000  C
  C55      1.0000 0.46110  0.02310  0.87680  Biso   1.000  C
  C56      1.0000 0.52783  0.04193  0.79274  Biso   1.000  C
  C57      1.0000 0.30410  0.92390  0.02660  Biso   1.000  C
  C58      1.0000 0.61912  0.13142  0.73096  Biso   1.000  C
  C59      1.0000 0.42306  0.82316  0.79648  Biso   1.000  C
  C60      1.0000 0.48970  0.46200  0.62380  Biso   1.000  C
  C61      1.0000 0.53240  0.38990  0.67580  Biso   1.000  C
  C62      1.0000 0.65761  0.43011  0.54518  Biso   1.000  C
  C63      1.0000 0.76587  0.42787  0.47506  Biso   1.000  C
  C64      1.0000 0.78370  0.47420  0.38800  Biso   1.000  C
  C65      1.0000 0.89430  0.46520  0.33040  Biso   1.000  C
  C66      1.0000 0.97610  0.40850  0.36280  Biso   1.000  C
  C67      1.0000 0.94850  0.36350  0.45060  Biso   1.000  C
  C68      1.0000 0.56140  0.57090  0.46180  Biso   1.000  C
  C69      1.0000 0.68168  0.64328  0.42504  Biso   1.000  C
  C70      1.0000 0.74310  0.69230  0.33700  Biso   1.000  C
  C71      1.0000 0.85243  0.75773  0.30254  Biso   1.000  C
  C72      1.0000 0.90005  0.77285  0.35750  Biso   1.000  C
  C73      1.0000 0.83469  0.72429  0.44662  Biso   1.000  C
  C74      1.0000 0.72898  0.65918  0.48064  Biso   1.000  C
  C75      1.0000 0.01915  0.84295  0.31990  Biso   1.000  C
  C76      1.0000 0.48739  0.74369  0.23422  Biso   1.000  C
  C77      1.0000 0.56676  0.71806  0.17648  Biso   1.000  C
  C78      1.0000 0.63206  0.78466  0.09088  Biso   1.000  C
  C79      1.0000 0.62060  0.87740  0.06480  Biso   1.000  C
  C80      1.0000 0.53890  0.89990  0.12320  Biso   1.000  C
  C81      1.0000 0.47217  0.83467  0.20726  Biso   1.000  C
  C82      1.0000 0.69590  0.95050  0.97340  Biso   1.000  C
  C83      1.0000 0.38088  0.86238  0.26904  Biso   1.000  C
  C84      1.0000 0.57694  0.61964  0.20352  Biso   1.000  C
  C85      1.0000 0.51030  0.08580  0.37620  Biso   1.000  C
  C86      1.0000 0.46760  0.06570  0.32420  Biso   1.000  C
  C87      1.0000 0.34239  0.97529  0.45482  Biso   1.000  C
  C88      1.0000 0.23413  0.90293  0.52494  Biso   1.000  C
  C89      1.0000 0.21630  0.86220  0.61200  Biso   1.000  C
  C90      1.0000 0.10570  0.79560  0.66960  Biso   1.000  C
  C91      1.0000 0.02390  0.77130  0.63720  Biso   1.000  C
  C92      1.0000 0.05150  0.81410  0.54940  Biso   1.000  C
  C93      1.0000 0.43860  0.03270  0.53820  Biso   1.000  C
  C94      1.0000 0.31832  0.06832  0.57496  Biso   1.000  C
  C95      1.0000 0.25690  0.02930  0.66300  Biso   1.000  C
  C96      1.0000 0.14757  0.06027  0.69746  Biso   1.000  C
  C97      1.0000 0.09995  0.13035  0.64250  Biso   1.000  C
  C98      1.0000 0.16531  0.17091  0.55338  Biso   1.000  C
  C99      1.0000 0.27102  0.13982  0.51936  Biso   1.000  C
  C100     1.0000 0.98085  0.16285  0.68010  Biso   1.000  C
  N1       1.0000 0.89348  0.98668  0.53984  Biso   1.000  N
  N2       1.0000 0.73652  0.86942  0.62756  Biso   1.000  N
  N3       1.0000 0.64577  0.87167  0.50846  Biso   1.000  N
  N4       1.0000 0.10652  0.52652  0.46016  Biso   1.000  N
  N5       1.0000 0.26348  0.49698  0.37244  Biso   1.000  N
  N6       1.0000 0.35423  0.38013  0.49154  Biso   1.000  N
  N7       1.0000 0.56668  0.48668  0.53984  Biso   1.000  N
  N8       1.0000 0.63592  0.36942  0.62756  Biso   1.000  N
  N9       1.0000 0.84577  0.37167  0.50846  Biso   1.000  N
  N10      1.0000 0.43332  0.02652  0.46016  Biso   1.000  N
  N11      1.0000 0.36408  0.99698  0.37244  Biso   1.000  N
  N12      1.0000 0.15423  0.88013  0.49154  Biso   1.000  N
  O1       1.0000 0.63733  0.48893  0.04334  Biso   1.000  O
  O2       1.0000 0.65430  0.34190  0.08700  Biso   1.000  O
  O3       1.0000 0.70516  0.66556  0.65188  Biso   1.000  O
  O4       1.0000 0.56790  0.67060  0.76420  Biso   1.000  O
  O5       1.0000 0.82587  0.34627  0.71666  Biso   1.000  O
  O6       1.0000 0.76126  0.24126  0.85728  Biso   1.000  O
  O7       1.0000 0.56755  0.35525  0.37010  Biso   1.000  O
  O8       1.0000 0.69459  0.38439  0.23742  Biso   1.000  O
  O9       1.0000 0.36267  0.53227  0.95666  Biso   1.000  O
  O10      1.0000 0.34570  0.42890  0.91300  Biso   1.000  O
  O11      1.0000 0.29484  0.31744  0.34812  Biso   1.000  O
  O12      1.0000 0.43210  0.43480  0.23580  Biso   1.000  O
  O13      1.0000 0.17413  0.06293  0.28334  Biso   1.000  O
  O14      1.0000 0.23874  0.09854  0.14272  Biso   1.000  O
  O15      1.0000 0.43245  0.72535  0.62990  Biso   1.000  O
  O16      1.0000 0.30541  0.62181  0.76258  Biso   1.000  O
  O17      1.0000 0.31933  0.98893  0.04334  Biso   1.000  O
  O18      1.0000 0.25870  0.84190  0.08700  Biso   1.000  O
  O19      1.0000 0.64296  0.16556  0.65188  Biso   1.000  O
  O20      1.0000 0.66790  0.17060  0.76420  Biso   1.000  O
  O21      1.0000 0.45747  0.84627  0.71666  Biso   1.000  O
  O22      1.0000 0.38146  0.74126  0.85728  Biso   1.000  O
  O23      1.0000 0.06235  0.85525  0.37010  Biso   1.000  O
  O24      1.0000 0.06799  0.88439  0.23742  Biso   1.000  O
  O25      1.0000 0.68067  0.03227  0.95666  Biso   1.000  O
  O26      1.0000 0.74130  0.92890  0.91300  Biso   1.000  O
  O27      1.0000 0.35704  0.81744  0.34812  Biso   1.000  O
  O28      1.0000 0.33210  0.93480  0.23580  Biso   1.000  O
  O29      1.0000 0.54253  0.56293  0.28334  Biso   1.000  O
  O30      1.0000 0.61854  0.59854  0.14272  Biso   1.000  O
  O31      1.0000 0.93765  0.22535  0.62990  Biso   1.000  O
  O32      1.0000 0.93201  0.12181  0.76258  Biso   1.000  O
