data_image0
_cell_length_a       20.07
_cell_length_b       20.07
_cell_length_c       12.733
_cell_angle_alpha    90
_cell_angle_beta     90
_cell_angle_gamma    90

_symmetry_space_group_name_H-M    "P 1"
_symmetry_int_tables_number       1

loop_
  _symmetry_equiv_pos_as_xyz
  'x, y, z'

loop_
  _atom_site_label
  _atom_site_occupancy
  _atom_site_fract_x
  _atom_site_fract_y
  _atom_site_fract_z
  _atom_site_thermal_displace_type
  _atom_site_B_iso_or_equiv
  _atom_site_type_symbol
  Cd1      1.0000 0.10384  0.06904  0.40667  Biso   1.000  Cd
  N1       1.0000 0.14110  0.98670  0.29800  Biso   1.000  N
  N2       1.0000 0.06870  0.13730  0.28160  Biso   1.000  N
  C1       1.0000 0.19210  0.09420  0.49820  Biso   1.000  C
  C2       1.0000 0.04640  0.17470  0.22560  Biso   1.000  C
  C3       1.0000 0.02190  0.01370  0.47980  Biso   1.000  C
  Cd2      1.0000 0.60384  0.56904  0.90667  Biso   1.000  Cd
  N3       1.0000 0.64110  0.48670  0.79800  Biso   1.000  N
  N4       1.0000 0.56870  0.63730  0.78160  Biso   1.000  N
  C4       1.0000 0.69210  0.59420  0.99820  Biso   1.000  C
  C5       1.0000 0.54640  0.67470  0.72560  Biso   1.000  C
  C6       1.0000 0.52190  0.51370  0.97980  Biso   1.000  C
  Cd3      1.0000 0.39616  0.93096  0.90667  Biso   1.000  Cd
  N5       1.0000 0.35890  0.01330  0.79800  Biso   1.000  N
  N6       1.0000 0.43130  0.86270  0.78160  Biso   1.000  N
  C7       1.0000 0.30790  0.90580  0.99820  Biso   1.000  C
  C8       1.0000 0.45360  0.82530  0.72560  Biso   1.000  C
  C9       1.0000 0.47810  0.98630  0.97980  Biso   1.000  C
  Cd4      1.0000 0.89616  0.43096  0.40667  Biso   1.000  Cd
  N7       1.0000 0.85890  0.51330  0.29800  Biso   1.000  N
  N8       1.0000 0.93130  0.36270  0.28160  Biso   1.000  N
  C10      1.0000 0.80790  0.40580  0.49820  Biso   1.000  C
  C11      1.0000 0.95360  0.32530  0.22560  Biso   1.000  C
  C12      1.0000 0.97810  0.48630  0.47980  Biso   1.000  C
  Cd5      1.0000 0.68096  0.35384  0.65667  Biso   1.000  Cd
  N9       1.0000 0.76330  0.39110  0.54800  Biso   1.000  N
  N10      1.0000 0.61270  0.31870  0.53160  Biso   1.000  N
  C13      1.0000 0.65580  0.44210  0.74820  Biso   1.000  C
  C14      1.0000 0.57530  0.29640  0.47560  Biso   1.000  C
  C15      1.0000 0.73630  0.27190  0.72980  Biso   1.000  C
  Cd6      1.0000 0.18096  0.85384  0.15667  Biso   1.000  Cd
  N11      1.0000 0.26330  0.89110  0.04800  Biso   1.000  N
  N12      1.0000 0.11270  0.81870  0.03160  Biso   1.000  N
  C16      1.0000 0.15580  0.94210  0.24820  Biso   1.000  C
  C17      1.0000 0.07530  0.79640  0.97560  Biso   1.000  C
  C18      1.0000 0.23630  0.77190  0.22980  Biso   1.000  C
  Cd7      1.0000 0.81904  0.64616  0.15667  Biso   1.000  Cd
  N13      1.0000 0.73670  0.60890  0.04800  Biso   1.000  N
  N14      1.0000 0.88730  0.68130  0.03160  Biso   1.000  N
  C19      1.0000 0.84420  0.55790  0.24820  Biso   1.000  C
  C20      1.0000 0.92470  0.70360  0.97560  Biso   1.000  C
  C21      1.0000 0.76370  0.72810  0.22980  Biso   1.000  C
  Cd8      1.0000 0.31904  0.14616  0.65667  Biso   1.000  Cd
  N15      1.0000 0.23670  0.10890  0.54800  Biso   1.000  N
  N16      1.0000 0.38730  0.18130  0.53160  Biso   1.000  N
  C22      1.0000 0.34420  0.05790  0.74820  Biso   1.000  C
  C23      1.0000 0.42470  0.20360  0.47560  Biso   1.000  C
  C24      1.0000 0.26370  0.22810  0.72980  Biso   1.000  C
  Cd9      1.0000 0.89616  0.93096  0.59333  Biso   1.000  Cd
  N17      1.0000 0.85890  0.01330  0.70200  Biso   1.000  N
  N18      1.0000 0.93130  0.86270  0.71840  Biso   1.000  N
  C25      1.0000 0.80790  0.90580  0.50180  Biso   1.000  C
  C26      1.0000 0.95360  0.82530  0.77440  Biso   1.000  C
  C27      1.0000 0.97810  0.98630  0.52020  Biso   1.000  C
  Cd10     1.0000 0.39616  0.43096  0.09333  Biso   1.000  Cd
  N19      1.0000 0.35890  0.51330  0.20200  Biso   1.000  N
  N20      1.0000 0.43130  0.36270  0.21840  Biso   1.000  N
  C28      1.0000 0.30790  0.40580  0.00180  Biso   1.000  C
  C29      1.0000 0.45360  0.32530  0.27440  Biso   1.000  C
  C30      1.0000 0.47810  0.48630  0.02020  Biso   1.000  C
  Cd11     1.0000 0.60384  0.06904  0.09333  Biso   1.000  Cd
  N21      1.0000 0.64110  0.98670  0.20200  Biso   1.000  N
  N22      1.0000 0.56870  0.13730  0.21840  Biso   1.000  N
  C31      1.0000 0.69210  0.09420  0.00180  Biso   1.000  C
  C32      1.0000 0.54640  0.17470  0.27440  Biso   1.000  C
  C33      1.0000 0.52190  0.01370  0.02020  Biso   1.000  C
  Cd12     1.0000 0.10384  0.56904  0.59333  Biso   1.000  Cd
  N23      1.0000 0.14110  0.48670  0.70200  Biso   1.000  N
  N24      1.0000 0.06870  0.63730  0.71840  Biso   1.000  N
  C34      1.0000 0.19210  0.59420  0.50180  Biso   1.000  C
  C35      1.0000 0.04640  0.67470  0.77440  Biso   1.000  C
  C36      1.0000 0.02190  0.51370  0.52020  Biso   1.000  C
  Cd13     1.0000 0.31904  0.64616  0.34333  Biso   1.000  Cd
  N25      1.0000 0.23670  0.60890  0.45200  Biso   1.000  N
  N26      1.0000 0.38730  0.68130  0.46840  Biso   1.000  N
  C37      1.0000 0.34420  0.55790  0.25180  Biso   1.000  C
  C38      1.0000 0.42470  0.70360  0.52440  Biso   1.000  C
  C39      1.0000 0.26370  0.72810  0.27020  Biso   1.000  C
  Cd14     1.0000 0.81904  0.14616  0.84333  Biso   1.000  Cd
  N27      1.0000 0.73670  0.10890  0.95200  Biso   1.000  N
  N28      1.0000 0.88730  0.18130  0.96840  Biso   1.000  N
  C40      1.0000 0.84420  0.05790  0.75180  Biso   1.000  C
  C41      1.0000 0.92470  0.20360  0.02440  Biso   1.000  C
  C42      1.0000 0.76370  0.22810  0.77020  Biso   1.000  C
  Cd15     1.0000 0.18096  0.35384  0.84333  Biso   1.000  Cd
  N29      1.0000 0.26330  0.39110  0.95200  Biso   1.000  N
  N30      1.0000 0.11270  0.31870  0.96840  Biso   1.000  N
  C43      1.0000 0.15580  0.44210  0.75180  Biso   1.000  C
  C44      1.0000 0.07530  0.29640  0.02440  Biso   1.000  C
  C45      1.0000 0.23630  0.27190  0.77020  Biso   1.000  C
  Cd16     1.0000 0.68096  0.85384  0.34333  Biso   1.000  Cd
  N31      1.0000 0.76330  0.89110  0.45200  Biso   1.000  N
  N32      1.0000 0.61270  0.81870  0.46840  Biso   1.000  N
  C46      1.0000 0.65580  0.94210  0.25180  Biso   1.000  C
  C47      1.0000 0.57530  0.79640  0.52440  Biso   1.000  C
  C48      1.0000 0.73630  0.77190  0.27020  Biso   1.000  C
  Cd17     1.0000 0.00000  0.25000  0.12500  Biso   1.000  Cd
  Cd18     1.0000 0.50000  0.75000  0.62500  Biso   1.000  Cd
  Cd19     1.0000 0.50000  0.25000  0.37500  Biso   1.000  Cd
  Cd20     1.0000 0.00000  0.75000  0.87500  Biso   1.000  Cd
