data_image0
_cell_length_a       10.8908
_cell_length_b       11.5537
_cell_length_c       16.7793
_cell_angle_alpha    90
_cell_angle_beta     90
_cell_angle_gamma    90

_symmetry_space_group_name_H-M    P 1
_symmetry_int_tables_number       1

loop_
  _symmetry_equiv_pos_as_xyz
  'x, y, z'

loop_
  _atom_site_label
  _atom_site_occupancy
  _atom_site_fract_x
  _atom_site_fract_y
  _atom_site_fract_z
  _atom_site_thermal_displace_type
  _atom_site_B_iso_or_equiv
  _atom_site_type_symbol
  Cu1      1.0000 0.00000  0.82138  0.86466  Biso   1.000  Cu
  Cu2      1.0000 0.00000  0.17862  0.13534  Biso   1.000  Cu
  Cu3      1.0000 0.13798  0.00000  0.00000  Biso   1.000  Cu
  Cu4      1.0000 0.86202  0.00000  0.00000  Biso   1.000  Cu
  H1       1.0000 0.31390  0.29340  0.23160  Biso   1.000  H
  H2       1.0000 0.31390  0.70660  0.76840  Biso   1.000  H
  H3       1.0000 0.68610  0.70660  0.76840  Biso   1.000  H
  H4       1.0000 0.68610  0.29340  0.23160  Biso   1.000  H
  H5       1.0000 0.00000  0.84000  0.99700  Biso   1.000  H
  H6       1.0000 0.00000  0.16000  0.00300  Biso   1.000  H
  H7       1.0000 0.50000  0.10940  0.06540  Biso   1.000  H
  H8       1.0000 0.50000  0.89060  0.93460  Biso   1.000  H
  C1       1.0000 0.26830  0.15670  0.10750  Biso   1.000  C
  C2       1.0000 0.06060  0.76260  0.70870  Biso   1.000  C
  C3       1.0000 0.93500  0.64400  0.62200  Biso   1.000  C
  C4       1.0000 0.13100  0.70000  0.57400  Biso   1.000  C
  C5       1.0000 0.26830  0.84330  0.89250  Biso   1.000  C
  C6       1.0000 0.06060  0.23740  0.29130  Biso   1.000  C
  C7       1.0000 0.93500  0.35600  0.37800  Biso   1.000  C
  C8       1.0000 0.13100  0.30000  0.42600  Biso   1.000  C
  C9       1.0000 0.38870  0.19470  0.14320  Biso   1.000  C
  C10      1.0000 0.38930  0.26770  0.20930  Biso   1.000  C
  C11      1.0000 0.38870  0.80530  0.85680  Biso   1.000  C
  C12      1.0000 0.38930  0.73230  0.79070  Biso   1.000  C
  C13      1.0000 0.73170  0.84330  0.89250  Biso   1.000  C
  C14      1.0000 0.93940  0.23740  0.29130  Biso   1.000  C
  C15      1.0000 0.06500  0.35600  0.37800  Biso   1.000  C
  C16      1.0000 0.86900  0.30000  0.42600  Biso   1.000  C
  C17      1.0000 0.73170  0.15670  0.10750  Biso   1.000  C
  C18      1.0000 0.93940  0.76260  0.70870  Biso   1.000  C
  C19      1.0000 0.06500  0.64400  0.62200  Biso   1.000  C
  C20      1.0000 0.86900  0.70000  0.57400  Biso   1.000  C
  C21      1.0000 0.61130  0.80530  0.85680  Biso   1.000  C
  C22      1.0000 0.61070  0.73230  0.79070  Biso   1.000  C
  C23      1.0000 0.61130  0.19470  0.14320  Biso   1.000  C
  C24      1.0000 0.61070  0.26770  0.20930  Biso   1.000  C
  C25      1.0000 0.50000  0.15890  0.11050  Biso   1.000  C
  C26      1.0000 0.50000  0.30300  0.24270  Biso   1.000  C
  C27      1.0000 0.50000  0.84110  0.88950  Biso   1.000  C
  C28      1.0000 0.50000  0.69700  0.75730  Biso   1.000  C
  S1       1.0000 0.50000  0.39953  0.32572  Biso   1.000  S
  S2       1.0000 0.50000  0.60047  0.67428  Biso   1.000  S
  N1       1.0000 0.04870  0.71990  0.63930  Biso   1.000  N
  N2       1.0000 0.04870  0.28010  0.36070  Biso   1.000  N
  N3       1.0000 0.95130  0.28010  0.36070  Biso   1.000  N
  N4       1.0000 0.95130  0.71990  0.63930  Biso   1.000  N
  O1       1.0000 0.27050  0.08590  0.05170  Biso   1.000  O
  O2       1.0000 0.17510  0.79700  0.86170  Biso   1.000  O
  O3       1.0000 0.27050  0.91410  0.94830  Biso   1.000  O
  O4       1.0000 0.17510  0.20300  0.13830  Biso   1.000  O
  O5       1.0000 0.38930  0.37840  0.37020  Biso   1.000  O
  O6       1.0000 0.38930  0.62160  0.62980  Biso   1.000  O
  O7       1.0000 0.72950  0.91410  0.94830  Biso   1.000  O
  O8       1.0000 0.82490  0.20300  0.13830  Biso   1.000  O
  O9       1.0000 0.72950  0.08590  0.05170  Biso   1.000  O
  O10      1.0000 0.82490  0.79700  0.86170  Biso   1.000  O
  O11      1.0000 0.61070  0.62160  0.62980  Biso   1.000  O
  O12      1.0000 0.61070  0.37840  0.37020  Biso   1.000  O
  O13      1.0000 0.00000  0.89840  0.96710  Biso   1.000  O
  O14      1.0000 0.00000  0.73460  0.76470  Biso   1.000  O
  O15      1.0000 0.00000  0.10160  0.03290  Biso   1.000  O
  O16      1.0000 0.00000  0.26540  0.23530  Biso   1.000  O
  O17      1.0000 0.50000  0.51370  0.28960  Biso   1.000  O
  O18      1.0000 0.50000  0.48630  0.71040  Biso   1.000  O
  Cu5      1.0000 0.50000  0.67862  0.36466  Biso   1.000  Cu
  Cu6      1.0000 0.50000  0.32138  0.63534  Biso   1.000  Cu
  Cu7      1.0000 0.36202  0.50000  0.50000  Biso   1.000  Cu
  Cu8      1.0000 0.63798  0.50000  0.50000  Biso   1.000  Cu
  H9       1.0000 0.18610  0.20660  0.73160  Biso   1.000  H
  H10      1.0000 0.18610  0.79340  0.26840  Biso   1.000  H
  H11      1.0000 0.81390  0.79340  0.26840  Biso   1.000  H
  H12      1.0000 0.81390  0.20660  0.73160  Biso   1.000  H
  H13      1.0000 0.00000  0.39060  0.56540  Biso   1.000  H
  H14      1.0000 0.00000  0.60940  0.43460  Biso   1.000  H
  H15      1.0000 0.50000  0.66000  0.49700  Biso   1.000  H
  H16      1.0000 0.50000  0.34000  0.50300  Biso   1.000  H
  C29      1.0000 0.11130  0.30530  0.64320  Biso   1.000  C
  C30      1.0000 0.11070  0.23230  0.70930  Biso   1.000  C
  C31      1.0000 0.11130  0.69470  0.35680  Biso   1.000  C
  C32      1.0000 0.11070  0.76770  0.29070  Biso   1.000  C
  C33      1.0000 0.23170  0.34330  0.60750  Biso   1.000  C
  C34      1.0000 0.43940  0.73740  0.20870  Biso   1.000  C
  C35      1.0000 0.56500  0.85600  0.12200  Biso   1.000  C
  C36      1.0000 0.36900  0.80000  0.07400  Biso   1.000  C
  C37      1.0000 0.23170  0.65670  0.39250  Biso   1.000  C
  C38      1.0000 0.43940  0.26260  0.79130  Biso   1.000  C
  C39      1.0000 0.56500  0.14400  0.87800  Biso   1.000  C
  C40      1.0000 0.36900  0.20000  0.92600  Biso   1.000  C
  C41      1.0000 0.88870  0.69470  0.35680  Biso   1.000  C
  C42      1.0000 0.88930  0.76770  0.29070  Biso   1.000  C
  C43      1.0000 0.88870  0.30530  0.64320  Biso   1.000  C
  C44      1.0000 0.88930  0.23230  0.70930  Biso   1.000  C
  C45      1.0000 0.76830  0.65670  0.39250  Biso   1.000  C
  C46      1.0000 0.56060  0.26260  0.79130  Biso   1.000  C
  C47      1.0000 0.43500  0.14400  0.87800  Biso   1.000  C
  C48      1.0000 0.63100  0.20000  0.92600  Biso   1.000  C
  C49      1.0000 0.76830  0.34330  0.60750  Biso   1.000  C
  C50      1.0000 0.56060  0.73740  0.20870  Biso   1.000  C
  C51      1.0000 0.43500  0.85600  0.12200  Biso   1.000  C
  C52      1.0000 0.63100  0.80000  0.07400  Biso   1.000  C
  C53      1.0000 0.00000  0.34110  0.61050  Biso   1.000  C
  C54      1.0000 0.00000  0.19700  0.74270  Biso   1.000  C
  C55      1.0000 0.00000  0.65890  0.38950  Biso   1.000  C
  C56      1.0000 0.00000  0.80300  0.25730  Biso   1.000  C
  S3       1.0000 0.00000  0.10047  0.82572  Biso   1.000  S
  S4       1.0000 0.00000  0.89953  0.17428  Biso   1.000  S
  N5       1.0000 0.45130  0.78010  0.13930  Biso   1.000  N
  N6       1.0000 0.45130  0.21990  0.86070  Biso   1.000  N
  N7       1.0000 0.54870  0.21990  0.86070  Biso   1.000  N
  N8       1.0000 0.54870  0.78010  0.13930  Biso   1.000  N
  O19      1.0000 0.11070  0.12160  0.87020  Biso   1.000  O
  O20      1.0000 0.11070  0.87840  0.12980  Biso   1.000  O
  O21      1.0000 0.22950  0.41410  0.55170  Biso   1.000  O
  O22      1.0000 0.32490  0.70300  0.36170  Biso   1.000  O
  O23      1.0000 0.22950  0.58590  0.44830  Biso   1.000  O
  O24      1.0000 0.32490  0.29700  0.63830  Biso   1.000  O
  O25      1.0000 0.88930  0.87840  0.12980  Biso   1.000  O
  O26      1.0000 0.88930  0.12160  0.87020  Biso   1.000  O
  O27      1.0000 0.77050  0.58590  0.44830  Biso   1.000  O
  O28      1.0000 0.67510  0.29700  0.63830  Biso   1.000  O
  O29      1.0000 0.77050  0.41410  0.55170  Biso   1.000  O
  O30      1.0000 0.67510  0.70300  0.36170  Biso   1.000  O
  O31      1.0000 0.00000  0.98630  0.78960  Biso   1.000  O
  O32      1.0000 0.00000  0.01370  0.21040  Biso   1.000  O
  O33      1.0000 0.50000  0.60160  0.46710  Biso   1.000  O
  O34      1.0000 0.50000  0.76540  0.26470  Biso   1.000  O
  O35      1.0000 0.50000  0.39840  0.53290  Biso   1.000  O
  O36      1.0000 0.50000  0.23460  0.73530  Biso   1.000  O
