data_image0
_cell_length_a       11.021
_cell_length_b       18.561
_cell_length_c       20.571
_cell_angle_alpha    90
_cell_angle_beta     90
_cell_angle_gamma    105.822

_symmetry_space_group_name_H-M    P 1
_symmetry_int_tables_number       1

loop_
  _symmetry_equiv_pos_as_xyz
  'x, y, z'

loop_
  _atom_site_label
  _atom_site_occupancy
  _atom_site_fract_x
  _atom_site_fract_y
  _atom_site_fract_z
  _atom_site_thermal_displace_type
  _atom_site_B_iso_or_equiv
  _atom_site_type_symbol
  Zn1      1.0000 0.95460  0.57798  0.89601  Biso   1.000  Zn
  Zn2      1.0000 0.04949  0.16619  0.35227  Biso   1.000  Zn
  Zn3      1.0000 0.04540  0.92202  0.39601  Biso   1.000  Zn
  Zn4      1.0000 0.95051  0.33381  0.85227  Biso   1.000  Zn
  Zn5      1.0000 0.04540  0.42202  0.10399  Biso   1.000  Zn
  Zn6      1.0000 0.95051  0.83381  0.64773  Biso   1.000  Zn
  Zn7      1.0000 0.95460  0.07798  0.60399  Biso   1.000  Zn
  Zn8      1.0000 0.04949  0.66619  0.14773  Biso   1.000  Zn
  H1       1.0000 0.92880  0.47190  0.77140  Biso   1.000  H
  H2       1.0000 0.08620  0.68540  0.78640  Biso   1.000  H
  H3       1.0000 0.09240  0.65250  0.67140  Biso   1.000  H
  H4       1.0000 0.00750  0.53640  0.60430  Biso   1.000  H
  H5       1.0000 0.90060  0.47370  0.63720  Biso   1.000  H
  H6       1.0000 0.04750  0.41090  0.67030  Biso   1.000  H
  H7       1.0000 0.15840  0.47550  0.64190  Biso   1.000  H
  H8       1.0000 0.96200  0.38810  0.56230  Biso   1.000  H
  H9       1.0000 0.08200  0.44750  0.53610  Biso   1.000  H
  H10      1.0000 0.07430  0.31000  0.59090  Biso   1.000  H
  H11      1.0000 0.20220  0.37170  0.58030  Biso   1.000  H
  H12      1.0000 0.01010  0.22090  0.49390  Biso   1.000  H
  H13      1.0000 0.21220  0.33710  0.35320  Biso   1.000  H
  H14      1.0000 0.23500  0.41930  0.44840  Biso   1.000  H
  H15      1.0000 0.84390  0.04600  0.42260  Biso   1.000  H
  H16      1.0000 0.78590  0.17570  0.28210  Biso   1.000  H
  H17      1.0000 0.58110  0.09790  0.31620  Biso   1.000  H
  H18      1.0000 0.61300  0.95300  0.42860  Biso   1.000  H
  H19      1.0000 0.50690  0.97930  0.39270  Biso   1.000  H
  H20      1.0000 0.52080  0.07290  0.47210  Biso   1.000  H
  H21      1.0000 0.62620  0.04590  0.50820  Biso   1.000  H
  H22      1.0000 0.63610  0.36120  0.85620  Biso   1.000  H
  H23      1.0000 0.46750  0.26060  0.87840  Biso   1.000  H
  H24      1.0000 0.59200  0.25330  0.05900  Biso   1.000  H
  H25      1.0000 0.36900  0.09460  0.10370  Biso   1.000  H
  H26      1.0000 0.27540  0.11330  0.19940  Biso   1.000  H
  H27      1.0000 0.31530  0.28560  0.03520  Biso   1.000  H
  H28      1.0000 0.07120  0.02810  0.27140  Biso   1.000  H
  H29      1.0000 0.91380  0.81460  0.28640  Biso   1.000  H
  H30      1.0000 0.90760  0.84750  0.17140  Biso   1.000  H
  H31      1.0000 0.99250  0.96360  0.10430  Biso   1.000  H
  H32      1.0000 0.09940  0.02630  0.13720  Biso   1.000  H
  H33      1.0000 0.95250  0.08910  0.17030  Biso   1.000  H
  H34      1.0000 0.84160  0.02450  0.14190  Biso   1.000  H
  H35      1.0000 0.03800  0.11190  0.06230  Biso   1.000  H
  H36      1.0000 0.91800  0.05250  0.03610  Biso   1.000  H
  H37      1.0000 0.92570  0.19000  0.09090  Biso   1.000  H
  H38      1.0000 0.79780  0.12830  0.08030  Biso   1.000  H
  H39      1.0000 0.98990  0.27910  0.99390  Biso   1.000  H
  H40      1.0000 0.78780  0.16290  0.85320  Biso   1.000  H
  H41      1.0000 0.76500  0.08070  0.94840  Biso   1.000  H
  H42      1.0000 0.15610  0.45400  0.92260  Biso   1.000  H
  H43      1.0000 0.21410  0.32430  0.78210  Biso   1.000  H
  H44      1.0000 0.41890  0.40210  0.81620  Biso   1.000  H
  H45      1.0000 0.38700  0.54700  0.92860  Biso   1.000  H
  H46      1.0000 0.49310  0.52070  0.89270  Biso   1.000  H
  H47      1.0000 0.47920  0.42710  0.97210  Biso   1.000  H
  H48      1.0000 0.37380  0.45410  0.00820  Biso   1.000  H
  H49      1.0000 0.36390  0.13880  0.35620  Biso   1.000  H
  H50      1.0000 0.53250  0.23940  0.37840  Biso   1.000  H
  H51      1.0000 0.40800  0.24670  0.55900  Biso   1.000  H
  H52      1.0000 0.63100  0.40540  0.60370  Biso   1.000  H
  H53      1.0000 0.72460  0.38670  0.69940  Biso   1.000  H
  H54      1.0000 0.68470  0.21440  0.53520  Biso   1.000  H
  H55      1.0000 0.07120  0.52810  0.22860  Biso   1.000  H
  H56      1.0000 0.91380  0.31460  0.21360  Biso   1.000  H
  H57      1.0000 0.90760  0.34750  0.32860  Biso   1.000  H
  H58      1.0000 0.99250  0.46360  0.39570  Biso   1.000  H
  H59      1.0000 0.09940  0.52630  0.36280  Biso   1.000  H
  H60      1.0000 0.95250  0.58910  0.32970  Biso   1.000  H
  H61      1.0000 0.84160  0.52450  0.35810  Biso   1.000  H
  H62      1.0000 0.03800  0.61190  0.43770  Biso   1.000  H
  H63      1.0000 0.91800  0.55250  0.46390  Biso   1.000  H
  H64      1.0000 0.92570  0.69000  0.40910  Biso   1.000  H
  H65      1.0000 0.79780  0.62830  0.41970  Biso   1.000  H
  H66      1.0000 0.98990  0.77910  0.50610  Biso   1.000  H
  H67      1.0000 0.78780  0.66290  0.64680  Biso   1.000  H
  H68      1.0000 0.76500  0.58070  0.55160  Biso   1.000  H
  H69      1.0000 0.15610  0.95400  0.57740  Biso   1.000  H
  H70      1.0000 0.21410  0.82430  0.71790  Biso   1.000  H
  H71      1.0000 0.41890  0.90210  0.68380  Biso   1.000  H
  H72      1.0000 0.38700  0.04700  0.57140  Biso   1.000  H
  H73      1.0000 0.49310  0.02070  0.60730  Biso   1.000  H
  H74      1.0000 0.47920  0.92710  0.52790  Biso   1.000  H
  H75      1.0000 0.37380  0.95410  0.49180  Biso   1.000  H
  H76      1.0000 0.36390  0.63880  0.14380  Biso   1.000  H
  H77      1.0000 0.53250  0.73940  0.12160  Biso   1.000  H
  H78      1.0000 0.40800  0.74670  0.94100  Biso   1.000  H
  H79      1.0000 0.63100  0.90540  0.89630  Biso   1.000  H
  H80      1.0000 0.72460  0.88670  0.80060  Biso   1.000  H
  H81      1.0000 0.68470  0.71440  0.96480  Biso   1.000  H
  H82      1.0000 0.92880  0.97190  0.72860  Biso   1.000  H
  H83      1.0000 0.08620  0.18540  0.71360  Biso   1.000  H
  H84      1.0000 0.09240  0.15250  0.82860  Biso   1.000  H
  H85      1.0000 0.00750  0.03640  0.89570  Biso   1.000  H
  H86      1.0000 0.90060  0.97370  0.86280  Biso   1.000  H
  H87      1.0000 0.04750  0.91090  0.82970  Biso   1.000  H
  H88      1.0000 0.15840  0.97550  0.85810  Biso   1.000  H
  H89      1.0000 0.96200  0.88810  0.93770  Biso   1.000  H
  H90      1.0000 0.08200  0.94750  0.96390  Biso   1.000  H
  H91      1.0000 0.07430  0.81000  0.90910  Biso   1.000  H
  H92      1.0000 0.20220  0.87170  0.91970  Biso   1.000  H
  H93      1.0000 0.01010  0.72090  0.00610  Biso   1.000  H
  H94      1.0000 0.21220  0.83710  0.14680  Biso   1.000  H
  H95      1.0000 0.23500  0.91930  0.05160  Biso   1.000  H
  H96      1.0000 0.84390  0.54600  0.07740  Biso   1.000  H
  H97      1.0000 0.78590  0.67570  0.21790  Biso   1.000  H
  H98      1.0000 0.58110  0.59790  0.18380  Biso   1.000  H
  H99      1.0000 0.61300  0.45300  0.07140  Biso   1.000  H
  H100     1.0000 0.50690  0.47930  0.10730  Biso   1.000  H
  H101     1.0000 0.52080  0.57290  0.02790  Biso   1.000  H
  H102     1.0000 0.62620  0.54590  0.99180  Biso   1.000  H
  H103     1.0000 0.63610  0.86120  0.64380  Biso   1.000  H
  H104     1.0000 0.46750  0.76060  0.62160  Biso   1.000  H
  H105     1.0000 0.59200  0.75330  0.44100  Biso   1.000  H
  H106     1.0000 0.36900  0.59460  0.39630  Biso   1.000  H
  H107     1.0000 0.27540  0.61330  0.30060  Biso   1.000  H
  H108     1.0000 0.31530  0.78560  0.46480  Biso   1.000  H
  C1       1.0000 0.97050  0.52130  0.76140  Biso   1.000  C
  C2       1.0000 0.05610  0.63780  0.76850  Biso   1.000  C
  C3       1.0000 0.05940  0.61980  0.70520  Biso   1.000  C
  C4       1.0000 0.98840  0.50210  0.64070  Biso   1.000  C
  C5       1.0000 0.07040  0.44830  0.63620  Biso   1.000  C
  C6       1.0000 0.05140  0.41010  0.56950  Biso   1.000  C
  C7       1.0000 0.11670  0.35260  0.56420  Biso   1.000  C
  C8       1.0000 0.06350  0.25970  0.47050  Biso   1.000  C
  C9       1.0000 0.17400  0.32410  0.39350  Biso   1.000  C
  C10      1.0000 0.18810  0.36940  0.44610  Biso   1.000  C
  C11      1.0000 0.80450  0.06840  0.39170  Biso   1.000  C
  C12      1.0000 0.77180  0.13960  0.31460  Biso   1.000  C
  C13      1.0000 0.65890  0.09690  0.33320  Biso   1.000  C
  C14      1.0000 0.58250  0.99620  0.41890  Biso   1.000  C
  C15      1.0000 0.55110  0.02960  0.48160  Biso   1.000  C
  C16      1.0000 0.82610  0.43330  0.92570  Biso   1.000  C
  C17      1.0000 0.71960  0.36790  0.94450  Biso   1.000  C
  C18      1.0000 0.62820  0.33940  0.89720  Biso   1.000  C
  C19      1.0000 0.52660  0.27940  0.91070  Biso   1.000  C
  C20      1.0000 0.51080  0.24680  0.97140  Biso   1.000  C
  C21      1.0000 0.60160  0.27460  0.01780  Biso   1.000  C
  C22      1.0000 0.70760  0.33390  0.00480  Biso   1.000  C
  C23      1.0000 0.80920  0.35400  0.05500  Biso   1.000  C
  C24      1.0000 0.40130  0.17760  0.98970  Biso   1.000  C
  C25      1.0000 0.28990  0.16420  0.94160  Biso   1.000  C
  C26      1.0000 0.45740  0.10910  0.98700  Biso   1.000  C
  C27      1.0000 0.34850  0.18750  0.05760  Biso   1.000  C
  C28      1.0000 0.33760  0.13600  0.10840  Biso   1.000  C
  C29      1.0000 0.28020  0.14710  0.16540  Biso   1.000  C
  C30      1.0000 0.22930  0.20700  0.17400  Biso   1.000  C
  C31      1.0000 0.15090  0.20860  0.23480  Biso   1.000  C
  C32      1.0000 0.24240  0.26000  0.12460  Biso   1.000  C
  C33      1.0000 0.19950  0.33000  0.13010  Biso   1.000  C
  C34      1.0000 0.30380  0.24950  0.06770  Biso   1.000  C
  C35      1.0000 0.02950  0.97870  0.26140  Biso   1.000  C
  C36      1.0000 0.94390  0.86220  0.26850  Biso   1.000  C
  C37      1.0000 0.94060  0.88020  0.20520  Biso   1.000  C
  C38      1.0000 0.01160  0.99790  0.14070  Biso   1.000  C
  C39      1.0000 0.92960  0.05170  0.13620  Biso   1.000  C
  C40      1.0000 0.94860  0.08990  0.06950  Biso   1.000  C
  C41      1.0000 0.88330  0.14740  0.06420  Biso   1.000  C
  C42      1.0000 0.93650  0.24030  0.97050  Biso   1.000  C
  C43      1.0000 0.82600  0.17590  0.89350  Biso   1.000  C
  C44      1.0000 0.81190  0.13060  0.94610  Biso   1.000  C
  C45      1.0000 0.19550  0.43160  0.89170  Biso   1.000  C
  C46      1.0000 0.22820  0.36040  0.81460  Biso   1.000  C
  C47      1.0000 0.34110  0.40310  0.83320  Biso   1.000  C
  C48      1.0000 0.41750  0.50380  0.91890  Biso   1.000  C
  C49      1.0000 0.44890  0.47040  0.98160  Biso   1.000  C
  C50      1.0000 0.17390  0.06670  0.42570  Biso   1.000  C
  C51      1.0000 0.28040  0.13210  0.44450  Biso   1.000  C
  C52      1.0000 0.37180  0.16060  0.39720  Biso   1.000  C
  C53      1.0000 0.47340  0.22060  0.41070  Biso   1.000  C
  C54      1.0000 0.48920  0.25320  0.47140  Biso   1.000  C
  C55      1.0000 0.39840  0.22540  0.51780  Biso   1.000  C
  C56      1.0000 0.29240  0.16610  0.50480  Biso   1.000  C
  C57      1.0000 0.19080  0.14600  0.55500  Biso   1.000  C
  C58      1.0000 0.59870  0.32240  0.48970  Biso   1.000  C
  C59      1.0000 0.71010  0.33580  0.44160  Biso   1.000  C
  C60      1.0000 0.54260  0.39090  0.48700  Biso   1.000  C
  C61      1.0000 0.65150  0.31250  0.55760  Biso   1.000  C
  C62      1.0000 0.66240  0.36400  0.60840  Biso   1.000  C
  C63      1.0000 0.71980  0.35290  0.66540  Biso   1.000  C
  C64      1.0000 0.77070  0.29300  0.67400  Biso   1.000  C
  C65      1.0000 0.84910  0.29140  0.73480  Biso   1.000  C
  C66      1.0000 0.75760  0.24000  0.62460  Biso   1.000  C
  C67      1.0000 0.80050  0.17000  0.63010  Biso   1.000  C
  C68      1.0000 0.69620  0.25050  0.56770  Biso   1.000  C
  C69      1.0000 0.02950  0.47870  0.23860  Biso   1.000  C
  C70      1.0000 0.94390  0.36220  0.23150  Biso   1.000  C
  C71      1.0000 0.94060  0.38020  0.29480  Biso   1.000  C
  C72      1.0000 0.01160  0.49790  0.35930  Biso   1.000  C
  C73      1.0000 0.92960  0.55170  0.36380  Biso   1.000  C
  C74      1.0000 0.94860  0.58990  0.43050  Biso   1.000  C
  C75      1.0000 0.88330  0.64740  0.43580  Biso   1.000  C
  C76      1.0000 0.93650  0.74030  0.52950  Biso   1.000  C
  C77      1.0000 0.82600  0.67590  0.60650  Biso   1.000  C
  C78      1.0000 0.81190  0.63060  0.55390  Biso   1.000  C
  C79      1.0000 0.19550  0.93160  0.60830  Biso   1.000  C
  C80      1.0000 0.22820  0.86040  0.68540  Biso   1.000  C
  C81      1.0000 0.34110  0.90310  0.66680  Biso   1.000  C
  C82      1.0000 0.41750  0.00380  0.58110  Biso   1.000  C
  C83      1.0000 0.44890  0.97040  0.51840  Biso   1.000  C
  C84      1.0000 0.17390  0.56670  0.07430  Biso   1.000  C
  C85      1.0000 0.28040  0.63210  0.05550  Biso   1.000  C
  C86      1.0000 0.37180  0.66060  0.10280  Biso   1.000  C
  C87      1.0000 0.47340  0.72060  0.08930  Biso   1.000  C
  C88      1.0000 0.48920  0.75320  0.02860  Biso   1.000  C
  C89      1.0000 0.39840  0.72540  0.98220  Biso   1.000  C
  C90      1.0000 0.29240  0.66610  0.99520  Biso   1.000  C
  C91      1.0000 0.19080  0.64600  0.94500  Biso   1.000  C
  C92      1.0000 0.59870  0.82240  0.01030  Biso   1.000  C
  C93      1.0000 0.71010  0.83580  0.05840  Biso   1.000  C
  C94      1.0000 0.54260  0.89090  0.01300  Biso   1.000  C
  C95      1.0000 0.65150  0.81250  0.94240  Biso   1.000  C
  C96      1.0000 0.66240  0.86400  0.89160  Biso   1.000  C
  C97      1.0000 0.71980  0.85290  0.83460  Biso   1.000  C
  C98      1.0000 0.77070  0.79300  0.82600  Biso   1.000  C
  C99      1.0000 0.84910  0.79140  0.76520  Biso   1.000  C
  C100     1.0000 0.75760  0.74000  0.87540  Biso   1.000  C
  C101     1.0000 0.80050  0.67000  0.86990  Biso   1.000  C
  C102     1.0000 0.69620  0.75050  0.93230  Biso   1.000  C
  C103     1.0000 0.97050  0.02130  0.73860  Biso   1.000  C
  C104     1.0000 0.05610  0.13780  0.73150  Biso   1.000  C
  C105     1.0000 0.05940  0.11980  0.79480  Biso   1.000  C
  C106     1.0000 0.98840  0.00210  0.85930  Biso   1.000  C
  C107     1.0000 0.07040  0.94830  0.86380  Biso   1.000  C
  C108     1.0000 0.05140  0.91010  0.93050  Biso   1.000  C
  C109     1.0000 0.11670  0.85260  0.93580  Biso   1.000  C
  C110     1.0000 0.06350  0.75970  0.02950  Biso   1.000  C
  C111     1.0000 0.17400  0.82410  0.10650  Biso   1.000  C
  C112     1.0000 0.18810  0.86940  0.05390  Biso   1.000  C
  C113     1.0000 0.80450  0.56840  0.10830  Biso   1.000  C
  C114     1.0000 0.77180  0.63960  0.18540  Biso   1.000  C
  C115     1.0000 0.65890  0.59690  0.16680  Biso   1.000  C
  C116     1.0000 0.58250  0.49620  0.08110  Biso   1.000  C
  C117     1.0000 0.55110  0.52960  0.01840  Biso   1.000  C
  C118     1.0000 0.82610  0.93330  0.57430  Biso   1.000  C
  C119     1.0000 0.71960  0.86790  0.55550  Biso   1.000  C
  C120     1.0000 0.62820  0.83940  0.60280  Biso   1.000  C
  C121     1.0000 0.52660  0.77940  0.58930  Biso   1.000  C
  C122     1.0000 0.51080  0.74680  0.52860  Biso   1.000  C
  C123     1.0000 0.60160  0.77460  0.48220  Biso   1.000  C
  C124     1.0000 0.70760  0.83390  0.49520  Biso   1.000  C
  C125     1.0000 0.80920  0.85400  0.44500  Biso   1.000  C
  C126     1.0000 0.40130  0.67760  0.51030  Biso   1.000  C
  C127     1.0000 0.28990  0.66420  0.55840  Biso   1.000  C
  C128     1.0000 0.45740  0.60910  0.51300  Biso   1.000  C
  C129     1.0000 0.34850  0.68750  0.44240  Biso   1.000  C
  C130     1.0000 0.33760  0.63600  0.39160  Biso   1.000  C
  C131     1.0000 0.28020  0.64710  0.33460  Biso   1.000  C
  C132     1.0000 0.22930  0.70700  0.32600  Biso   1.000  C
  C133     1.0000 0.15090  0.70860  0.26520  Biso   1.000  C
  C134     1.0000 0.24240  0.76000  0.37540  Biso   1.000  C
  C135     1.0000 0.19950  0.83000  0.36990  Biso   1.000  C
  C136     1.0000 0.30380  0.74950  0.43230  Biso   1.000  C
  N1       1.0000 0.99840  0.57100  0.80300  Biso   1.000  N
  N2       1.0000 0.00530  0.54450  0.69980  Biso   1.000  N
  N3       1.0000 0.12010  0.32770  0.49490  Biso   1.000  N
  N4       1.0000 0.09380  0.25530  0.40940  Biso   1.000  N
  N5       1.0000 0.86350  0.12170  0.35090  Biso   1.000  N
  N6       1.0000 0.67930  0.05150  0.38190  Biso   1.000  N
  N7       1.0000 0.00160  0.92900  0.30300  Biso   1.000  N
  N8       1.0000 0.99470  0.95550  0.19980  Biso   1.000  N
  N9       1.0000 0.87990  0.17230  0.99490  Biso   1.000  N
  N10      1.0000 0.90620  0.24470  0.90940  Biso   1.000  N
  N11      1.0000 0.13650  0.37830  0.85090  Biso   1.000  N
  N12      1.0000 0.32070  0.44850  0.88190  Biso   1.000  N
  N13      1.0000 0.00160  0.42900  0.19700  Biso   1.000  N
  N14      1.0000 0.99470  0.45550  0.30020  Biso   1.000  N
  N15      1.0000 0.87990  0.67230  0.50510  Biso   1.000  N
  N16      1.0000 0.90620  0.74470  0.59060  Biso   1.000  N
  N17      1.0000 0.13650  0.87830  0.64910  Biso   1.000  N
  N18      1.0000 0.32070  0.94850  0.61810  Biso   1.000  N
  N19      1.0000 0.99840  0.07100  0.69700  Biso   1.000  N
  N20      1.0000 0.00530  0.04450  0.80020  Biso   1.000  N
  N21      1.0000 0.12010  0.82770  0.00510  Biso   1.000  N
  N22      1.0000 0.09380  0.75530  0.09060  Biso   1.000  N
  N23      1.0000 0.86350  0.62170  0.14910  Biso   1.000  N
  N24      1.0000 0.67930  0.55150  0.11810  Biso   1.000  N
  O1       1.0000 0.91950  0.42380  0.89568  Biso   1.000  O
  O2       1.0000 0.81560  0.49780  0.93693  Biso   1.000  O
  O3       1.0000 0.90380  0.40690  0.04262  Biso   1.000  O
  O4       1.0000 0.80270  0.31210  0.10240  Biso   1.000  O
  O5       1.0000 0.16130  0.16700  0.27930  Biso   1.000  O
  O6       1.0000 0.06850  0.23890  0.23510  Biso   1.000  O
  O7       1.0000 0.25680  0.38020  0.16430  Biso   1.000  O
  O8       1.0000 0.10680  0.33190  0.09430  Biso   1.000  O
  O9       1.0000 0.08050  0.07620  0.39568  Biso   1.000  O
  O10      1.0000 0.18440  0.00220  0.43693  Biso   1.000  O
  O11      1.0000 0.09620  0.09310  0.54262  Biso   1.000  O
  O12      1.0000 0.19730  0.18790  0.60240  Biso   1.000  O
  O13      1.0000 0.83870  0.33300  0.77930  Biso   1.000  O
  O14      1.0000 0.93150  0.26110  0.73510  Biso   1.000  O
  O15      1.0000 0.74320  0.11980  0.66430  Biso   1.000  O
  O16      1.0000 0.89320  0.16810  0.59430  Biso   1.000  O
  O17      1.0000 0.08050  0.57620  0.10432  Biso   1.000  O
  O18      1.0000 0.18440  0.50220  0.06307  Biso   1.000  O
  O19      1.0000 0.09620  0.59310  0.95738  Biso   1.000  O
  O20      1.0000 0.19730  0.68790  0.89760  Biso   1.000  O
  O21      1.0000 0.83870  0.83300  0.72070  Biso   1.000  O
  O22      1.0000 0.93150  0.76110  0.76490  Biso   1.000  O
  O23      1.0000 0.74320  0.61980  0.83570  Biso   1.000  O
  O24      1.0000 0.89320  0.66810  0.90570  Biso   1.000  O
  O25      1.0000 0.91950  0.92380  0.60432  Biso   1.000  O
  O26      1.0000 0.81560  0.99780  0.56307  Biso   1.000  O
  O27      1.0000 0.90380  0.90690  0.45738  Biso   1.000  O
  O28      1.0000 0.80270  0.81210  0.39760  Biso   1.000  O
  O29      1.0000 0.16130  0.66700  0.22070  Biso   1.000  O
  O30      1.0000 0.06850  0.73890  0.26490  Biso   1.000  O
  O31      1.0000 0.25680  0.88020  0.33570  Biso   1.000  O
  O32      1.0000 0.10680  0.83190  0.40570  Biso   1.000  O
  F1       1.0000 0.25270  0.22490  0.93114  Biso   1.000  F
  F2       1.0000 0.18990  0.11160  0.96480  Biso   1.000  F
  F3       1.0000 0.31580  0.13890  0.88339  Biso   1.000  F
  F4       1.0000 0.51100  0.10500  0.92880  Biso   1.000  F
  F5       1.0000 0.36760  0.04410  0.99320  Biso   1.000  F
  F6       1.0000 0.54190  0.11130  0.03130  Biso   1.000  F
  F7       1.0000 0.74730  0.27510  0.43114  Biso   1.000  F
  F8       1.0000 0.81010  0.38840  0.46480  Biso   1.000  F
  F9       1.0000 0.68420  0.36110  0.38339  Biso   1.000  F
  F10      1.0000 0.48900  0.39500  0.42880  Biso   1.000  F
  F11      1.0000 0.63240  0.45590  0.49320  Biso   1.000  F
  F12      1.0000 0.45810  0.38870  0.53130  Biso   1.000  F
  F13      1.0000 0.74730  0.77510  0.06886  Biso   1.000  F
  F14      1.0000 0.81010  0.88840  0.03520  Biso   1.000  F
  F15      1.0000 0.68420  0.86110  0.11661  Biso   1.000  F
  F16      1.0000 0.48900  0.89500  0.07120  Biso   1.000  F
  F17      1.0000 0.63240  0.95590  0.00680  Biso   1.000  F
  F18      1.0000 0.45810  0.88870  0.96870  Biso   1.000  F
  F19      1.0000 0.25270  0.72490  0.56886  Biso   1.000  F
  F20      1.0000 0.18990  0.61160  0.53520  Biso   1.000  F
  F21      1.0000 0.31580  0.63890  0.61661  Biso   1.000  F
  F22      1.0000 0.51100  0.60500  0.57120  Biso   1.000  F
  F23      1.0000 0.36760  0.54410  0.50680  Biso   1.000  F
  F24      1.0000 0.54190  0.61130  0.46870  Biso   1.000  F
