data_image0
_cell_length_a       7.131
_cell_length_b       20.891
_cell_length_c       27.845
_cell_angle_alpha    107.853
_cell_angle_beta     90
_cell_angle_gamma    90

_symmetry_space_group_name_H-M    P 1
_symmetry_int_tables_number       1

loop_
  _symmetry_equiv_pos_as_xyz
  'x, y, z'

loop_
  _atom_site_label
  _atom_site_occupancy
  _atom_site_fract_x
  _atom_site_fract_y
  _atom_site_fract_z
  _atom_site_thermal_displace_type
  _atom_site_B_iso_or_equiv
  _atom_site_type_symbol
  Nd1      1.0000 0.87579  0.90940  0.66026  Biso   1.000  Nd
  Nd2      1.0000 0.08219  0.74538  0.20476  Biso   1.000  Nd
  Nd3      1.0000 0.37579  0.09060  0.83974  Biso   1.000  Nd
  Nd4      1.0000 0.58219  0.25462  0.29524  Biso   1.000  Nd
  Nd5      1.0000 0.12421  0.09060  0.33974  Biso   1.000  Nd
  Nd6      1.0000 0.91781  0.25462  0.79524  Biso   1.000  Nd
  Nd7      1.0000 0.62421  0.90940  0.16026  Biso   1.000  Nd
  Nd8      1.0000 0.41781  0.74538  0.70476  Biso   1.000  Nd
  P1       1.0000 0.95510  0.91773  0.27221  Biso   1.000  P
  P2       1.0000 0.91890  0.74832  0.67741  Biso   1.000  P
  P3       1.0000 0.38040  0.86260  0.62461  Biso   1.000  P
  P4       1.0000 0.45510  0.08227  0.22779  Biso   1.000  P
  P5       1.0000 0.41890  0.25168  0.82259  Biso   1.000  P
  P6       1.0000 0.88040  0.13740  0.87539  Biso   1.000  P
  P7       1.0000 0.04490  0.08227  0.72779  Biso   1.000  P
  P8       1.0000 0.08110  0.25168  0.32259  Biso   1.000  P
  P9       1.0000 0.61960  0.13740  0.37539  Biso   1.000  P
  P10      1.0000 0.54490  0.91773  0.77221  Biso   1.000  P
  P11      1.0000 0.58110  0.74832  0.17741  Biso   1.000  P
  P12      1.0000 0.11960  0.86260  0.12461  Biso   1.000  P
  H1       1.0000 0.64650  0.98730  0.32330  Biso   1.000  H
  H2       1.0000 0.81810  0.61930  0.68550  Biso   1.000  H
  H3       1.0000 0.02200  0.61840  0.68680  Biso   1.000  H
  H4       1.0000 0.07720  0.79300  0.54770  Biso   1.000  H
  H5       1.0000 0.16360  0.76460  0.58380  Biso   1.000  H
  H6       1.0000 0.87760  0.90130  0.34870  Biso   1.000  H
  H7       1.0000 0.74660  0.85730  0.30590  Biso   1.000  H
  H8       1.0000 0.43220  0.98120  0.38250  Biso   1.000  H
  H9       1.0000 0.44320  0.90330  0.35640  Biso   1.000  H
  H10      1.0000 0.55420  0.83600  0.40340  Biso   1.000  H
  H11      1.0000 0.68400  0.82310  0.47650  Biso   1.000  H
  H12      1.0000 0.81940  0.01790  0.52230  Biso   1.000  H
  H13      1.0000 0.69190  0.03060  0.44950  Biso   1.000  H
  H14      1.0000 0.82350  0.65320  0.61420  Biso   1.000  H
  H15      1.0000 0.04280  0.65480  0.61790  Biso   1.000  H
  H16      1.0000 0.03160  0.53290  0.61070  Biso   1.000  H
  H17      1.0000 0.81150  0.53310  0.61070  Biso   1.000  H
  H18      1.0000 0.64140  0.49270  0.67310  Biso   1.000  H
  H19      1.0000 0.64000  0.42930  0.72800  Biso   1.000  H
  H20      1.0000 0.19830  0.40650  0.71170  Biso   1.000  H
  H21      1.0000 0.19780  0.47300  0.65920  Biso   1.000  H
  H22      1.0000 0.99380  0.76290  0.37910  Biso   1.000  H
  H23      1.0000 0.95920  0.74810  0.45780  Biso   1.000  H
  H24      1.0000 0.29950  0.68050  0.52140  Biso   1.000  H
  H25      1.0000 0.08110  0.67950  0.51440  Biso   1.000  H
  H26      1.0000 0.45570  0.79100  0.54390  Biso   1.000  H
  H27      1.0000 0.32170  0.84850  0.53900  Biso   1.000  H
  H28      1.0000 0.48070  0.67790  0.45030  Biso   1.000  H
  H29      1.0000 0.52210  0.69640  0.37280  Biso   1.000  H
  H30      1.0000 0.45220  0.74830  0.27480  Biso   1.000  H
  H31      1.0000 0.00740  0.90820  0.76520  Biso   1.000  H
  H32      1.0000 0.17250  0.89660  0.73700  Biso   1.000  H
  H33      1.0000 0.07400  0.67440  0.08970  Biso   1.000  H
  H34      1.0000 0.97590  0.63030  0.10920  Biso   1.000  H
  H35      1.0000 0.14650  0.01270  0.17670  Biso   1.000  H
  H36      1.0000 0.31810  0.38070  0.81450  Biso   1.000  H
  H37      1.0000 0.52200  0.38160  0.81320  Biso   1.000  H
  H38      1.0000 0.57720  0.20700  0.95230  Biso   1.000  H
  H39      1.0000 0.66360  0.23540  0.91620  Biso   1.000  H
  H40      1.0000 0.37760  0.09870  0.15130  Biso   1.000  H
  H41      1.0000 0.24660  0.14270  0.19410  Biso   1.000  H
  H42      1.0000 0.93220  0.01880  0.11750  Biso   1.000  H
  H43      1.0000 0.94320  0.09670  0.14360  Biso   1.000  H
  H44      1.0000 0.05420  0.16400  0.09660  Biso   1.000  H
  H45      1.0000 0.18400  0.17690  0.02350  Biso   1.000  H
  H46      1.0000 0.31940  0.98210  0.97770  Biso   1.000  H
  H47      1.0000 0.19190  0.96940  0.05050  Biso   1.000  H
  H48      1.0000 0.32350  0.34680  0.88580  Biso   1.000  H
  H49      1.0000 0.54280  0.34520  0.88210  Biso   1.000  H
  H50      1.0000 0.53160  0.46710  0.88930  Biso   1.000  H
  H51      1.0000 0.31150  0.46690  0.88930  Biso   1.000  H
  H52      1.0000 0.14140  0.50730  0.82690  Biso   1.000  H
  H53      1.0000 0.14000  0.57070  0.77200  Biso   1.000  H
  H54      1.0000 0.69830  0.59350  0.78830  Biso   1.000  H
  H55      1.0000 0.69780  0.52700  0.84080  Biso   1.000  H
  H56      1.0000 0.49380  0.23710  0.12090  Biso   1.000  H
  H57      1.0000 0.45920  0.25190  0.04220  Biso   1.000  H
  H58      1.0000 0.79950  0.31950  0.97860  Biso   1.000  H
  H59      1.0000 0.58110  0.32050  0.98560  Biso   1.000  H
  H60      1.0000 0.95570  0.20900  0.95610  Biso   1.000  H
  H61      1.0000 0.82170  0.15150  0.96100  Biso   1.000  H
  H62      1.0000 0.98070  0.32210  0.04970  Biso   1.000  H
  H63      1.0000 0.02210  0.30360  0.12720  Biso   1.000  H
  H64      1.0000 0.95220  0.25170  0.22520  Biso   1.000  H
  H65      1.0000 0.50740  0.09180  0.73480  Biso   1.000  H
  H66      1.0000 0.67250  0.10340  0.76300  Biso   1.000  H
  H67      1.0000 0.57400  0.32560  0.41030  Biso   1.000  H
  H68      1.0000 0.47590  0.36970  0.39080  Biso   1.000  H
  H69      1.0000 0.35350  0.01270  0.67670  Biso   1.000  H
  H70      1.0000 0.18190  0.38070  0.31450  Biso   1.000  H
  H71      1.0000 0.97800  0.38160  0.31320  Biso   1.000  H
  H72      1.0000 0.92280  0.20700  0.45230  Biso   1.000  H
  H73      1.0000 0.83640  0.23540  0.41620  Biso   1.000  H
  H74      1.0000 0.12240  0.09870  0.65130  Biso   1.000  H
  H75      1.0000 0.25340  0.14270  0.69410  Biso   1.000  H
  H76      1.0000 0.56780  0.01880  0.61750  Biso   1.000  H
  H77      1.0000 0.55680  0.09670  0.64360  Biso   1.000  H
  H78      1.0000 0.44580  0.16400  0.59660  Biso   1.000  H
  H79      1.0000 0.31600  0.17690  0.52350  Biso   1.000  H
  H80      1.0000 0.18060  0.98210  0.47770  Biso   1.000  H
  H81      1.0000 0.30810  0.96940  0.55050  Biso   1.000  H
  H82      1.0000 0.17650  0.34680  0.38580  Biso   1.000  H
  H83      1.0000 0.95720  0.34520  0.38210  Biso   1.000  H
  H84      1.0000 0.96840  0.46710  0.38930  Biso   1.000  H
  H85      1.0000 0.18850  0.46690  0.38930  Biso   1.000  H
  H86      1.0000 0.35860  0.50730  0.32690  Biso   1.000  H
  H87      1.0000 0.36000  0.57070  0.27200  Biso   1.000  H
  H88      1.0000 0.80170  0.59350  0.28830  Biso   1.000  H
  H89      1.0000 0.80220  0.52700  0.34080  Biso   1.000  H
  H90      1.0000 0.00620  0.23710  0.62090  Biso   1.000  H
  H91      1.0000 0.04080  0.25190  0.54220  Biso   1.000  H
  H92      1.0000 0.70050  0.31950  0.47860  Biso   1.000  H
  H93      1.0000 0.91890  0.32050  0.48560  Biso   1.000  H
  H94      1.0000 0.54430  0.20900  0.45610  Biso   1.000  H
  H95      1.0000 0.67830  0.15150  0.46100  Biso   1.000  H
  H96      1.0000 0.51930  0.32210  0.54970  Biso   1.000  H
  H97      1.0000 0.47790  0.30360  0.62720  Biso   1.000  H
  H98      1.0000 0.54780  0.25170  0.72520  Biso   1.000  H
  H99      1.0000 0.99260  0.09180  0.23480  Biso   1.000  H
  H100     1.0000 0.82750  0.10340  0.26300  Biso   1.000  H
  H101     1.0000 0.92600  0.32560  0.91030  Biso   1.000  H
  H102     1.0000 0.02410  0.36970  0.89080  Biso   1.000  H
  H103     1.0000 0.85350  0.98730  0.82330  Biso   1.000  H
  H104     1.0000 0.68190  0.61930  0.18550  Biso   1.000  H
  H105     1.0000 0.47800  0.61840  0.18680  Biso   1.000  H
  H106     1.0000 0.42280  0.79300  0.04770  Biso   1.000  H
  H107     1.0000 0.33640  0.76460  0.08380  Biso   1.000  H
  H108     1.0000 0.62240  0.90130  0.84870  Biso   1.000  H
  H109     1.0000 0.75340  0.85730  0.80590  Biso   1.000  H
  H110     1.0000 0.06780  0.98120  0.88250  Biso   1.000  H
  H111     1.0000 0.05680  0.90330  0.85640  Biso   1.000  H
  H112     1.0000 0.94580  0.83600  0.90340  Biso   1.000  H
  H113     1.0000 0.81600  0.82310  0.97650  Biso   1.000  H
  H114     1.0000 0.68060  0.01790  0.02230  Biso   1.000  H
  H115     1.0000 0.80810  0.03060  0.94950  Biso   1.000  H
  H116     1.0000 0.67650  0.65320  0.11420  Biso   1.000  H
  H117     1.0000 0.45720  0.65480  0.11790  Biso   1.000  H
  H118     1.0000 0.46840  0.53290  0.11070  Biso   1.000  H
  H119     1.0000 0.68850  0.53310  0.11070  Biso   1.000  H
  H120     1.0000 0.85860  0.49270  0.17310  Biso   1.000  H
  H121     1.0000 0.86000  0.42930  0.22800  Biso   1.000  H
  H122     1.0000 0.30170  0.40650  0.21170  Biso   1.000  H
  H123     1.0000 0.30220  0.47300  0.15920  Biso   1.000  H
  H124     1.0000 0.50620  0.76290  0.87910  Biso   1.000  H
  H125     1.0000 0.54080  0.74810  0.95780  Biso   1.000  H
  H126     1.0000 0.20050  0.68050  0.02140  Biso   1.000  H
  H127     1.0000 0.41890  0.67950  0.01440  Biso   1.000  H
  H128     1.0000 0.04430  0.79100  0.04390  Biso   1.000  H
  H129     1.0000 0.17830  0.84850  0.03900  Biso   1.000  H
  H130     1.0000 0.01930  0.67790  0.95030  Biso   1.000  H
  H131     1.0000 0.97790  0.69640  0.87280  Biso   1.000  H
  H132     1.0000 0.04780  0.74830  0.77480  Biso   1.000  H
  H133     1.0000 0.49260  0.90820  0.26520  Biso   1.000  H
  H134     1.0000 0.32750  0.89660  0.23700  Biso   1.000  H
  H135     1.0000 0.42600  0.67440  0.58970  Biso   1.000  H
  H136     1.0000 0.52410  0.63030  0.60920  Biso   1.000  H
  C1       1.0000 0.80370  0.90130  0.31950  Biso   1.000  C
  C2       1.0000 0.51710  0.94310  0.37250  Biso   1.000  C
  C3       1.0000 0.60990  0.93480  0.41940  Biso   1.000  C
  C4       1.0000 0.60780  0.87270  0.42730  Biso   1.000  C
  C5       1.0000 0.68610  0.86490  0.47120  Biso   1.000  C
  C6       1.0000 0.76650  0.91930  0.50680  Biso   1.000  C
  C7       1.0000 0.76680  0.98100  0.49840  Biso   1.000  C
  C8       1.0000 0.68960  0.98870  0.45480  Biso   1.000  C
  C9       1.0000 0.84810  0.91120  0.55510  Biso   1.000  C
  C10      1.0000 0.92820  0.66160  0.63760  Biso   1.000  C
  C11      1.0000 0.92140  0.54060  0.63220  Biso   1.000  C
  C12      1.0000 0.92060  0.49150  0.66260  Biso   1.000  C
  C13      1.0000 0.75380  0.47690  0.68210  Biso   1.000  C
  C14      1.0000 0.75290  0.43900  0.71500  Biso   1.000  C
  C15      1.0000 0.92120  0.41520  0.72870  Biso   1.000  C
  C16      1.0000 0.08690  0.42580  0.70550  Biso   1.000  C
  C17      1.0000 0.08610  0.46470  0.67350  Biso   1.000  C
  C18      1.0000 0.92380  0.37850  0.76690  Biso   1.000  C
  C19      1.0000 0.28190  0.74380  0.31920  Biso   1.000  C
  C20      1.0000 0.26240  0.73230  0.36940  Biso   1.000  C
  C21      1.0000 0.09320  0.74700  0.39380  Biso   1.000  C
  C22      1.0000 0.07270  0.73780  0.44080  Biso   1.000  C
  C23      1.0000 0.21940  0.71360  0.46230  Biso   1.000  C
  C24      1.0000 0.19400  0.70530  0.51410  Biso   1.000  C
  C25      1.0000 0.34500  0.81710  0.55770  Biso   1.000  C
  C26      1.0000 0.38400  0.69650  0.43650  Biso   1.000  C
  C27      1.0000 0.40860  0.70670  0.38980  Biso   1.000  C
  C28      1.0000 0.30370  0.09870  0.18050  Biso   1.000  C
  C29      1.0000 0.01710  0.05690  0.12750  Biso   1.000  C
  C30      1.0000 0.10990  0.06520  0.08060  Biso   1.000  C
  C31      1.0000 0.10780  0.12730  0.07270  Biso   1.000  C
  C32      1.0000 0.18610  0.13510  0.02880  Biso   1.000  C
  C33      1.0000 0.26650  0.08070  0.99320  Biso   1.000  C
  C34      1.0000 0.26680  0.01900  0.00160  Biso   1.000  C
  C35      1.0000 0.18960  0.01130  0.04520  Biso   1.000  C
  C36      1.0000 0.34810  0.08880  0.94490  Biso   1.000  C
  C37      1.0000 0.42820  0.33840  0.86240  Biso   1.000  C
  C38      1.0000 0.42140  0.45940  0.86780  Biso   1.000  C
  C39      1.0000 0.42060  0.50850  0.83740  Biso   1.000  C
  C40      1.0000 0.25380  0.52310  0.81790  Biso   1.000  C
  C41      1.0000 0.25290  0.56100  0.78500  Biso   1.000  C
  C42      1.0000 0.42120  0.58480  0.77130  Biso   1.000  C
  C43      1.0000 0.58690  0.57420  0.79450  Biso   1.000  C
  C44      1.0000 0.58610  0.53530  0.82650  Biso   1.000  C
  C45      1.0000 0.42380  0.62150  0.73310  Biso   1.000  C
  C46      1.0000 0.78190  0.25620  0.18080  Biso   1.000  C
  C47      1.0000 0.76240  0.26770  0.13060  Biso   1.000  C
  C48      1.0000 0.59320  0.25300  0.10620  Biso   1.000  C
  C49      1.0000 0.57270  0.26220  0.05920  Biso   1.000  C
  C50      1.0000 0.71940  0.28640  0.03770  Biso   1.000  C
  C51      1.0000 0.69400  0.29470  0.98590  Biso   1.000  C
  C52      1.0000 0.84500  0.18290  0.94230  Biso   1.000  C
  C53      1.0000 0.88400  0.30350  0.06350  Biso   1.000  C
  C54      1.0000 0.90860  0.29330  0.11020  Biso   1.000  C
  C55      1.0000 0.19630  0.09870  0.68050  Biso   1.000  C
  C56      1.0000 0.48290  0.05690  0.62750  Biso   1.000  C
  C57      1.0000 0.39010  0.06520  0.58060  Biso   1.000  C
  C58      1.0000 0.39220  0.12730  0.57270  Biso   1.000  C
  C59      1.0000 0.31390  0.13510  0.52880  Biso   1.000  C
  C60      1.0000 0.23350  0.08070  0.49320  Biso   1.000  C
  C61      1.0000 0.23320  0.01900  0.50160  Biso   1.000  C
  C62      1.0000 0.31040  0.01130  0.54520  Biso   1.000  C
  C63      1.0000 0.15190  0.08880  0.44490  Biso   1.000  C
  C64      1.0000 0.07180  0.33840  0.36240  Biso   1.000  C
  C65      1.0000 0.07860  0.45940  0.36780  Biso   1.000  C
  C66      1.0000 0.07940  0.50850  0.33740  Biso   1.000  C
  C67      1.0000 0.24620  0.52310  0.31790  Biso   1.000  C
  C68      1.0000 0.24710  0.56100  0.28500  Biso   1.000  C
  C69      1.0000 0.07880  0.58480  0.27130  Biso   1.000  C
  C70      1.0000 0.91310  0.57420  0.29450  Biso   1.000  C
  C71      1.0000 0.91390  0.53530  0.32650  Biso   1.000  C
  C72      1.0000 0.07620  0.62150  0.23310  Biso   1.000  C
  C73      1.0000 0.71810  0.25620  0.68080  Biso   1.000  C
  C74      1.0000 0.73760  0.26770  0.63060  Biso   1.000  C
  C75      1.0000 0.90680  0.25300  0.60620  Biso   1.000  C
  C76      1.0000 0.92730  0.26220  0.55920  Biso   1.000  C
  C77      1.0000 0.78060  0.28640  0.53770  Biso   1.000  C
  C78      1.0000 0.80600  0.29470  0.48590  Biso   1.000  C
  C79      1.0000 0.65500  0.18290  0.44230  Biso   1.000  C
  C80      1.0000 0.61600  0.30350  0.56350  Biso   1.000  C
  C81      1.0000 0.59140  0.29330  0.61020  Biso   1.000  C
  C82      1.0000 0.69630  0.90130  0.81950  Biso   1.000  C
  C83      1.0000 0.98290  0.94310  0.87250  Biso   1.000  C
  C84      1.0000 0.89010  0.93480  0.91940  Biso   1.000  C
  C85      1.0000 0.89220  0.87270  0.92730  Biso   1.000  C
  C86      1.0000 0.81390  0.86490  0.97120  Biso   1.000  C
  C87      1.0000 0.73350  0.91930  0.00680  Biso   1.000  C
  C88      1.0000 0.73320  0.98100  0.99840  Biso   1.000  C
  C89      1.0000 0.81040  0.98870  0.95480  Biso   1.000  C
  C90      1.0000 0.65190  0.91120  0.05510  Biso   1.000  C
  C91      1.0000 0.57180  0.66160  0.13760  Biso   1.000  C
  C92      1.0000 0.57860  0.54060  0.13220  Biso   1.000  C
  C93      1.0000 0.57940  0.49150  0.16260  Biso   1.000  C
  C94      1.0000 0.74620  0.47690  0.18210  Biso   1.000  C
  C95      1.0000 0.74710  0.43900  0.21500  Biso   1.000  C
  C96      1.0000 0.57880  0.41520  0.22870  Biso   1.000  C
  C97      1.0000 0.41310  0.42580  0.20550  Biso   1.000  C
  C98      1.0000 0.41390  0.46470  0.17350  Biso   1.000  C
  C99      1.0000 0.57620  0.37850  0.26690  Biso   1.000  C
  C100     1.0000 0.21810  0.74380  0.81920  Biso   1.000  C
  C101     1.0000 0.23760  0.73230  0.86940  Biso   1.000  C
  C102     1.0000 0.40680  0.74700  0.89380  Biso   1.000  C
  C103     1.0000 0.42730  0.73780  0.94080  Biso   1.000  C
  C104     1.0000 0.28060  0.71360  0.96230  Biso   1.000  C
  C105     1.0000 0.30600  0.70530  0.01410  Biso   1.000  C
  C106     1.0000 0.15500  0.81710  0.05770  Biso   1.000  C
  C107     1.0000 0.11600  0.69650  0.93650  Biso   1.000  C
  C108     1.0000 0.09140  0.70670  0.88980  Biso   1.000  C
  N1       1.0000 0.65350  0.95370  0.33505  Biso   1.000  N
  N2       1.0000 0.92190  0.61210  0.66620  Biso   1.000  N
  N3       1.0000 0.18000  0.77170  0.55383  Biso   1.000  N
  N4       1.0000 0.15350  0.04630  0.16495  Biso   1.000  N
  N5       1.0000 0.42190  0.38790  0.83380  Biso   1.000  N
  N6       1.0000 0.68000  0.22830  0.94617  Biso   1.000  N
  N7       1.0000 0.34650  0.04630  0.66495  Biso   1.000  N
  N8       1.0000 0.07810  0.38790  0.33380  Biso   1.000  N
  N9       1.0000 0.82000  0.22830  0.44617  Biso   1.000  N
  N10      1.0000 0.84650  0.95370  0.83505  Biso   1.000  N
  N11      1.0000 0.57810  0.61210  0.16620  Biso   1.000  N
  N12      1.0000 0.32000  0.77170  0.05383  Biso   1.000  N
  O1       1.0000 0.87620  0.96320  0.59126  Biso   1.000  O
  O2       1.0000 0.87380  0.85250  0.55728  Biso   1.000  O
  O3       1.0000 0.06790  0.97970  0.29863  Biso   1.000  O
  O4       1.0000 0.08180  0.85720  0.25501  Biso   1.000  O
  O5       1.0000 0.82600  0.92960  0.23270  Biso   1.000  O
  O6       1.0000 0.93490  0.78980  0.64171  Biso   1.000  O
  O7       1.0000 0.73720  0.75800  0.70615  Biso   1.000  O
  O8       1.0000 0.08510  0.75690  0.71347  Biso   1.000  O
  O9       1.0000 0.77120  0.36620  0.78549  Biso   1.000  O
  O10      1.0000 0.07720  0.35740  0.77870  Biso   1.000  O
  O11      1.0000 0.45320  0.74380  0.30310  Biso   1.000  O
  O12      1.0000 0.14190  0.75280  0.29633  Biso   1.000  O
  O13      1.0000 0.56120  0.90070  0.62830  Biso   1.000  O
  O14      1.0000 0.21270  0.90900  0.64029  Biso   1.000  O
  O15      1.0000 0.38430  0.80570  0.64755  Biso   1.000  O
  O16      1.0000 0.07450  0.92100  0.74442  Biso   1.000  O
  O17      1.0000 0.07520  0.65390  0.11196  Biso   1.000  O
  O18      1.0000 0.37620  0.03680  0.90874  Biso   1.000  O
  O19      1.0000 0.37380  0.14750  0.94272  Biso   1.000  O
  O20      1.0000 0.56790  0.02030  0.20137  Biso   1.000  O
  O21      1.0000 0.58180  0.14280  0.24499  Biso   1.000  O
  O22      1.0000 0.32600  0.07040  0.26730  Biso   1.000  O
  O23      1.0000 0.43490  0.21020  0.85829  Biso   1.000  O
  O24      1.0000 0.23720  0.24200  0.79385  Biso   1.000  O
  O25      1.0000 0.58510  0.24310  0.78653  Biso   1.000  O
  O26      1.0000 0.27120  0.63380  0.71451  Biso   1.000  O
  O27      1.0000 0.57720  0.64260  0.72130  Biso   1.000  O
  O28      1.0000 0.95320  0.25620  0.19690  Biso   1.000  O
  O29      1.0000 0.64190  0.24720  0.20367  Biso   1.000  O
  O30      1.0000 0.06120  0.09930  0.87170  Biso   1.000  O
  O31      1.0000 0.71270  0.09100  0.85971  Biso   1.000  O
  O32      1.0000 0.88430  0.19430  0.85245  Biso   1.000  O
  O33      1.0000 0.57450  0.07900  0.75558  Biso   1.000  O
  O34      1.0000 0.57520  0.34610  0.38804  Biso   1.000  O
  O35      1.0000 0.12380  0.03680  0.40874  Biso   1.000  O
  O36      1.0000 0.12620  0.14750  0.44272  Biso   1.000  O
  O37      1.0000 0.93210  0.02030  0.70137  Biso   1.000  O
  O38      1.0000 0.91820  0.14280  0.74499  Biso   1.000  O
  O39      1.0000 0.17400  0.07040  0.76730  Biso   1.000  O
  O40      1.0000 0.06510  0.21020  0.35829  Biso   1.000  O
  O41      1.0000 0.26280  0.24200  0.29385  Biso   1.000  O
  O42      1.0000 0.91490  0.24310  0.28653  Biso   1.000  O
  O43      1.0000 0.22880  0.63380  0.21451  Biso   1.000  O
  O44      1.0000 0.92280  0.64260  0.22130  Biso   1.000  O
  O45      1.0000 0.54680  0.25620  0.69690  Biso   1.000  O
  O46      1.0000 0.85810  0.24720  0.70367  Biso   1.000  O
  O47      1.0000 0.43880  0.09930  0.37170  Biso   1.000  O
  O48      1.0000 0.78730  0.09100  0.35971  Biso   1.000  O
  O49      1.0000 0.61570  0.19430  0.35245  Biso   1.000  O
  O50      1.0000 0.92550  0.07900  0.25558  Biso   1.000  O
  O51      1.0000 0.92480  0.34610  0.88804  Biso   1.000  O
  O52      1.0000 0.62380  0.96320  0.09126  Biso   1.000  O
  O53      1.0000 0.62620  0.85250  0.05728  Biso   1.000  O
  O54      1.0000 0.43210  0.97970  0.79863  Biso   1.000  O
  O55      1.0000 0.41820  0.85720  0.75501  Biso   1.000  O
  O56      1.0000 0.67400  0.92960  0.73270  Biso   1.000  O
  O57      1.0000 0.56510  0.78980  0.14171  Biso   1.000  O
  O58      1.0000 0.76280  0.75800  0.20615  Biso   1.000  O
  O59      1.0000 0.41490  0.75690  0.21347  Biso   1.000  O
  O60      1.0000 0.72880  0.36620  0.28549  Biso   1.000  O
  O61      1.0000 0.42280  0.35740  0.27870  Biso   1.000  O
  O62      1.0000 0.04680  0.74380  0.80310  Biso   1.000  O
  O63      1.0000 0.35810  0.75280  0.79633  Biso   1.000  O
  O64      1.0000 0.93880  0.90070  0.12830  Biso   1.000  O
  O65      1.0000 0.28730  0.90900  0.14029  Biso   1.000  O
  O66      1.0000 0.11570  0.80570  0.14755  Biso   1.000  O
  O67      1.0000 0.42550  0.92100  0.24442  Biso   1.000  O
  O68      1.0000 0.42480  0.65390  0.61196  Biso   1.000  O
