data_image0
_cell_length_a       7.09
_cell_length_b       20.91
_cell_length_c       27.823
_cell_angle_alpha    107.611
_cell_angle_beta     90
_cell_angle_gamma    90

_symmetry_space_group_name_H-M    P 1
_symmetry_int_tables_number       1

loop_
  _symmetry_equiv_pos_as_xyz
  'x, y, z'

loop_
  _atom_site_label
  _atom_site_occupancy
  _atom_site_fract_x
  _atom_site_fract_y
  _atom_site_fract_z
  _atom_site_thermal_displace_type
  _atom_site_B_iso_or_equiv
  _atom_site_type_symbol
  Sm1      1.0000 0.87277  0.91035  0.66149  Biso   1.000  Sm
  Sm2      1.0000 0.08665  0.74695  0.20675  Biso   1.000  Sm
  Sm3      1.0000 0.37277  0.08965  0.83851  Biso   1.000  Sm
  Sm4      1.0000 0.58665  0.25305  0.29325  Biso   1.000  Sm
  Sm5      1.0000 0.12723  0.08965  0.33851  Biso   1.000  Sm
  Sm6      1.0000 0.91335  0.25305  0.79325  Biso   1.000  Sm
  Sm7      1.0000 0.62723  0.91035  0.16149  Biso   1.000  Sm
  Sm8      1.0000 0.41335  0.74695  0.70675  Biso   1.000  Sm
  P1       1.0000 0.95937  0.91779  0.27272  Biso   1.000  P
  P2       1.0000 0.91364  0.75047  0.67951  Biso   1.000  P
  P3       1.0000 0.37753  0.86332  0.62631  Biso   1.000  P
  P4       1.0000 0.45937  0.08221  0.22728  Biso   1.000  P
  P5       1.0000 0.41364  0.24953  0.82049  Biso   1.000  P
  P6       1.0000 0.87753  0.13668  0.87369  Biso   1.000  P
  P7       1.0000 0.04063  0.08221  0.72728  Biso   1.000  P
  P8       1.0000 0.08636  0.24953  0.32049  Biso   1.000  P
  P9       1.0000 0.62247  0.13668  0.37369  Biso   1.000  P
  P10      1.0000 0.54063  0.91779  0.77272  Biso   1.000  P
  P11      1.0000 0.58636  0.75047  0.17951  Biso   1.000  P
  P12      1.0000 0.12247  0.86332  0.12631  Biso   1.000  P
  H1       1.0000 0.65010  0.98750  0.32330  Biso   1.000  H
  H2       1.0000 0.81200  0.62070  0.68620  Biso   1.000  H
  H3       1.0000 0.01700  0.61960  0.68810  Biso   1.000  H
  H4       1.0000 0.16050  0.76520  0.58550  Biso   1.000  H
  H5       1.0000 0.07390  0.79390  0.54960  Biso   1.000  H
  H6       1.0000 0.88340  0.90310  0.35020  Biso   1.000  H
  H7       1.0000 0.75200  0.85790  0.30800  Biso   1.000  H
  H8       1.0000 0.43200  0.98060  0.38260  Biso   1.000  H
  H9       1.0000 0.44500  0.90300  0.35670  Biso   1.000  H
  H10      1.0000 0.55150  0.83700  0.40500  Biso   1.000  H
  H11      1.0000 0.68390  0.82390  0.47790  Biso   1.000  H
  H12      1.0000 0.81820  0.01820  0.52320  Biso   1.000  H
  H13      1.0000 0.69870  0.03030  0.44940  Biso   1.000  H
  H14      1.0000 0.82230  0.65600  0.61490  Biso   1.000  H
  H15      1.0000 0.04270  0.65790  0.61970  Biso   1.000  H
  H16      1.0000 0.02930  0.53500  0.61130  Biso   1.000  H
  H17      1.0000 0.80770  0.53550  0.61050  Biso   1.000  H
  H18      1.0000 0.63360  0.49330  0.67360  Biso   1.000  H
  H19      1.0000 0.63620  0.42850  0.72740  Biso   1.000  H
  H20      1.0000 0.19310  0.40770  0.71170  Biso   1.000  H
  H21      1.0000 0.19180  0.47310  0.65820  Biso   1.000  H
  H22      1.0000 0.99140  0.76580  0.38180  Biso   1.000  H
  H23      1.0000 0.95370  0.74850  0.45960  Biso   1.000  H
  H24      1.0000 0.29390  0.68080  0.52320  Biso   1.000  H
  H25      1.0000 0.07430  0.68090  0.51620  Biso   1.000  H
  H26      1.0000 0.45370  0.79120  0.54600  Biso   1.000  H
  H27      1.0000 0.31960  0.84860  0.54050  Biso   1.000  H
  H28      1.0000 0.48000  0.68040  0.45290  Biso   1.000  H
  H29      1.0000 0.51980  0.69660  0.37470  Biso   1.000  H
  H30      1.0000 0.45440  0.74990  0.27690  Biso   1.000  H
  H31      1.0000 0.00170  0.90860  0.76550  Biso   1.000  H
  H32      1.0000 0.16690  0.89690  0.73730  Biso   1.000  H
  H33      1.0000 0.07840  0.67910  0.09490  Biso   1.000  H
  H34      1.0000 0.98030  0.63500  0.11440  Biso   1.000  H
  H35      1.0000 0.15010  0.01250  0.17670  Biso   1.000  H
  H36      1.0000 0.31200  0.37930  0.81380  Biso   1.000  H
  H37      1.0000 0.51700  0.38040  0.81190  Biso   1.000  H
  H38      1.0000 0.66050  0.23480  0.91450  Biso   1.000  H
  H39      1.0000 0.57390  0.20610  0.95040  Biso   1.000  H
  H40      1.0000 0.38340  0.09690  0.14980  Biso   1.000  H
  H41      1.0000 0.25200  0.14210  0.19200  Biso   1.000  H
  H42      1.0000 0.93200  0.01940  0.11740  Biso   1.000  H
  H43      1.0000 0.94500  0.09700  0.14330  Biso   1.000  H
  H44      1.0000 0.05150  0.16300  0.09500  Biso   1.000  H
  H45      1.0000 0.18390  0.17610  0.02210  Biso   1.000  H
  H46      1.0000 0.31820  0.98180  0.97680  Biso   1.000  H
  H47      1.0000 0.19870  0.96970  0.05060  Biso   1.000  H
  H48      1.0000 0.32230  0.34400  0.88510  Biso   1.000  H
  H49      1.0000 0.54270  0.34210  0.88030  Biso   1.000  H
  H50      1.0000 0.52930  0.46500  0.88870  Biso   1.000  H
  H51      1.0000 0.30770  0.46450  0.88950  Biso   1.000  H
  H52      1.0000 0.13360  0.50670  0.82640  Biso   1.000  H
  H53      1.0000 0.13620  0.57150  0.77260  Biso   1.000  H
  H54      1.0000 0.69310  0.59230  0.78830  Biso   1.000  H
  H55      1.0000 0.69180  0.52690  0.84180  Biso   1.000  H
  H56      1.0000 0.49140  0.23420  0.11820  Biso   1.000  H
  H57      1.0000 0.45370  0.25150  0.04040  Biso   1.000  H
  H58      1.0000 0.79390  0.31920  0.97680  Biso   1.000  H
  H59      1.0000 0.57430  0.31910  0.98380  Biso   1.000  H
  H60      1.0000 0.95370  0.20880  0.95400  Biso   1.000  H
  H61      1.0000 0.81960  0.15140  0.95950  Biso   1.000  H
  H62      1.0000 0.98000  0.31960  0.04710  Biso   1.000  H
  H63      1.0000 0.01980  0.30340  0.12530  Biso   1.000  H
  H64      1.0000 0.95440  0.25010  0.22310  Biso   1.000  H
  H65      1.0000 0.50170  0.09140  0.73450  Biso   1.000  H
  H66      1.0000 0.66690  0.10310  0.76270  Biso   1.000  H
  H67      1.0000 0.57840  0.32090  0.40510  Biso   1.000  H
  H68      1.0000 0.48030  0.36500  0.38560  Biso   1.000  H
  H69      1.0000 0.34990  0.01250  0.67670  Biso   1.000  H
  H70      1.0000 0.18800  0.37930  0.31380  Biso   1.000  H
  H71      1.0000 0.98300  0.38040  0.31190  Biso   1.000  H
  H72      1.0000 0.83950  0.23480  0.41450  Biso   1.000  H
  H73      1.0000 0.92610  0.20610  0.45040  Biso   1.000  H
  H74      1.0000 0.11660  0.09690  0.64980  Biso   1.000  H
  H75      1.0000 0.24800  0.14210  0.69200  Biso   1.000  H
  H76      1.0000 0.56800  0.01940  0.61740  Biso   1.000  H
  H77      1.0000 0.55500  0.09700  0.64330  Biso   1.000  H
  H78      1.0000 0.44850  0.16300  0.59500  Biso   1.000  H
  H79      1.0000 0.31610  0.17610  0.52210  Biso   1.000  H
  H80      1.0000 0.18180  0.98180  0.47680  Biso   1.000  H
  H81      1.0000 0.30130  0.96970  0.55060  Biso   1.000  H
  H82      1.0000 0.17770  0.34400  0.38510  Biso   1.000  H
  H83      1.0000 0.95730  0.34210  0.38030  Biso   1.000  H
  H84      1.0000 0.97070  0.46500  0.38870  Biso   1.000  H
  H85      1.0000 0.19230  0.46450  0.38950  Biso   1.000  H
  H86      1.0000 0.36640  0.50670  0.32640  Biso   1.000  H
  H87      1.0000 0.36380  0.57150  0.27260  Biso   1.000  H
  H88      1.0000 0.80690  0.59230  0.28830  Biso   1.000  H
  H89      1.0000 0.80820  0.52690  0.34180  Biso   1.000  H
  H90      1.0000 0.00860  0.23420  0.61820  Biso   1.000  H
  H91      1.0000 0.04630  0.25150  0.54040  Biso   1.000  H
  H92      1.0000 0.70610  0.31920  0.47680  Biso   1.000  H
  H93      1.0000 0.92570  0.31910  0.48380  Biso   1.000  H
  H94      1.0000 0.54630  0.20880  0.45400  Biso   1.000  H
  H95      1.0000 0.68040  0.15140  0.45950  Biso   1.000  H
  H96      1.0000 0.52000  0.31960  0.54710  Biso   1.000  H
  H97      1.0000 0.48020  0.30340  0.62530  Biso   1.000  H
  H98      1.0000 0.54560  0.25010  0.72310  Biso   1.000  H
  H99      1.0000 0.99830  0.09140  0.23450  Biso   1.000  H
  H100     1.0000 0.83310  0.10310  0.26270  Biso   1.000  H
  H101     1.0000 0.92160  0.32090  0.90510  Biso   1.000  H
  H102     1.0000 0.01970  0.36500  0.88560  Biso   1.000  H
  H103     1.0000 0.84990  0.98750  0.82330  Biso   1.000  H
  H104     1.0000 0.68800  0.62070  0.18620  Biso   1.000  H
  H105     1.0000 0.48300  0.61960  0.18810  Biso   1.000  H
  H106     1.0000 0.33950  0.76520  0.08550  Biso   1.000  H
  H107     1.0000 0.42610  0.79390  0.04960  Biso   1.000  H
  H108     1.0000 0.61660  0.90310  0.85020  Biso   1.000  H
  H109     1.0000 0.74800  0.85790  0.80800  Biso   1.000  H
  H110     1.0000 0.06800  0.98060  0.88260  Biso   1.000  H
  H111     1.0000 0.05500  0.90300  0.85670  Biso   1.000  H
  H112     1.0000 0.94850  0.83700  0.90500  Biso   1.000  H
  H113     1.0000 0.81610  0.82390  0.97790  Biso   1.000  H
  H114     1.0000 0.68180  0.01820  0.02320  Biso   1.000  H
  H115     1.0000 0.80130  0.03030  0.94940  Biso   1.000  H
  H116     1.0000 0.67770  0.65600  0.11490  Biso   1.000  H
  H117     1.0000 0.45730  0.65790  0.11970  Biso   1.000  H
  H118     1.0000 0.47070  0.53500  0.11130  Biso   1.000  H
  H119     1.0000 0.69230  0.53550  0.11050  Biso   1.000  H
  H120     1.0000 0.86640  0.49330  0.17360  Biso   1.000  H
  H121     1.0000 0.86380  0.42850  0.22740  Biso   1.000  H
  H122     1.0000 0.30690  0.40770  0.21170  Biso   1.000  H
  H123     1.0000 0.30820  0.47310  0.15820  Biso   1.000  H
  H124     1.0000 0.50860  0.76580  0.88180  Biso   1.000  H
  H125     1.0000 0.54630  0.74850  0.95960  Biso   1.000  H
  H126     1.0000 0.20610  0.68080  0.02320  Biso   1.000  H
  H127     1.0000 0.42570  0.68090  0.01620  Biso   1.000  H
  H128     1.0000 0.04630  0.79120  0.04600  Biso   1.000  H
  H129     1.0000 0.18040  0.84860  0.04050  Biso   1.000  H
  H130     1.0000 0.02000  0.68040  0.95290  Biso   1.000  H
  H131     1.0000 0.98020  0.69660  0.87470  Biso   1.000  H
  H132     1.0000 0.04560  0.74990  0.77690  Biso   1.000  H
  H133     1.0000 0.49830  0.90860  0.26550  Biso   1.000  H
  H134     1.0000 0.33310  0.89690  0.23730  Biso   1.000  H
  H135     1.0000 0.42160  0.67910  0.59490  Biso   1.000  H
  H136     1.0000 0.51970  0.63500  0.61440  Biso   1.000  H
  C1       1.0000 0.80860  0.90210  0.32080  Biso   1.000  C
  C2       1.0000 0.51830  0.94290  0.37279  Biso   1.000  C
  C3       1.0000 0.61000  0.93470  0.41946  Biso   1.000  C
  C4       1.0000 0.60690  0.87360  0.42840  Biso   1.000  C
  C5       1.0000 0.68620  0.86570  0.47250  Biso   1.000  C
  C6       1.0000 0.76690  0.91940  0.50781  Biso   1.000  C
  C7       1.0000 0.76720  0.98120  0.49910  Biso   1.000  C
  C8       1.0000 0.69300  0.98880  0.45510  Biso   1.000  C
  C9       1.0000 0.84480  0.91220  0.55660  Biso   1.000  C
  C10      1.0000 0.92600  0.66410  0.63870  Biso   1.000  C
  C11      1.0000 0.91730  0.54260  0.63240  Biso   1.000  C
  C12      1.0000 0.91390  0.49360  0.66310  Biso   1.000  C
  C13      1.0000 0.74750  0.47780  0.68230  Biso   1.000  C
  C14      1.0000 0.74950  0.43880  0.71460  Biso   1.000  C
  C15      1.0000 0.91540  0.41500  0.72820  Biso   1.000  C
  C16      1.0000 0.08060  0.42650  0.70530  Biso   1.000  C
  C17      1.0000 0.08000  0.46560  0.67320  Biso   1.000  C
  C18      1.0000 0.91810  0.37700  0.76590  Biso   1.000  C
  C19      1.0000 0.27810  0.74510  0.32060  Biso   1.000  C
  C20      1.0000 0.25950  0.73350  0.37100  Biso   1.000  C
  C21      1.0000 0.09060  0.74880  0.39610  Biso   1.000  C
  C22      1.0000 0.06840  0.73870  0.44280  Biso   1.000  C
  C23      1.0000 0.21550  0.71430  0.46430  Biso   1.000  C
  C24      1.0000 0.18890  0.70610  0.51590  Biso   1.000  C
  C25      1.0000 0.34230  0.81740  0.55951  Biso   1.000  C
  C26      1.0000 0.38180  0.69810  0.43870  Biso   1.000  C
  C27      1.0000 0.40600  0.70760  0.39180  Biso   1.000  C
  C28      1.0000 0.30860  0.09790  0.17920  Biso   1.000  C
  C29      1.0000 0.01830  0.05710  0.12721  Biso   1.000  C
  C30      1.0000 0.11000  0.06530  0.08054  Biso   1.000  C
  C31      1.0000 0.10690  0.12640  0.07160  Biso   1.000  C
  C32      1.0000 0.18620  0.13430  0.02750  Biso   1.000  C
  C33      1.0000 0.26690  0.08060  0.99219  Biso   1.000  C
  C34      1.0000 0.26720  0.01880  0.00090  Biso   1.000  C
  C35      1.0000 0.19300  0.01120  0.04490  Biso   1.000  C
  C36      1.0000 0.34480  0.08780  0.94340  Biso   1.000  C
  C37      1.0000 0.42600  0.33590  0.86130  Biso   1.000  C
  C38      1.0000 0.41730  0.45740  0.86760  Biso   1.000  C
  C39      1.0000 0.41390  0.50640  0.83690  Biso   1.000  C
  C40      1.0000 0.24750  0.52220  0.81770  Biso   1.000  C
  C41      1.0000 0.24950  0.56120  0.78540  Biso   1.000  C
  C42      1.0000 0.41540  0.58500  0.77180  Biso   1.000  C
  C43      1.0000 0.58060  0.57350  0.79470  Biso   1.000  C
  C44      1.0000 0.58000  0.53440  0.82680  Biso   1.000  C
  C45      1.0000 0.41810  0.62300  0.73410  Biso   1.000  C
  C46      1.0000 0.77810  0.25490  0.17940  Biso   1.000  C
  C47      1.0000 0.75950  0.26650  0.12900  Biso   1.000  C
  C48      1.0000 0.59060  0.25120  0.10390  Biso   1.000  C
  C49      1.0000 0.56840  0.26130  0.05720  Biso   1.000  C
  C50      1.0000 0.71550  0.28570  0.03570  Biso   1.000  C
  C51      1.0000 0.68890  0.29390  0.98410  Biso   1.000  C
  C52      1.0000 0.84230  0.18260  0.94049  Biso   1.000  C
  C53      1.0000 0.88180  0.30190  0.06130  Biso   1.000  C
  C54      1.0000 0.90600  0.29240  0.10820  Biso   1.000  C
  C55      1.0000 0.19140  0.09790  0.67920  Biso   1.000  C
  C56      1.0000 0.48170  0.05710  0.62721  Biso   1.000  C
  C57      1.0000 0.39000  0.06530  0.58054  Biso   1.000  C
  C58      1.0000 0.39310  0.12640  0.57160  Biso   1.000  C
  C59      1.0000 0.31380  0.13430  0.52750  Biso   1.000  C
  C60      1.0000 0.23310  0.08060  0.49219  Biso   1.000  C
  C61      1.0000 0.23280  0.01880  0.50090  Biso   1.000  C
  C62      1.0000 0.30700  0.01120  0.54490  Biso   1.000  C
  C63      1.0000 0.15520  0.08780  0.44340  Biso   1.000  C
  C64      1.0000 0.07400  0.33590  0.36130  Biso   1.000  C
  C65      1.0000 0.08270  0.45740  0.36760  Biso   1.000  C
  C66      1.0000 0.08610  0.50640  0.33690  Biso   1.000  C
  C67      1.0000 0.25250  0.52220  0.31770  Biso   1.000  C
  C68      1.0000 0.25050  0.56120  0.28540  Biso   1.000  C
  C69      1.0000 0.08460  0.58500  0.27180  Biso   1.000  C
  C70      1.0000 0.91940  0.57350  0.29470  Biso   1.000  C
  C71      1.0000 0.92000  0.53440  0.32680  Biso   1.000  C
  C72      1.0000 0.08190  0.62300  0.23410  Biso   1.000  C
  C73      1.0000 0.72190  0.25490  0.67940  Biso   1.000  C
  C74      1.0000 0.74050  0.26650  0.62900  Biso   1.000  C
  C75      1.0000 0.90940  0.25120  0.60390  Biso   1.000  C
  C76      1.0000 0.93160  0.26130  0.55720  Biso   1.000  C
  C77      1.0000 0.78450  0.28570  0.53570  Biso   1.000  C
  C78      1.0000 0.81110  0.29390  0.48410  Biso   1.000  C
  C79      1.0000 0.65770  0.18260  0.44049  Biso   1.000  C
  C80      1.0000 0.61820  0.30190  0.56130  Biso   1.000  C
  C81      1.0000 0.59400  0.29240  0.60820  Biso   1.000  C
  C82      1.0000 0.69140  0.90210  0.82080  Biso   1.000  C
  C83      1.0000 0.98170  0.94290  0.87279  Biso   1.000  C
  C84      1.0000 0.89000  0.93470  0.91946  Biso   1.000  C
  C85      1.0000 0.89310  0.87360  0.92840  Biso   1.000  C
  C86      1.0000 0.81380  0.86570  0.97250  Biso   1.000  C
  C87      1.0000 0.73310  0.91940  0.00781  Biso   1.000  C
  C88      1.0000 0.73280  0.98120  0.99910  Biso   1.000  C
  C89      1.0000 0.80700  0.98880  0.95510  Biso   1.000  C
  C90      1.0000 0.65520  0.91220  0.05660  Biso   1.000  C
  C91      1.0000 0.57400  0.66410  0.13870  Biso   1.000  C
  C92      1.0000 0.58270  0.54260  0.13240  Biso   1.000  C
  C93      1.0000 0.58610  0.49360  0.16310  Biso   1.000  C
  C94      1.0000 0.75250  0.47780  0.18230  Biso   1.000  C
  C95      1.0000 0.75050  0.43880  0.21460  Biso   1.000  C
  C96      1.0000 0.58460  0.41500  0.22820  Biso   1.000  C
  C97      1.0000 0.41940  0.42650  0.20530  Biso   1.000  C
  C98      1.0000 0.42000  0.46560  0.17320  Biso   1.000  C
  C99      1.0000 0.58190  0.37700  0.26590  Biso   1.000  C
  C100     1.0000 0.22190  0.74510  0.82060  Biso   1.000  C
  C101     1.0000 0.24050  0.73350  0.87100  Biso   1.000  C
  C102     1.0000 0.40940  0.74880  0.89610  Biso   1.000  C
  C103     1.0000 0.43160  0.73870  0.94280  Biso   1.000  C
  C104     1.0000 0.28450  0.71430  0.96430  Biso   1.000  C
  C105     1.0000 0.31110  0.70610  0.01590  Biso   1.000  C
  C106     1.0000 0.15770  0.81740  0.05951  Biso   1.000  C
  C107     1.0000 0.11820  0.69810  0.93870  Biso   1.000  C
  C108     1.0000 0.09400  0.70760  0.89180  Biso   1.000  C
  N1       1.0000 0.65710  0.95420  0.33531  Biso   1.000  N
  N2       1.0000 0.91730  0.61380  0.66723  Biso   1.000  N
  N3       1.0000 0.17700  0.77240  0.55555  Biso   1.000  N
  N4       1.0000 0.15710  0.04580  0.16469  Biso   1.000  N
  N5       1.0000 0.41730  0.38620  0.83277  Biso   1.000  N
  N6       1.0000 0.67700  0.22760  0.94445  Biso   1.000  N
  N7       1.0000 0.34290  0.04580  0.66469  Biso   1.000  N
  N8       1.0000 0.08270  0.38620  0.33277  Biso   1.000  N
  N9       1.0000 0.82300  0.22760  0.44445  Biso   1.000  N
  N10      1.0000 0.84290  0.95420  0.83531  Biso   1.000  N
  N11      1.0000 0.58270  0.61380  0.16723  Biso   1.000  N
  N12      1.0000 0.32300  0.77240  0.05555  Biso   1.000  N
  O1       1.0000 0.87490  0.96320  0.59235  Biso   1.000  O
  O2       1.0000 0.86970  0.85320  0.55941  Biso   1.000  O
  O3       1.0000 0.07210  0.97982  0.29831  Biso   1.000  O
  O4       1.0000 0.08730  0.85711  0.25612  Biso   1.000  O
  O5       1.0000 0.82930  0.92860  0.23316  Biso   1.000  O
  O6       1.0000 0.92720  0.79301  0.64453  Biso   1.000  O
  O7       1.0000 0.73170  0.75900  0.70866  Biso   1.000  O
  O8       1.0000 0.08120  0.75891  0.71516  Biso   1.000  O
  O9       1.0000 0.76610  0.36310  0.78355  Biso   1.000  O
  O10      1.0000 0.07290  0.35520  0.77702  Biso   1.000  O
  O11      1.0000 0.45340  0.74540  0.30518  Biso   1.000  O
  O12      1.0000 0.14110  0.75270  0.29697  Biso   1.000  O
  O13      1.0000 0.56060  0.90150  0.63005  Biso   1.000  O
  O14      1.0000 0.20760  0.90931  0.64170  Biso   1.000  O
  O15      1.0000 0.38090  0.80615  0.64913  Biso   1.000  O
  O16      1.0000 0.06890  0.92130  0.74477  Biso   1.000  O
  O17      1.0000 0.07960  0.65870  0.11713  Biso   1.000  O
  O18      1.0000 0.37490  0.03680  0.90765  Biso   1.000  O
  O19      1.0000 0.36970  0.14680  0.94059  Biso   1.000  O
  O20      1.0000 0.57210  0.02018  0.20169  Biso   1.000  O
  O21      1.0000 0.58730  0.14289  0.24388  Biso   1.000  O
  O22      1.0000 0.32930  0.07140  0.26684  Biso   1.000  O
  O23      1.0000 0.42720  0.20699  0.85547  Biso   1.000  O
  O24      1.0000 0.23170  0.24100  0.79134  Biso   1.000  O
  O25      1.0000 0.58120  0.24109  0.78484  Biso   1.000  O
  O26      1.0000 0.26610  0.63690  0.71645  Biso   1.000  O
  O27      1.0000 0.57290  0.64480  0.72298  Biso   1.000  O
  O28      1.0000 0.95340  0.25460  0.19482  Biso   1.000  O
  O29      1.0000 0.64110  0.24730  0.20303  Biso   1.000  O
  O30      1.0000 0.06060  0.09850  0.86995  Biso   1.000  O
  O31      1.0000 0.70760  0.09069  0.85830  Biso   1.000  O
  O32      1.0000 0.88090  0.19385  0.85087  Biso   1.000  O
  O33      1.0000 0.56890  0.07870  0.75523  Biso   1.000  O
  O34      1.0000 0.57960  0.34130  0.38287  Biso   1.000  O
  O35      1.0000 0.12510  0.03680  0.40765  Biso   1.000  O
  O36      1.0000 0.13030  0.14680  0.44059  Biso   1.000  O
  O37      1.0000 0.92790  0.02018  0.70169  Biso   1.000  O
  O38      1.0000 0.91270  0.14289  0.74388  Biso   1.000  O
  O39      1.0000 0.17070  0.07140  0.76684  Biso   1.000  O
  O40      1.0000 0.07280  0.20699  0.35547  Biso   1.000  O
  O41      1.0000 0.26830  0.24100  0.29134  Biso   1.000  O
  O42      1.0000 0.91880  0.24109  0.28484  Biso   1.000  O
  O43      1.0000 0.23390  0.63690  0.21645  Biso   1.000  O
  O44      1.0000 0.92710  0.64480  0.22298  Biso   1.000  O
  O45      1.0000 0.54660  0.25460  0.69482  Biso   1.000  O
  O46      1.0000 0.85890  0.24730  0.70303  Biso   1.000  O
  O47      1.0000 0.43940  0.09850  0.36995  Biso   1.000  O
  O48      1.0000 0.79240  0.09069  0.35830  Biso   1.000  O
  O49      1.0000 0.61910  0.19385  0.35087  Biso   1.000  O
  O50      1.0000 0.93110  0.07870  0.25523  Biso   1.000  O
  O51      1.0000 0.92040  0.34130  0.88287  Biso   1.000  O
  O52      1.0000 0.62510  0.96320  0.09235  Biso   1.000  O
  O53      1.0000 0.63030  0.85320  0.05941  Biso   1.000  O
  O54      1.0000 0.42790  0.97982  0.79831  Biso   1.000  O
  O55      1.0000 0.41270  0.85711  0.75612  Biso   1.000  O
  O56      1.0000 0.67070  0.92860  0.73316  Biso   1.000  O
  O57      1.0000 0.57280  0.79301  0.14453  Biso   1.000  O
  O58      1.0000 0.76830  0.75900  0.20866  Biso   1.000  O
  O59      1.0000 0.41880  0.75891  0.21516  Biso   1.000  O
  O60      1.0000 0.73390  0.36310  0.28355  Biso   1.000  O
  O61      1.0000 0.42710  0.35520  0.27702  Biso   1.000  O
  O62      1.0000 0.04660  0.74540  0.80518  Biso   1.000  O
  O63      1.0000 0.35890  0.75270  0.79697  Biso   1.000  O
  O64      1.0000 0.93940  0.90150  0.13005  Biso   1.000  O
  O65      1.0000 0.29240  0.90931  0.14170  Biso   1.000  O
  O66      1.0000 0.11910  0.80615  0.14913  Biso   1.000  O
  O67      1.0000 0.43110  0.92130  0.24477  Biso   1.000  O
  O68      1.0000 0.42040  0.65870  0.61713  Biso   1.000  O
