data_image0
_cell_length_a       7.077
_cell_length_b       20.943
_cell_length_c       27.809
_cell_angle_alpha    107.309
_cell_angle_beta     90
_cell_angle_gamma    90

_symmetry_space_group_name_H-M    P 1
_symmetry_int_tables_number       1

loop_
  _symmetry_equiv_pos_as_xyz
  'x, y, z'

loop_
  _atom_site_label
  _atom_site_occupancy
  _atom_site_fract_x
  _atom_site_fract_y
  _atom_site_fract_z
  _atom_site_thermal_displace_type
  _atom_site_B_iso_or_equiv
  _atom_site_type_symbol
  Eu1      1.0000 0.87283  0.91084  0.66223  Biso   1.000  Eu
  Eu2      1.0000 0.08672  0.74800  0.20815  Biso   1.000  Eu
  Eu3      1.0000 0.37283  0.08916  0.83777  Biso   1.000  Eu
  Eu4      1.0000 0.58672  0.25200  0.29185  Biso   1.000  Eu
  Eu5      1.0000 0.12717  0.08916  0.33777  Biso   1.000  Eu
  Eu6      1.0000 0.91328  0.25200  0.79185  Biso   1.000  Eu
  Eu7      1.0000 0.62717  0.91084  0.16224  Biso   1.000  Eu
  Eu8      1.0000 0.41328  0.74800  0.70815  Biso   1.000  Eu
  P1       1.0000 0.95947  0.91817  0.27312  Biso   1.000  P
  P2       1.0000 0.91352  0.75199  0.68109  Biso   1.000  P
  P3       1.0000 0.37760  0.86350  0.62721  Biso   1.000  P
  P4       1.0000 0.45947  0.08183  0.22688  Biso   1.000  P
  P5       1.0000 0.41352  0.24801  0.81891  Biso   1.000  P
  P6       1.0000 0.87760  0.13650  0.87279  Biso   1.000  P
  P7       1.0000 0.04053  0.08183  0.72688  Biso   1.000  P
  P8       1.0000 0.08648  0.24801  0.31891  Biso   1.000  P
  P9       1.0000 0.62240  0.13650  0.37279  Biso   1.000  P
  P10      1.0000 0.54053  0.91817  0.77312  Biso   1.000  P
  P11      1.0000 0.58648  0.75199  0.18109  Biso   1.000  P
  P12      1.0000 0.12240  0.86350  0.12721  Biso   1.000  P
  H1       1.0000 0.65060  0.98780  0.32350  Biso   1.000  H
  H2       1.0000 0.81000  0.62210  0.68730  Biso   1.000  H
  H3       1.0000 0.01530  0.62020  0.68930  Biso   1.000  H
  H4       1.0000 0.07320  0.79450  0.55110  Biso   1.000  H
  H5       1.0000 0.16110  0.76560  0.58680  Biso   1.000  H
  H6       1.0000 0.88360  0.90390  0.35060  Biso   1.000  H
  H7       1.0000 0.75160  0.85900  0.30860  Biso   1.000  H
  H8       1.0000 0.43230  0.98180  0.38300  Biso   1.000  H
  H9       1.0000 0.44250  0.90440  0.35720  Biso   1.000  H
  H10      1.0000 0.54920  0.83750  0.40560  Biso   1.000  H
  H11      1.0000 0.67910  0.82420  0.47850  Biso   1.000  H
  H12      1.0000 0.82000  0.01710  0.52360  Biso   1.000  H
  H13      1.0000 0.70050  0.03030  0.45000  Biso   1.000  H
  H14      1.0000 0.82400  0.65790  0.61630  Biso   1.000  H
  H15      1.0000 0.04440  0.65960  0.62180  Biso   1.000  H
  H16      1.0000 0.02510  0.53710  0.61230  Biso   1.000  H
  H17      1.0000 0.80320  0.53800  0.61210  Biso   1.000  H
  H18      1.0000 0.63080  0.49280  0.67260  Biso   1.000  H
  H19      1.0000 0.63020  0.42860  0.72780  Biso   1.000  H
  H20      1.0000 0.19260  0.40850  0.71180  Biso   1.000  H
  H21      1.0000 0.19050  0.47320  0.65760  Biso   1.000  H
  H22      1.0000 0.99030  0.76720  0.38270  Biso   1.000  H
  H23      1.0000 0.95050  0.74930  0.46090  Biso   1.000  H
  H24      1.0000 0.29400  0.68190  0.52450  Biso   1.000  H
  H25      1.0000 0.07400  0.68200  0.51770  Biso   1.000  H
  H26      1.0000 0.45460  0.79240  0.54720  Biso   1.000  H
  H27      1.0000 0.31950  0.84960  0.54170  Biso   1.000  H
  H28      1.0000 0.48010  0.68160  0.45500  Biso   1.000  H
  H29      1.0000 0.51870  0.69550  0.37560  Biso   1.000  H
  H30      1.0000 0.45230  0.75040  0.27800  Biso   1.000  H
  H31      1.0000 0.00200  0.90890  0.76560  Biso   1.000  H
  H32      1.0000 0.16710  0.89730  0.73740  Biso   1.000  H
  H33      1.0000 0.07730  0.68340  0.09840  Biso   1.000  H
  H34      1.0000 0.97920  0.63930  0.11780  Biso   1.000  H
  H35      1.0000 0.15060  0.01220  0.17650  Biso   1.000  H
  H36      1.0000 0.31000  0.37790  0.81270  Biso   1.000  H
  H37      1.0000 0.51530  0.37980  0.81070  Biso   1.000  H
  H38      1.0000 0.57320  0.20550  0.94890  Biso   1.000  H
  H39      1.0000 0.66110  0.23440  0.91320  Biso   1.000  H
  H40      1.0000 0.38360  0.09610  0.14940  Biso   1.000  H
  H41      1.0000 0.25160  0.14100  0.19140  Biso   1.000  H
  H42      1.0000 0.93230  0.01820  0.11700  Biso   1.000  H
  H43      1.0000 0.94250  0.09560  0.14280  Biso   1.000  H
  H44      1.0000 0.04920  0.16250  0.09440  Biso   1.000  H
  H45      1.0000 0.17910  0.17580  0.02150  Biso   1.000  H
  H46      1.0000 0.32000  0.98290  0.97640  Biso   1.000  H
  H47      1.0000 0.20050  0.96970  0.05000  Biso   1.000  H
  H48      1.0000 0.32400  0.34210  0.88370  Biso   1.000  H
  H49      1.0000 0.54440  0.34040  0.87820  Biso   1.000  H
  H50      1.0000 0.52510  0.46290  0.88770  Biso   1.000  H
  H51      1.0000 0.30320  0.46200  0.88790  Biso   1.000  H
  H52      1.0000 0.13080  0.50720  0.82740  Biso   1.000  H
  H53      1.0000 0.13020  0.57140  0.77220  Biso   1.000  H
  H54      1.0000 0.69260  0.59150  0.78820  Biso   1.000  H
  H55      1.0000 0.69050  0.52680  0.84240  Biso   1.000  H
  H56      1.0000 0.49030  0.23280  0.11730  Biso   1.000  H
  H57      1.0000 0.45050  0.25070  0.03910  Biso   1.000  H
  H58      1.0000 0.79400  0.31810  0.97550  Biso   1.000  H
  H59      1.0000 0.57400  0.31800  0.98230  Biso   1.000  H
  H60      1.0000 0.95460  0.20760  0.95280  Biso   1.000  H
  H61      1.0000 0.81950  0.15040  0.95830  Biso   1.000  H
  H62      1.0000 0.98010  0.31840  0.04500  Biso   1.000  H
  H63      1.0000 0.01870  0.30450  0.12440  Biso   1.000  H
  H64      1.0000 0.95230  0.24960  0.22200  Biso   1.000  H
  H65      1.0000 0.50200  0.09110  0.73440  Biso   1.000  H
  H66      1.0000 0.66710  0.10270  0.76260  Biso   1.000  H
  H67      1.0000 0.57730  0.31660  0.40160  Biso   1.000  H
  H68      1.0000 0.47920  0.36070  0.38220  Biso   1.000  H
  H69      1.0000 0.34940  0.01220  0.67650  Biso   1.000  H
  H70      1.0000 0.19000  0.37790  0.31270  Biso   1.000  H
  H71      1.0000 0.98470  0.37980  0.31070  Biso   1.000  H
  H72      1.0000 0.92680  0.20550  0.44890  Biso   1.000  H
  H73      1.0000 0.83890  0.23440  0.41320  Biso   1.000  H
  H74      1.0000 0.11640  0.09610  0.64940  Biso   1.000  H
  H75      1.0000 0.24840  0.14100  0.69140  Biso   1.000  H
  H76      1.0000 0.56770  0.01820  0.61700  Biso   1.000  H
  H77      1.0000 0.55750  0.09560  0.64280  Biso   1.000  H
  H78      1.0000 0.45080  0.16250  0.59440  Biso   1.000  H
  H79      1.0000 0.32090  0.17580  0.52150  Biso   1.000  H
  H80      1.0000 0.18000  0.98290  0.47640  Biso   1.000  H
  H81      1.0000 0.29950  0.96970  0.55000  Biso   1.000  H
  H82      1.0000 0.17600  0.34210  0.38370  Biso   1.000  H
  H83      1.0000 0.95560  0.34040  0.37820  Biso   1.000  H
  H84      1.0000 0.97490  0.46290  0.38770  Biso   1.000  H
  H85      1.0000 0.19680  0.46200  0.38790  Biso   1.000  H
  H86      1.0000 0.36920  0.50720  0.32740  Biso   1.000  H
  H87      1.0000 0.36980  0.57140  0.27220  Biso   1.000  H
  H88      1.0000 0.80740  0.59150  0.28820  Biso   1.000  H
  H89      1.0000 0.80950  0.52680  0.34240  Biso   1.000  H
  H90      1.0000 0.00970  0.23280  0.61730  Biso   1.000  H
  H91      1.0000 0.04950  0.25070  0.53910  Biso   1.000  H
  H92      1.0000 0.70600  0.31810  0.47550  Biso   1.000  H
  H93      1.0000 0.92600  0.31800  0.48230  Biso   1.000  H
  H94      1.0000 0.54540  0.20760  0.45280  Biso   1.000  H
  H95      1.0000 0.68050  0.15040  0.45830  Biso   1.000  H
  H96      1.0000 0.51990  0.31840  0.54500  Biso   1.000  H
  H97      1.0000 0.48130  0.30450  0.62440  Biso   1.000  H
  H98      1.0000 0.54770  0.24960  0.72200  Biso   1.000  H
  H99      1.0000 0.99800  0.09110  0.23440  Biso   1.000  H
  H100     1.0000 0.83290  0.10270  0.26260  Biso   1.000  H
  H101     1.0000 0.92270  0.31660  0.90160  Biso   1.000  H
  H102     1.0000 0.02080  0.36070  0.88220  Biso   1.000  H
  H103     1.0000 0.84940  0.98780  0.82350  Biso   1.000  H
  H104     1.0000 0.69000  0.62210  0.18730  Biso   1.000  H
  H105     1.0000 0.48470  0.62020  0.18930  Biso   1.000  H
  H106     1.0000 0.42680  0.79450  0.05110  Biso   1.000  H
  H107     1.0000 0.33890  0.76560  0.08680  Biso   1.000  H
  H108     1.0000 0.61640  0.90390  0.85060  Biso   1.000  H
  H109     1.0000 0.74840  0.85900  0.80860  Biso   1.000  H
  H110     1.0000 0.06770  0.98180  0.88300  Biso   1.000  H
  H111     1.0000 0.05750  0.90440  0.85720  Biso   1.000  H
  H112     1.0000 0.95080  0.83750  0.90560  Biso   1.000  H
  H113     1.0000 0.82090  0.82420  0.97850  Biso   1.000  H
  H114     1.0000 0.68000  0.01710  0.02360  Biso   1.000  H
  H115     1.0000 0.79950  0.03030  0.95000  Biso   1.000  H
  H116     1.0000 0.67600  0.65790  0.11630  Biso   1.000  H
  H117     1.0000 0.45560  0.65960  0.12180  Biso   1.000  H
  H118     1.0000 0.47490  0.53710  0.11230  Biso   1.000  H
  H119     1.0000 0.69680  0.53800  0.11210  Biso   1.000  H
  H120     1.0000 0.86920  0.49280  0.17260  Biso   1.000  H
  H121     1.0000 0.86980  0.42860  0.22780  Biso   1.000  H
  H122     1.0000 0.30740  0.40850  0.21180  Biso   1.000  H
  H123     1.0000 0.30950  0.47320  0.15760  Biso   1.000  H
  H124     1.0000 0.50970  0.76720  0.88270  Biso   1.000  H
  H125     1.0000 0.54950  0.74930  0.96090  Biso   1.000  H
  H126     1.0000 0.20600  0.68190  0.02450  Biso   1.000  H
  H127     1.0000 0.42600  0.68200  0.01770  Biso   1.000  H
  H128     1.0000 0.04540  0.79240  0.04720  Biso   1.000  H
  H129     1.0000 0.18050  0.84960  0.04170  Biso   1.000  H
  H130     1.0000 0.01990  0.68160  0.95500  Biso   1.000  H
  H131     1.0000 0.98130  0.69550  0.87560  Biso   1.000  H
  H132     1.0000 0.04770  0.75040  0.77800  Biso   1.000  H
  H133     1.0000 0.49800  0.90890  0.26560  Biso   1.000  H
  H134     1.0000 0.33290  0.89730  0.23740  Biso   1.000  H
  H135     1.0000 0.42270  0.68340  0.59840  Biso   1.000  H
  H136     1.0000 0.52080  0.63930  0.61780  Biso   1.000  H
  C1       1.0000 0.80850  0.90300  0.32120  Biso   1.000  C
  C2       1.0000 0.51740  0.94380  0.37321  Biso   1.000  C
  C3       1.0000 0.60890  0.93500  0.41976  Biso   1.000  C
  C4       1.0000 0.60480  0.87400  0.42900  Biso   1.000  C
  C5       1.0000 0.68280  0.86590  0.47310  Biso   1.000  C
  C6       1.0000 0.76470  0.91880  0.50820  Biso   1.000  C
  C7       1.0000 0.76760  0.98060  0.49960  Biso   1.000  C
  C8       1.0000 0.69370  0.98870  0.45570  Biso   1.000  C
  C9       1.0000 0.84300  0.91110  0.55670  Biso   1.000  C
  C10      1.0000 0.92660  0.66570  0.64045  Biso   1.000  C
  C11      1.0000 0.91380  0.54450  0.63360  Biso   1.000  C
  C12      1.0000 0.91120  0.49510  0.66350  Biso   1.000  C
  C13      1.0000 0.74480  0.47790  0.68200  Biso   1.000  C
  C14      1.0000 0.74360  0.43860  0.71470  Biso   1.000  C
  C15      1.0000 0.91390  0.41440  0.72740  Biso   1.000  C
  C16      1.0000 0.07950  0.42680  0.70510  Biso   1.000  C
  C17      1.0000 0.07890  0.46610  0.67300  Biso   1.000  C
  C18      1.0000 0.91640  0.37610  0.76490  Biso   1.000  C
  C19      1.0000 0.27840  0.74540  0.32190  Biso   1.000  C
  C20      1.0000 0.25980  0.73380  0.37210  Biso   1.000  C
  C21      1.0000 0.08870  0.74980  0.39710  Biso   1.000  C
  C22      1.0000 0.06550  0.73960  0.44410  Biso   1.000  C
  C23      1.0000 0.21430  0.71510  0.46560  Biso   1.000  C
  C24      1.0000 0.18870  0.70720  0.51720  Biso   1.000  C
  C25      1.0000 0.34270  0.81830  0.56072  Biso   1.000  C
  C26      1.0000 0.38160  0.69870  0.44040  Biso   1.000  C
  C27      1.0000 0.40550  0.70740  0.39290  Biso   1.000  C
  C28      1.0000 0.30850  0.09700  0.17880  Biso   1.000  C
  C29      1.0000 0.01740  0.05620  0.12679  Biso   1.000  C
  C30      1.0000 0.10890  0.06500  0.08024  Biso   1.000  C
  C31      1.0000 0.10480  0.12600  0.07100  Biso   1.000  C
  C32      1.0000 0.18280  0.13410  0.02690  Biso   1.000  C
  C33      1.0000 0.26470  0.08120  0.99180  Biso   1.000  C
  C34      1.0000 0.26760  0.01940  0.00040  Biso   1.000  C
  C35      1.0000 0.19370  0.01130  0.04430  Biso   1.000  C
  C36      1.0000 0.34300  0.08890  0.94330  Biso   1.000  C
  C37      1.0000 0.42660  0.33430  0.85955  Biso   1.000  C
  C38      1.0000 0.41380  0.45550  0.86640  Biso   1.000  C
  C39      1.0000 0.41120  0.50490  0.83650  Biso   1.000  C
  C40      1.0000 0.24480  0.52210  0.81800  Biso   1.000  C
  C41      1.0000 0.24360  0.56140  0.78530  Biso   1.000  C
  C42      1.0000 0.41390  0.58560  0.77260  Biso   1.000  C
  C43      1.0000 0.57950  0.57320  0.79490  Biso   1.000  C
  C44      1.0000 0.57890  0.53390  0.82700  Biso   1.000  C
  C45      1.0000 0.41640  0.62390  0.73510  Biso   1.000  C
  C46      1.0000 0.77840  0.25460  0.17810  Biso   1.000  C
  C47      1.0000 0.75980  0.26620  0.12790  Biso   1.000  C
  C48      1.0000 0.58870  0.25020  0.10290  Biso   1.000  C
  C49      1.0000 0.56550  0.26040  0.05590  Biso   1.000  C
  C50      1.0000 0.71430  0.28490  0.03440  Biso   1.000  C
  C51      1.0000 0.68870  0.29280  0.98280  Biso   1.000  C
  C52      1.0000 0.84270  0.18170  0.93928  Biso   1.000  C
  C53      1.0000 0.88160  0.30130  0.05960  Biso   1.000  C
  C54      1.0000 0.90550  0.29260  0.10710  Biso   1.000  C
  C55      1.0000 0.19150  0.09700  0.67880  Biso   1.000  C
  C56      1.0000 0.48260  0.05620  0.62679  Biso   1.000  C
  C57      1.0000 0.39110  0.06500  0.58024  Biso   1.000  C
  C58      1.0000 0.39520  0.12600  0.57100  Biso   1.000  C
  C59      1.0000 0.31720  0.13410  0.52690  Biso   1.000  C
  C60      1.0000 0.23530  0.08120  0.49180  Biso   1.000  C
  C61      1.0000 0.23240  0.01940  0.50040  Biso   1.000  C
  C62      1.0000 0.30630  0.01130  0.54430  Biso   1.000  C
  C63      1.0000 0.15700  0.08890  0.44330  Biso   1.000  C
  C64      1.0000 0.07340  0.33430  0.35955  Biso   1.000  C
  C65      1.0000 0.08620  0.45550  0.36640  Biso   1.000  C
  C66      1.0000 0.08880  0.50490  0.33650  Biso   1.000  C
  C67      1.0000 0.25520  0.52210  0.31800  Biso   1.000  C
  C68      1.0000 0.25640  0.56140  0.28530  Biso   1.000  C
  C69      1.0000 0.08610  0.58560  0.27260  Biso   1.000  C
  C70      1.0000 0.92050  0.57320  0.29490  Biso   1.000  C
  C71      1.0000 0.92110  0.53390  0.32700  Biso   1.000  C
  C72      1.0000 0.08360  0.62390  0.23510  Biso   1.000  C
  C73      1.0000 0.72160  0.25460  0.67810  Biso   1.000  C
  C74      1.0000 0.74020  0.26620  0.62790  Biso   1.000  C
  C75      1.0000 0.91130  0.25020  0.60290  Biso   1.000  C
  C76      1.0000 0.93450  0.26040  0.55590  Biso   1.000  C
  C77      1.0000 0.78570  0.28490  0.53440  Biso   1.000  C
  C78      1.0000 0.81130  0.29280  0.48280  Biso   1.000  C
  C79      1.0000 0.65730  0.18170  0.43928  Biso   1.000  C
  C80      1.0000 0.61840  0.30130  0.55960  Biso   1.000  C
  C81      1.0000 0.59450  0.29260  0.60710  Biso   1.000  C
  C82      1.0000 0.69150  0.90300  0.82120  Biso   1.000  C
  C83      1.0000 0.98260  0.94380  0.87321  Biso   1.000  C
  C84      1.0000 0.89110  0.93500  0.91976  Biso   1.000  C
  C85      1.0000 0.89520  0.87400  0.92900  Biso   1.000  C
  C86      1.0000 0.81720  0.86590  0.97310  Biso   1.000  C
  C87      1.0000 0.73530  0.91880  0.00820  Biso   1.000  C
  C88      1.0000 0.73240  0.98060  0.99960  Biso   1.000  C
  C89      1.0000 0.80630  0.98870  0.95570  Biso   1.000  C
  C90      1.0000 0.65700  0.91110  0.05670  Biso   1.000  C
  C91      1.0000 0.57340  0.66570  0.14045  Biso   1.000  C
  C92      1.0000 0.58620  0.54450  0.13360  Biso   1.000  C
  C93      1.0000 0.58880  0.49510  0.16350  Biso   1.000  C
  C94      1.0000 0.75520  0.47790  0.18200  Biso   1.000  C
  C95      1.0000 0.75640  0.43860  0.21470  Biso   1.000  C
  C96      1.0000 0.58610  0.41440  0.22740  Biso   1.000  C
  C97      1.0000 0.42050  0.42680  0.20510  Biso   1.000  C
  C98      1.0000 0.42110  0.46610  0.17300  Biso   1.000  C
  C99      1.0000 0.58360  0.37610  0.26490  Biso   1.000  C
  C100     1.0000 0.22160  0.74540  0.82190  Biso   1.000  C
  C101     1.0000 0.24020  0.73380  0.87210  Biso   1.000  C
  C102     1.0000 0.41130  0.74980  0.89710  Biso   1.000  C
  C103     1.0000 0.43450  0.73960  0.94410  Biso   1.000  C
  C104     1.0000 0.28570  0.71510  0.96560  Biso   1.000  C
  C105     1.0000 0.31130  0.70720  0.01720  Biso   1.000  C
  C106     1.0000 0.15730  0.81830  0.06072  Biso   1.000  C
  C107     1.0000 0.11840  0.69870  0.94040  Biso   1.000  C
  C108     1.0000 0.09450  0.70740  0.89290  Biso   1.000  C
  N1       1.0000 0.65740  0.95460  0.33565  Biso   1.000  N
  N2       1.0000 0.91560  0.61500  0.66843  Biso   1.000  N
  N3       1.0000 0.17690  0.77310  0.55687  Biso   1.000  N
  N4       1.0000 0.15740  0.04540  0.16435  Biso   1.000  N
  N5       1.0000 0.41560  0.38500  0.83157  Biso   1.000  N
  N6       1.0000 0.67690  0.22690  0.94313  Biso   1.000  N
  N7       1.0000 0.34260  0.04540  0.66435  Biso   1.000  N
  N8       1.0000 0.08440  0.38500  0.33157  Biso   1.000  N
  N9       1.0000 0.82310  0.22690  0.44313  Biso   1.000  N
  N10      1.0000 0.84260  0.95460  0.83565  Biso   1.000  N
  N11      1.0000 0.58440  0.61500  0.16843  Biso   1.000  N
  N12      1.0000 0.32310  0.77310  0.05687  Biso   1.000  N
  O1       1.0000 0.87440  0.96220  0.59296  Biso   1.000  O
  O2       1.0000 0.86770  0.85240  0.55983  Biso   1.000  O
  O3       1.0000 0.07280  0.98020  0.29843  Biso   1.000  O
  O4       1.0000 0.08760  0.85723  0.25671  Biso   1.000  O
  O5       1.0000 0.82850  0.92920  0.23348  Biso   1.000  O
  O6       1.0000 0.92710  0.79474  0.64596  Biso   1.000  O
  O7       1.0000 0.73180  0.76037  0.71030  Biso   1.000  O
  O8       1.0000 0.08190  0.76038  0.71663  Biso   1.000  O
  O9       1.0000 0.76440  0.36163  0.78262  Biso   1.000  O
  O10      1.0000 0.07160  0.35440  0.77606  Biso   1.000  O
  O11      1.0000 0.45240  0.74590  0.30628  Biso   1.000  O
  O12      1.0000 0.13950  0.75330  0.29794  Biso   1.000  O
  O13      1.0000 0.56020  0.90180  0.63088  Biso   1.000  O
  O14      1.0000 0.20730  0.90947  0.64263  Biso   1.000  O
  O15      1.0000 0.38090  0.80634  0.65022  Biso   1.000  O
  O16      1.0000 0.06920  0.92171  0.74480  Biso   1.000  O
  O17      1.0000 0.07850  0.66290  0.12057  Biso   1.000  O
  O18      1.0000 0.37440  0.03780  0.90704  Biso   1.000  O
  O19      1.0000 0.36770  0.14760  0.94017  Biso   1.000  O
  O20      1.0000 0.57280  0.01980  0.20157  Biso   1.000  O
  O21      1.0000 0.58760  0.14277  0.24329  Biso   1.000  O
  O22      1.0000 0.32850  0.07080  0.26652  Biso   1.000  O
  O23      1.0000 0.42710  0.20526  0.85404  Biso   1.000  O
  O24      1.0000 0.23180  0.23963  0.78970  Biso   1.000  O
  O25      1.0000 0.58190  0.23962  0.78337  Biso   1.000  O
  O26      1.0000 0.26440  0.63837  0.71738  Biso   1.000  O
  O27      1.0000 0.57160  0.64560  0.72394  Biso   1.000  O
  O28      1.0000 0.95240  0.25410  0.19372  Biso   1.000  O
  O29      1.0000 0.63950  0.24670  0.20206  Biso   1.000  O
  O30      1.0000 0.06020  0.09820  0.86912  Biso   1.000  O
  O31      1.0000 0.70730  0.09053  0.85737  Biso   1.000  O
  O32      1.0000 0.88090  0.19366  0.84978  Biso   1.000  O
  O33      1.0000 0.56920  0.07829  0.75520  Biso   1.000  O
  O34      1.0000 0.57850  0.33710  0.37943  Biso   1.000  O
  O35      1.0000 0.12560  0.03780  0.40704  Biso   1.000  O
  O36      1.0000 0.13230  0.14760  0.44017  Biso   1.000  O
  O37      1.0000 0.92720  0.01980  0.70157  Biso   1.000  O
  O38      1.0000 0.91240  0.14277  0.74329  Biso   1.000  O
  O39      1.0000 0.17150  0.07080  0.76652  Biso   1.000  O
  O40      1.0000 0.07290  0.20526  0.35404  Biso   1.000  O
  O41      1.0000 0.26820  0.23963  0.28970  Biso   1.000  O
  O42      1.0000 0.91810  0.23962  0.28337  Biso   1.000  O
  O43      1.0000 0.23560  0.63837  0.21738  Biso   1.000  O
  O44      1.0000 0.92840  0.64560  0.22394  Biso   1.000  O
  O45      1.0000 0.54760  0.25410  0.69372  Biso   1.000  O
  O46      1.0000 0.86050  0.24670  0.70206  Biso   1.000  O
  O47      1.0000 0.43980  0.09820  0.36912  Biso   1.000  O
  O48      1.0000 0.79270  0.09053  0.35737  Biso   1.000  O
  O49      1.0000 0.61910  0.19366  0.34978  Biso   1.000  O
  O50      1.0000 0.93080  0.07829  0.25520  Biso   1.000  O
  O51      1.0000 0.92150  0.33710  0.87943  Biso   1.000  O
  O52      1.0000 0.62560  0.96220  0.09296  Biso   1.000  O
  O53      1.0000 0.63230  0.85240  0.05983  Biso   1.000  O
  O54      1.0000 0.42720  0.98020  0.79843  Biso   1.000  O
  O55      1.0000 0.41240  0.85723  0.75671  Biso   1.000  O
  O56      1.0000 0.67150  0.92920  0.73348  Biso   1.000  O
  O57      1.0000 0.57290  0.79474  0.14596  Biso   1.000  O
  O58      1.0000 0.76820  0.76037  0.21030  Biso   1.000  O
  O59      1.0000 0.41810  0.76038  0.21663  Biso   1.000  O
  O60      1.0000 0.73560  0.36163  0.28262  Biso   1.000  O
  O61      1.0000 0.42840  0.35440  0.27606  Biso   1.000  O
  O62      1.0000 0.04760  0.74590  0.80628  Biso   1.000  O
  O63      1.0000 0.36050  0.75330  0.79794  Biso   1.000  O
  O64      1.0000 0.93980  0.90180  0.13088  Biso   1.000  O
  O65      1.0000 0.29270  0.90947  0.14263  Biso   1.000  O
  O66      1.0000 0.11910  0.80634  0.15022  Biso   1.000  O
  O67      1.0000 0.43080  0.92171  0.24480  Biso   1.000  O
  O68      1.0000 0.42150  0.66290  0.62057  Biso   1.000  O
