data_image0
_cell_length_a       9.8108
_cell_length_b       10.4971
_cell_length_c       12.3568
_cell_angle_alpha    68.336
_cell_angle_beta     87.529
_cell_angle_gamma    68.261

_symmetry_space_group_name_H-M    "P 1"
_symmetry_int_tables_number       1

loop_
  _symmetry_equiv_pos_as_xyz
  'x, y, z'

loop_
  _atom_site_label
  _atom_site_occupancy
  _atom_site_fract_x
  _atom_site_fract_y
  _atom_site_fract_z
  _atom_site_thermal_displace_type
  _atom_site_B_iso_or_equiv
  _atom_site_type_symbol
  Pb1      1.0000 0.04881  0.38588  0.72176  Biso   1.000  Pb
  Sr1      1.0000 0.95485  0.81461  0.49883  Biso   1.000  Sr
  O1       1.0000 0.11770  0.47000  0.86680  Biso   1.000  O
  O2       1.0000 0.06410  0.66630  0.70070  Biso   1.000  O
  O3       1.0000 0.10730  0.12040  0.71180  Biso   1.000  O
  O4       1.0000 0.17660  0.12220  0.87860  Biso   1.000  O
  O5       1.0000 0.86830  0.42410  0.53240  Biso   1.000  O
  O6       1.0000 0.82750  0.62440  0.57040  Biso   1.000  O
  O7       1.0000 0.30580  0.00850  0.48490  Biso   1.000  O
  O8       1.0000 0.13470  0.93970  0.44520  Biso   1.000  O
  O9       1.0000 0.14530  0.65190  0.18290  Biso   1.000  O
  O10      1.0000 0.42590  0.56960  0.25680  Biso   1.000  O
  H1       1.0000 0.33650  0.60250  0.23960  Biso   1.000  H
  C1       1.0000 0.10080  0.60430  0.80970  Biso   1.000  C
  C2       1.0000 0.14320  0.05970  0.82200  Biso   1.000  C
  C3       1.0000 0.78590  0.55400  0.52470  Biso   1.000  C
  C4       1.0000 0.26870  0.92390  0.45440  Biso   1.000  C
  C5       1.0000 0.11790  0.69060  0.87640  Biso   1.000  C
  C6       1.0000 0.12240  0.63460  0.99740  Biso   1.000  C
  H2       1.0000 0.11480  0.54310  0.03510  Biso   1.000  H
  C7       1.0000 0.13790  0.71150  0.06450  Biso   1.000  C
  C8       1.0000 0.14700  0.84910  0.00550  Biso   1.000  C
  H3       1.0000 0.15890  0.90230  0.04760  Biso   1.000  H
  C9       1.0000 0.13830  0.90760  0.88400  Biso   1.000  C
  C10      1.0000 0.12270  0.83090  0.81810  Biso   1.000  C
  H4       1.0000 0.11560  0.87190  0.73670  Biso   1.000  H
  C11      1.0000 0.63560  0.62660  0.45790  Biso   1.000  C
  C12      1.0000 0.59870  0.56770  0.38460  Biso   1.000  C
  H5       1.0000 0.66950  0.48700  0.37310  Biso   1.000  H
  C13      1.0000 0.45600  0.62930  0.32850  Biso   1.000  C
  C14      1.0000 0.34630  0.74580  0.35300  Biso   1.000  C
  H6       1.0000 0.24910  0.78370  0.32020  Biso   1.000  H
  C15      1.0000 0.38520  0.80200  0.42590  Biso   1.000  C
  C16      1.0000 0.52990  0.74560  0.47620  Biso   1.000  C
  H7       1.0000 0.55570  0.78780  0.52210  Biso   1.000  H
  Pb2      1.0000 0.95119  0.61412  0.27824  Biso   1.000  Pb
  Sr2      1.0000 0.04515  0.18539  0.50117  Biso   1.000  Sr
  O11      1.0000 0.88230  0.53000  0.13320  Biso   1.000  O
  O12      1.0000 0.93590  0.33370  0.29930  Biso   1.000  O
  O13      1.0000 0.89270  0.87960  0.28820  Biso   1.000  O
  O14      1.0000 0.82340  0.87780  0.12140  Biso   1.000  O
  O15      1.0000 0.13170  0.57590  0.46760  Biso   1.000  O
  O16      1.0000 0.17250  0.37560  0.42960  Biso   1.000  O
  O17      1.0000 0.69420  0.99150  0.51510  Biso   1.000  O
  O18      1.0000 0.86530  0.06030  0.55480  Biso   1.000  O
  O19      1.0000 0.85470  0.34810  0.81710  Biso   1.000  O
  O20      1.0000 0.57410  0.43040  0.74320  Biso   1.000  O
  H8       1.0000 0.66350  0.39750  0.76040  Biso   1.000  H
  C17      1.0000 0.89920  0.39570  0.19030  Biso   1.000  C
  C18      1.0000 0.85680  0.94030  0.17800  Biso   1.000  C
  C19      1.0000 0.21410  0.44600  0.47530  Biso   1.000  C
  C20      1.0000 0.73130  0.07610  0.54560  Biso   1.000  C
  C21      1.0000 0.88210  0.30940  0.12360  Biso   1.000  C
  C22      1.0000 0.87760  0.36540  0.00260  Biso   1.000  C
  H9       1.0000 0.88520  0.45690  0.96490  Biso   1.000  H
  C23      1.0000 0.86210  0.28850  0.93550  Biso   1.000  C
  C24      1.0000 0.85300  0.15090  0.99450  Biso   1.000  C
  H10      1.0000 0.84110  0.09770  0.95240  Biso   1.000  H
  C25      1.0000 0.86170  0.09240  0.11600  Biso   1.000  C
  C26      1.0000 0.87730  0.16910  0.18190  Biso   1.000  C
  H11      1.0000 0.88440  0.12810  0.26330  Biso   1.000  H
  C27      1.0000 0.36440  0.37340  0.54210  Biso   1.000  C
  C28      1.0000 0.40130  0.43230  0.61540  Biso   1.000  C
  H12      1.0000 0.33050  0.51300  0.62690  Biso   1.000  H
  C29      1.0000 0.54400  0.37070  0.67150  Biso   1.000  C
  C30      1.0000 0.65370  0.25420  0.64700  Biso   1.000  C
  H13      1.0000 0.75090  0.21630  0.67980  Biso   1.000  H
  C31      1.0000 0.61480  0.19800  0.57410  Biso   1.000  C
  C32      1.0000 0.47010  0.25440  0.52380  Biso   1.000  C
  H14      1.0000 0.44430  0.21220  0.47790  Biso   1.000  H
