data_image0
_cell_length_a       12.8377
_cell_length_b       12.8377
_cell_length_c       19.0457
_cell_angle_alpha    83.7766
_cell_angle_beta     83.7766
_cell_angle_gamma    68.7446

_symmetry_space_group_name_H-M    P 1
_symmetry_int_tables_number       1

loop_
  _symmetry_equiv_pos_as_xyz
  'x, y, z'

loop_
  _atom_site_label
  _atom_site_occupancy
  _atom_site_fract_x
  _atom_site_fract_y
  _atom_site_fract_z
  _atom_site_thermal_displace_type
  _atom_site_B_iso_or_equiv
  _atom_site_type_symbol
  Zn1      1.0000 0.72382  0.93570  0.77443  Biso   1.000  Zn
  Zn2      1.0000 0.10791  0.71295  0.56022  Biso   1.000  Zn
  Zn3      1.0000 0.06430  0.27618  0.72557  Biso   1.000  Zn
  Zn4      1.0000 0.28705  0.89209  0.93978  Biso   1.000  Zn
  Zn5      1.0000 0.27618  0.06430  0.22557  Biso   1.000  Zn
  Zn6      1.0000 0.89209  0.28705  0.43978  Biso   1.000  Zn
  Zn7      1.0000 0.93570  0.72382  0.27443  Biso   1.000  Zn
  Zn8      1.0000 0.71295  0.10791  0.06022  Biso   1.000  Zn
  Zn9      1.0000 0.89308  0.10692  0.75000  Biso   1.000  Zn
  Zn10     1.0000 0.10692  0.89308  0.25000  Biso   1.000  Zn
  H1       1.0000 0.04530  0.52090  0.59500  Biso   1.000  H
  H2       1.0000 0.94510  0.60510  0.57060  Biso   1.000  H
  H3       1.0000 0.64830  0.32030  0.62300  Biso   1.000  H
  H4       1.0000 0.51300  0.46720  0.56700  Biso   1.000  H
  H5       1.0000 0.41340  0.19900  0.71080  Biso   1.000  H
  H6       1.0000 0.85540  0.14780  0.91740  Biso   1.000  H
  H7       1.0000 0.67010  0.96410  0.94530  Biso   1.000  H
  H8       1.0000 0.07780  0.92740  0.64420  Biso   1.000  H
  H9       1.0000 0.88050  0.75650  0.66240  Biso   1.000  H
  H10      1.0000 0.47910  0.95470  0.90500  Biso   1.000  H
  H11      1.0000 0.39490  0.05490  0.92940  Biso   1.000  H
  H12      1.0000 0.67970  0.35170  0.87700  Biso   1.000  H
  H13      1.0000 0.53280  0.48700  0.93300  Biso   1.000  H
  H14      1.0000 0.80100  0.58660  0.78920  Biso   1.000  H
  H15      1.0000 0.85220  0.14460  0.58260  Biso   1.000  H
  H16      1.0000 0.03590  0.32990  0.55470  Biso   1.000  H
  H17      1.0000 0.07260  0.92220  0.85580  Biso   1.000  H
  H18      1.0000 0.24350  0.11950  0.83760  Biso   1.000  H
  H19      1.0000 0.95470  0.47910  0.40500  Biso   1.000  H
  H20      1.0000 0.05490  0.39490  0.42940  Biso   1.000  H
  H21      1.0000 0.35170  0.67970  0.37700  Biso   1.000  H
  H22      1.0000 0.48700  0.53280  0.43300  Biso   1.000  H
  H23      1.0000 0.58660  0.80100  0.28920  Biso   1.000  H
  H24      1.0000 0.14460  0.85220  0.08260  Biso   1.000  H
  H25      1.0000 0.32990  0.03590  0.05470  Biso   1.000  H
  H26      1.0000 0.92220  0.07260  0.35580  Biso   1.000  H
  H27      1.0000 0.11950  0.24350  0.33760  Biso   1.000  H
  H28      1.0000 0.52090  0.04530  0.09500  Biso   1.000  H
  H29      1.0000 0.60510  0.94510  0.07060  Biso   1.000  H
  H30      1.0000 0.32030  0.64830  0.12300  Biso   1.000  H
  H31      1.0000 0.46720  0.51300  0.06700  Biso   1.000  H
  H32      1.0000 0.19900  0.41340  0.21080  Biso   1.000  H
  H33      1.0000 0.14780  0.85540  0.41740  Biso   1.000  H
  H34      1.0000 0.96410  0.67010  0.44530  Biso   1.000  H
  H35      1.0000 0.92740  0.07780  0.14420  Biso   1.000  H
  H36      1.0000 0.75650  0.88050  0.16240  Biso   1.000  H
  C1       1.0000 0.63418  0.14512  0.70530  Biso   1.000  C
  C2       1.0000 0.54502  0.24306  0.67160  Biso   1.000  C
  C3       1.0000 0.57388  0.32508  0.62901  Biso   1.000  C
  C4       1.0000 0.49275  0.41315  0.59572  Biso   1.000  C
  C5       1.0000 0.38072  0.42206  0.60456  Biso   1.000  C
  C6       1.0000 0.35044  0.34246  0.64902  Biso   1.000  C
  C7       1.0000 0.43329  0.25287  0.68176  Biso   1.000  C
  C8       1.0000 0.29551  0.52093  0.56758  Biso   1.000  C
  C9       1.0000 0.23147  0.34641  0.66002  Biso   1.000  C
  C10      1.0000 0.81778  0.10102  0.90937  Biso   1.000  C
  C11      1.0000 0.71730  0.00116  0.92468  Biso   1.000  C
  C12      1.0000 0.01816  0.90316  0.65815  Biso   1.000  C
  C13      1.0000 0.91113  0.81029  0.66788  Biso   1.000  C
  C14      1.0000 0.85488  0.36582  0.79470  Biso   1.000  C
  C15      1.0000 0.75694  0.45498  0.82840  Biso   1.000  C
  C16      1.0000 0.67492  0.42612  0.87099  Biso   1.000  C
  C17      1.0000 0.58685  0.50725  0.90428  Biso   1.000  C
  C18      1.0000 0.57794  0.61928  0.89544  Biso   1.000  C
  C19      1.0000 0.65754  0.64956  0.85098  Biso   1.000  C
  C20      1.0000 0.74713  0.56671  0.81824  Biso   1.000  C
  C21      1.0000 0.47907  0.70449  0.93242  Biso   1.000  C
  C22      1.0000 0.65359  0.76853  0.83998  Biso   1.000  C
  C23      1.0000 0.89898  0.18222  0.59063  Biso   1.000  C
  C24      1.0000 0.99884  0.28270  0.57532  Biso   1.000  C
  C25      1.0000 0.09684  0.98184  0.84185  Biso   1.000  C
  C26      1.0000 0.18971  0.08887  0.83212  Biso   1.000  C
  C27      1.0000 0.36582  0.85488  0.29470  Biso   1.000  C
  C28      1.0000 0.45498  0.75694  0.32840  Biso   1.000  C
  C29      1.0000 0.42612  0.67492  0.37099  Biso   1.000  C
  C30      1.0000 0.50725  0.58685  0.40428  Biso   1.000  C
  C31      1.0000 0.61928  0.57794  0.39544  Biso   1.000  C
  C32      1.0000 0.64956  0.65754  0.35098  Biso   1.000  C
  C33      1.0000 0.56671  0.74713  0.31824  Biso   1.000  C
  C34      1.0000 0.70449  0.47907  0.43242  Biso   1.000  C
  C35      1.0000 0.76853  0.65359  0.33998  Biso   1.000  C
  C36      1.0000 0.18222  0.89898  0.09063  Biso   1.000  C
  C37      1.0000 0.28270  0.99884  0.07532  Biso   1.000  C
  C38      1.0000 0.98184  0.09684  0.34185  Biso   1.000  C
  C39      1.0000 0.08887  0.18971  0.33212  Biso   1.000  C
  C40      1.0000 0.14512  0.63418  0.20530  Biso   1.000  C
  C41      1.0000 0.24306  0.54502  0.17160  Biso   1.000  C
  C42      1.0000 0.32508  0.57388  0.12901  Biso   1.000  C
  C43      1.0000 0.41315  0.49275  0.09572  Biso   1.000  C
  C44      1.0000 0.42206  0.38072  0.10456  Biso   1.000  C
  C45      1.0000 0.34246  0.35044  0.14902  Biso   1.000  C
  C46      1.0000 0.25287  0.43329  0.18176  Biso   1.000  C
  C47      1.0000 0.52093  0.29551  0.06758  Biso   1.000  C
  C48      1.0000 0.34641  0.23147  0.16002  Biso   1.000  C
  C49      1.0000 0.10102  0.81778  0.40937  Biso   1.000  C
  C50      1.0000 0.00116  0.71730  0.42468  Biso   1.000  C
  C51      1.0000 0.90316  0.01816  0.15815  Biso   1.000  C
  C52      1.0000 0.81029  0.91113  0.16788  Biso   1.000  C
  N1       1.0000 0.82058  0.06352  0.84724  Biso   1.000  N
  N2       1.0000 0.75523  0.99787  0.85775  Biso   1.000  N
  N3       1.0000 0.75465  0.06449  0.95999  Biso   1.000  N
  N4       1.0000 0.93579  0.95213  0.70470  Biso   1.000  N
  N5       1.0000 0.86586  0.89172  0.71085  Biso   1.000  N
  N6       1.0000 0.00676  0.81402  0.63287  Biso   1.000  N
  N7       1.0000 0.93648  0.17942  0.65276  Biso   1.000  N
  N8       1.0000 0.00213  0.24477  0.64225  Biso   1.000  N
  N9       1.0000 0.93551  0.24535  0.54001  Biso   1.000  N
  N10      1.0000 0.04787  0.06421  0.79530  Biso   1.000  N
  N11      1.0000 0.10828  0.13414  0.78915  Biso   1.000  N
  N12      1.0000 0.18598  0.99324  0.86713  Biso   1.000  N
  N13      1.0000 0.17942  0.93648  0.15276  Biso   1.000  N
  N14      1.0000 0.24477  0.00213  0.14225  Biso   1.000  N
  N15      1.0000 0.24535  0.93551  0.04001  Biso   1.000  N
  N16      1.0000 0.06421  0.04787  0.29530  Biso   1.000  N
  N17      1.0000 0.13414  0.10828  0.28915  Biso   1.000  N
  N18      1.0000 0.99324  0.18598  0.36713  Biso   1.000  N
  N19      1.0000 0.06352  0.82058  0.34724  Biso   1.000  N
  N20      1.0000 0.99787  0.75523  0.35775  Biso   1.000  N
  N21      1.0000 0.06449  0.75465  0.45999  Biso   1.000  N
  N22      1.0000 0.95213  0.93579  0.20470  Biso   1.000  N
  N23      1.0000 0.89172  0.86586  0.21085  Biso   1.000  N
  N24      1.0000 0.81402  0.00676  0.13287  Biso   1.000  N
  O1       1.0000 0.72740  0.15154  0.70886  Biso   1.000  O
  O2       1.0000 0.60699  0.05997  0.72772  Biso   1.000  O
  O3       1.0000 0.23286  0.59614  0.60641  Biso   1.000  O
  O4       1.0000 0.29329  0.52513  0.50279  Biso   1.000  O
  O5       1.0000 0.16561  0.39267  0.61420  Biso   1.000  O
  O6       1.0000 0.20721  0.29665  0.71722  Biso   1.000  O
  O7       1.0000 0.01863  0.60025  0.57889  Biso   1.000  O
  O8       1.0000 0.84846  0.27260  0.79114  Biso   1.000  O
  O9       1.0000 0.94003  0.39301  0.77228  Biso   1.000  O
  O10      1.0000 0.40386  0.76714  0.89359  Biso   1.000  O
  O11      1.0000 0.47487  0.70671  0.99721  Biso   1.000  O
  O12      1.0000 0.60733  0.83439  0.88580  Biso   1.000  O
  O13      1.0000 0.70335  0.79279  0.78278  Biso   1.000  O
  O14      1.0000 0.39975  0.98137  0.92111  Biso   1.000  O
  O15      1.0000 0.27260  0.84846  0.29114  Biso   1.000  O
  O16      1.0000 0.39301  0.94003  0.27228  Biso   1.000  O
  O17      1.0000 0.76714  0.40386  0.39359  Biso   1.000  O
  O18      1.0000 0.70671  0.47487  0.49721  Biso   1.000  O
  O19      1.0000 0.83439  0.60733  0.38580  Biso   1.000  O
  O20      1.0000 0.79279  0.70335  0.28278  Biso   1.000  O
  O21      1.0000 0.98137  0.39975  0.42111  Biso   1.000  O
  O22      1.0000 0.15154  0.72740  0.20886  Biso   1.000  O
  O23      1.0000 0.05997  0.60699  0.22772  Biso   1.000  O
  O24      1.0000 0.59614  0.23286  0.10641  Biso   1.000  O
  O25      1.0000 0.52513  0.29329  0.00279  Biso   1.000  O
  O26      1.0000 0.39267  0.16561  0.11420  Biso   1.000  O
  O27      1.0000 0.29665  0.20721  0.21722  Biso   1.000  O
  O28      1.0000 0.60025  0.01863  0.07889  Biso   1.000  O
