data_image0
_cell_length_a       9.3037
_cell_length_b       9.5728
_cell_length_c       18.669
_cell_angle_alpha    82.061
_cell_angle_beta     79.153
_cell_angle_gamma    72.695

_symmetry_space_group_name_H-M    "P 1"
_symmetry_int_tables_number       1

loop_
  _symmetry_equiv_pos_as_xyz
  'x, y, z'

loop_
  _atom_site_label
  _atom_site_occupancy
  _atom_site_fract_x
  _atom_site_fract_y
  _atom_site_fract_z
  _atom_site_thermal_displace_type
  _atom_site_B_iso_or_equiv
  _atom_site_type_symbol
  Cd1      1.0000 0.20750  0.82020  0.10807  Biso   1.000  Cd
  Cd2      1.0000 0.10107  0.76459  0.43271  Biso   1.000  Cd
  C1       1.0000 0.14970  0.15430  0.30750  Biso   1.000  C
  C2       1.0000 0.18580  0.17090  0.23050  Biso   1.000  C
  C3       1.0000 0.20310  0.30380  0.19650  Biso   1.000  C
  H1       1.0000 0.23600  0.31100  0.13900  Biso   1.000  H
  C4       1.0000 0.18570  0.42240  0.23620  Biso   1.000  C
  C5       1.0000 0.15400  0.40510  0.31310  Biso   1.000  C
  C6       1.0000 0.13360  0.27290  0.34810  Biso   1.000  C
  C7       1.0000 0.13960  0.53030  0.35850  Biso   1.000  C
  C8       1.0000 0.19890  0.56660  0.19500  Biso   1.000  C
  C9       1.0000 0.12910  0.01130  0.34800  Biso   1.000  C
  C10      1.0000 0.19850  0.04920  0.18400  Biso   1.000  C
  C11      1.0000 0.08830  0.25590  0.43050  Biso   1.000  C
  C12      1.0000 0.94540  0.45890  0.01920  Biso   1.000  C
  H2       1.0000 0.95100  0.38100  0.99300  Biso   1.000  H
  H3       1.0000 0.00100  0.42800  0.06300  Biso   1.000  H
  C13      1.0000 0.77940  0.54510  0.03130  Biso   1.000  C
  C14      1.0000 0.56750  0.76210  0.03340  Biso   1.000  C
  H4       1.0000 0.53260  0.86300  0.02230  Biso   1.000  H
  C15      1.0000 0.72350  0.69610  0.01480  Biso   1.000  C
  H5       1.0000 0.78860  0.75170  0.99190  Biso   1.000  H
  C16      1.0000 0.52120  0.54750  0.07880  Biso   1.000  C
  H6       1.0000 0.45300  0.49440  0.10070  Biso   1.000  H
  C17      1.0000 0.67240  0.47110  0.06200  Biso   1.000  C
  H7       1.0000 0.70270  0.36940  0.07140  Biso   1.000  H
  C18      1.0000 0.92850  0.99330  0.02720  Biso   1.000  C
  N1       1.0000 0.46560  0.69370  0.06550  Biso   1.000  N
  O1       1.0000 0.22700  0.85560  0.50660  Biso   1.000  O
  H8       1.0000 0.22750  0.93990  0.49100  Biso   1.000  H
  O2       1.0000 0.80120  0.06700  0.00950  Biso   1.000  O
  O3       1.0000 0.02160  0.63680  0.35930  Biso   1.000  O
  O4       1.0000 0.24330  0.52100  0.39430  Biso   1.000  O
  O5       1.0000 0.96530  0.34500  0.45560  Biso   1.000  O
  O6       1.0000 0.15290  0.59880  0.13410  Biso   1.000  O
  O7       1.0000 0.25590  0.64540  0.22170  Biso   1.000  O
  O8       1.0000 0.00140  0.01130  0.38620  Biso   1.000  O
  O9       1.0000 0.24030  0.89930  0.34370  Biso   1.000  O
  O10      1.0000 0.09980  0.98190  0.19850  Biso   1.000  O
  O11      1.0000 0.30510  0.02360  0.13120  Biso   1.000  O
  O12      1.0000 0.94870  0.90920  0.08370  Biso   1.000  O
  O13      1.0000 0.16690  0.15700  0.46850  Biso   1.000  O
  Cd3      1.0000 0.79250  0.17980  0.89193  Biso   1.000  Cd
  Cd4      1.0000 0.89893  0.23541  0.56729  Biso   1.000  Cd
  C19      1.0000 0.85030  0.84570  0.69250  Biso   1.000  C
  C20      1.0000 0.81420  0.82910  0.76950  Biso   1.000  C
  C21      1.0000 0.79690  0.69620  0.80350  Biso   1.000  C
  H9       1.0000 0.76400  0.68900  0.86100  Biso   1.000  H
  C22      1.0000 0.81430  0.57760  0.76380  Biso   1.000  C
  C23      1.0000 0.84600  0.59490  0.68690  Biso   1.000  C
  C24      1.0000 0.86640  0.72710  0.65190  Biso   1.000  C
  C25      1.0000 0.86040  0.46970  0.64150  Biso   1.000  C
  C26      1.0000 0.80110  0.43340  0.80500  Biso   1.000  C
  C27      1.0000 0.87090  0.98870  0.65200  Biso   1.000  C
  C28      1.0000 0.80150  0.95080  0.81600  Biso   1.000  C
  C29      1.0000 0.91170  0.74410  0.56950  Biso   1.000  C
  C30      1.0000 0.05460  0.54110  0.98080  Biso   1.000  C
  H10      1.0000 0.04900  0.61900  0.00700  Biso   1.000  H
  H11      1.0000 0.99900  0.57200  0.93700  Biso   1.000  H
  C31      1.0000 0.22060  0.45490  0.96870  Biso   1.000  C
  C32      1.0000 0.43250  0.23790  0.96660  Biso   1.000  C
  H12      1.0000 0.46740  0.13700  0.97770  Biso   1.000  H
  C33      1.0000 0.27650  0.30390  0.98520  Biso   1.000  C
  H13      1.0000 0.21140  0.24830  0.00810  Biso   1.000  H
  C34      1.0000 0.47880  0.45250  0.92120  Biso   1.000  C
  H14      1.0000 0.54700  0.50560  0.89930  Biso   1.000  H
  C35      1.0000 0.32760  0.52890  0.93800  Biso   1.000  C
  H15      1.0000 0.29730  0.63060  0.92860  Biso   1.000  H
  C36      1.0000 0.07150  0.00670  0.97280  Biso   1.000  C
  N2       1.0000 0.53440  0.30630  0.93450  Biso   1.000  N
  O14      1.0000 0.77300  0.14440  0.49340  Biso   1.000  O
  H16      1.0000 0.77250  0.06010  0.50900  Biso   1.000  H
  O15      1.0000 0.19880  0.93300  0.99050  Biso   1.000  O
  O16      1.0000 0.97840  0.36320  0.64070  Biso   1.000  O
  O17      1.0000 0.75670  0.47900  0.60570  Biso   1.000  O
  O18      1.0000 0.03470  0.65500  0.54440  Biso   1.000  O
  O19      1.0000 0.84710  0.40120  0.86590  Biso   1.000  O
  O20      1.0000 0.74410  0.35460  0.77830  Biso   1.000  O
  O21      1.0000 0.99860  0.98870  0.61380  Biso   1.000  O
  O22      1.0000 0.75970  0.10070  0.65630  Biso   1.000  O
  O23      1.0000 0.90020  0.01810  0.80150  Biso   1.000  O
  O24      1.0000 0.69490  0.97640  0.86880  Biso   1.000  O
  O25      1.0000 0.05130  0.09080  0.91630  Biso   1.000  O
  O26      1.0000 0.83310  0.84300  0.53150  Biso   1.000  O
