data_LAJDUV_charged
_audit_creation_date              2014-07-02
_audit_creation_method            'Materials Studio'
_symmetry_space_group_name_H-M    'P1'
_symmetry_Int_Tables_number       1
_symmetry_cell_setting            triclinic
loop_
_symmetry_equiv_pos_as_xyz
  x,y,z
_cell_length_a                    8.9350
_cell_length_b                    8.9350
_cell_length_c                    10.8780
_cell_angle_alpha                 90.0000
_cell_angle_beta                  90.0000
_cell_angle_gamma                 120.0000
loop_
_atom_site_label
_atom_site_type_symbol
_atom_site_fract_x
_atom_site_fract_y
_atom_site_fract_z
_atom_site_U_iso_or_equiv
_atom_site_adp_type
_atom_site_occupancy
Ti1    Ti    0.50000  -0.00000   0.66667   0.01267  Uiso   1.00
Ti2    Ti    0.50000   0.50000   0.00000   0.01267  Uiso   1.00
Ti3    Ti    0.00000   0.50000   0.33333   0.01267  Uiso   1.00
C1     C     0.30800   0.69200   0.50000   0.01267  Uiso   1.00
C2     C     0.21045   0.78955   0.50000   0.01267  Uiso   1.00
C3     C     0.38400   0.69200   0.83333   0.01267  Uiso   1.00
C4     C     0.57910   0.78955   0.83333   0.01267  Uiso   1.00
C5     C     0.30800   0.61600   0.16667   0.01267  Uiso   1.00
C6     C     0.21045   0.42090   0.16667   0.01267  Uiso   1.00
C7     C     0.69200   0.30800   0.50000   0.01267  Uiso   1.00
C8     C     0.78955   0.21045   0.50000   0.01267  Uiso   1.00
C9     C     0.61600   0.30800   0.83333   0.01267  Uiso   1.00
C10    C     0.42090   0.21045   0.83333   0.01267  Uiso   1.00
C11    C     0.69200   0.38400   0.16667   0.01267  Uiso   1.00
C12    C     0.78955   0.57910   0.16667   0.01267  Uiso   1.00
O1     O     0.44890   0.76290   0.55700   0.01267  Uiso   1.00
O2     O     0.07680   0.72730   0.43720   0.01267  Uiso   1.00
O3     O     0.31400   0.55110   0.89033   0.01267  Uiso   1.00
O4     O     0.65050   0.92320   0.77053   0.01267  Uiso   1.00
O5     O     0.23710   0.68600   0.22367   0.01267  Uiso   1.00
O6     O     0.27270   0.34950   0.10387   0.01267  Uiso   1.00
O7     O     0.55110   0.23710   0.55700   0.01267  Uiso   1.00
O8     O     0.92320   0.27270   0.43720   0.01267  Uiso   1.00
O9     O     0.68600   0.44890   0.89033   0.01267  Uiso   1.00
O10    O     0.34950   0.07680   0.77053   0.01267  Uiso   1.00
O11    O     0.76290   0.31400   0.22367   0.01267  Uiso   1.00
O12    O     0.72730   0.65050   0.10387   0.01267  Uiso   1.00
O13    O     0.68600   0.23710   0.77633   0.01267  Uiso   1.00
O14    O     0.34950   0.27270   0.89613   0.01267  Uiso   1.00
O15    O     0.76290   0.44890   0.44300   0.01267  Uiso   1.00
O16    O     0.72730   0.07680   0.56280   0.01267  Uiso   1.00
O17    O     0.55110   0.31400   0.10967   0.01267  Uiso   1.00
O18    O     0.92320   0.65050   0.22947   0.01267  Uiso   1.00
O19    O     0.31400   0.76290   0.77633   0.01267  Uiso   1.00
O20    O     0.65050   0.72730   0.89613   0.01267  Uiso   1.00
O21    O     0.23710   0.55110   0.44300   0.01267  Uiso   1.00
O22    O     0.27270   0.92320   0.56280   0.01267  Uiso   1.00
O23    O     0.44890   0.68600   0.10967   0.01267  Uiso   1.00
O24    O     0.07680   0.34950   0.22947   0.01267  Uiso   1.00
H1     H     0.02820   0.10970   0.94940   0.01267  Uiso   1.00
H2     H     0.97180   0.89030   0.94940   0.01267  Uiso   1.00
H3     H     0.10970   0.02820   0.05060   0.01267  Uiso   1.00
H4     H     0.89030   0.97180   0.05060   0.01267  Uiso   1.00
N1     N     0.00000   0.00000   0.00000   0.01267  Uiso   1.00
H5     H     0.08150   0.97180   0.28273   0.01267  Uiso   1.00
H6     H     0.91850   0.02820   0.28273   0.01267  Uiso   1.00
H7     H     0.91850   0.89030   0.38393   0.01267  Uiso   1.00
H8     H     0.08150   0.10970   0.38393   0.01267  Uiso   1.00
N2     N     0.00000   0.00000   0.33333   0.01267  Uiso   1.00
H9     H     0.89030   0.91850   0.61607   0.01267  Uiso   1.00
H10    H     0.10970   0.08150   0.61607   0.01267  Uiso   1.00
H11    H     0.97180   0.08150   0.71727   0.01267  Uiso   1.00
H12    H     0.02820   0.91850   0.71727   0.01267  Uiso   1.00
N3     N     0.00000   0.00000   0.66667   0.01267  Uiso   1.00
