data_image0
_cell_length_a       12.0648
_cell_length_b       8.1918
_cell_length_c       7.4807
_cell_angle_alpha    90
_cell_angle_beta     97.035
_cell_angle_gamma    90

_symmetry_space_group_name_H-M    "P 1"
_symmetry_int_tables_number       1

loop_
  _symmetry_equiv_pos_as_xyz
  'x, y, z'

loop_
  _atom_site_label
  _atom_site_occupancy
  _atom_site_fract_x
  _atom_site_fract_y
  _atom_site_fract_z
  _atom_site_thermal_displace_type
  _atom_site_B_iso_or_equiv
  _atom_site_type_symbol
  Cu1      1.0000 0.43250  0.38320  0.88180  Biso   1.000  Cu
  Cu2      1.0000 0.10580  0.21270  0.18160  Biso   1.000  Cu
  N1       1.0000 0.52680  0.19080  0.82600  Biso   1.000  N
  N2       1.0000 0.30860  0.30300  0.99590  Biso   1.000  N
  C1       1.0000 0.03250  0.01700  0.23430  Biso   1.000  C
  C2       1.0000 0.54330  0.07750  0.74090  Biso   1.000  C
  C3       1.0000 0.23210  0.26260  0.06410  Biso   1.000  C
  N3       1.0000 0.97850  0.90750  0.26050  Biso   1.000  N
  Cu3      1.0000 0.56750  0.88320  0.61820  Biso   1.000  Cu
  Cu4      1.0000 0.89420  0.71270  0.31840  Biso   1.000  Cu
  N4       1.0000 0.47320  0.69080  0.67400  Biso   1.000  N
  N5       1.0000 0.69140  0.80300  0.50410  Biso   1.000  N
  C4       1.0000 0.96750  0.51700  0.26570  Biso   1.000  C
  C5       1.0000 0.45670  0.57750  0.75910  Biso   1.000  C
  C6       1.0000 0.76790  0.76260  0.43590  Biso   1.000  C
  N6       1.0000 0.02150  0.40750  0.23950  Biso   1.000  N
  Cu5      1.0000 0.56750  0.61680  0.11820  Biso   1.000  Cu
  Cu6      1.0000 0.89420  0.78730  0.81840  Biso   1.000  Cu
  N7       1.0000 0.47320  0.80920  0.17400  Biso   1.000  N
  N8       1.0000 0.69140  0.69700  0.00410  Biso   1.000  N
  C7       1.0000 0.96750  0.98300  0.76570  Biso   1.000  C
  C8       1.0000 0.45670  0.92250  0.25910  Biso   1.000  C
  C9       1.0000 0.76790  0.73740  0.93590  Biso   1.000  C
  N9       1.0000 0.02150  0.09250  0.73950  Biso   1.000  N
  Cu7      1.0000 0.43250  0.11680  0.38180  Biso   1.000  Cu
  Cu8      1.0000 0.10580  0.28730  0.68160  Biso   1.000  Cu
  N10      1.0000 0.52680  0.30920  0.32600  Biso   1.000  N
  N11      1.0000 0.30860  0.19700  0.49590  Biso   1.000  N
  C10      1.0000 0.03250  0.48300  0.73430  Biso   1.000  C
  C11      1.0000 0.54330  0.42250  0.24090  Biso   1.000  C
  C12      1.0000 0.23210  0.23740  0.56410  Biso   1.000  C
  N12      1.0000 0.97850  0.59250  0.76050  Biso   1.000  N
