data_image0
_cell_length_a       6.0915
_cell_length_b       9.961
_cell_length_c       13.361
_cell_angle_alpha    68.87
_cell_angle_beta     81.01
_cell_angle_gamma    76.72

_symmetry_space_group_name_H-M    P 1
_symmetry_int_tables_number       1

loop_
  _symmetry_equiv_pos_as_xyz
  'x, y, z'

loop_
  _atom_site_label
  _atom_site_occupancy
  _atom_site_fract_x
  _atom_site_fract_y
  _atom_site_fract_z
  _atom_site_thermal_displace_type
  _atom_site_B_iso_or_equiv
  _atom_site_type_symbol
  Eu1      1.0000 0.66828  0.38562  0.80391  Biso   1.000  Eu
  Eu2      1.0000 0.33172  0.61438  0.19609  Biso   1.000  Eu
  H1       1.0000 0.82770  0.04520  0.02680  Biso   1.000  H
  H2       1.0000 0.20190  0.32650  0.63080  Biso   1.000  H
  H3       1.0000 0.77130  0.13910  0.73020  Biso   1.000  H
  H4       1.0000 0.61140  0.22680  0.65790  Biso   1.000  H
  H5       1.0000 0.01020  0.49890  0.76880  Biso   1.000  H
  H6       1.0000 0.91800  0.57910  0.83680  Biso   1.000  H
  H7       1.0000 0.17230  0.95480  0.97320  Biso   1.000  H
  H8       1.0000 0.79810  0.67350  0.36920  Biso   1.000  H
  H9       1.0000 0.22870  0.86090  0.26980  Biso   1.000  H
  H10      1.0000 0.38860  0.77320  0.34210  Biso   1.000  H
  H11      1.0000 0.98980  0.50110  0.23120  Biso   1.000  H
  H12      1.0000 0.08200  0.42090  0.16320  Biso   1.000  H
  C1       1.0000 0.21070  0.23280  0.85820  Biso   1.000  C
  C2       1.0000 0.36690  0.10450  0.93140  Biso   1.000  C
  C3       1.0000 0.69120  0.02890  0.01490  Biso   1.000  C
  C4       1.0000 0.55020  0.61730  0.56040  Biso   1.000  C
  C5       1.0000 0.78860  0.55520  0.52740  Biso   1.000  C
  C6       1.0000 0.11500  0.39860  0.57830  Biso   1.000  C
  C7       1.0000 0.40890  0.56050  0.96650  Biso   1.000  C
  C8       1.0000 0.78930  0.76720  0.14180  Biso   1.000  C
  C9       1.0000 0.63310  0.89550  0.06860  Biso   1.000  C
  C10      1.0000 0.30880  0.97110  0.98510  Biso   1.000  C
  C11      1.0000 0.44980  0.38270  0.43960  Biso   1.000  C
  C12      1.0000 0.21140  0.44480  0.47260  Biso   1.000  C
  C13      1.0000 0.88500  0.60140  0.42170  Biso   1.000  C
  C14      1.0000 0.59110  0.43950  0.03350  Biso   1.000  C
  N1       1.0000 0.56090  0.13520  0.94680  Biso   1.000  N
  N2       1.0000 0.90620  0.45330  0.60650  Biso   1.000  N
  N3       1.0000 0.43910  0.86480  0.05320  Biso   1.000  N
  N4       1.0000 0.09380  0.54670  0.39350  Biso   1.000  N
  O1       1.0000 0.28520  0.35160  0.81510  Biso   1.000  O
  O2       1.0000 0.02050  0.21560  0.84770  Biso   1.000  O
  O3       1.0000 0.48640  0.56900  0.65730  Biso   1.000  O
  O4       1.0000 0.43210  0.70990  0.48980  Biso   1.000  O
  O5       1.0000 0.27550  0.63730  0.01350  Biso   1.000  O
  O6       1.0000 0.41510  0.56930  0.87070  Biso   1.000  O
  O7       1.0000 0.66780  0.21400  0.71510  Biso   1.000  O
  O8       1.0000 0.90710  0.56590  0.77910  Biso   1.000  O
  O9       1.0000 0.71480  0.64840  0.18490  Biso   1.000  O
  O10      1.0000 0.97950  0.78440  0.15230  Biso   1.000  O
  O11      1.0000 0.51360  0.43100  0.34270  Biso   1.000  O
  O12      1.0000 0.56790  0.29010  0.51020  Biso   1.000  O
  O13      1.0000 0.72450  0.36270  0.98650  Biso   1.000  O
  O14      1.0000 0.58490  0.43070  0.12930  Biso   1.000  O
  O15      1.0000 0.33220  0.78600  0.28490  Biso   1.000  O
  O16      1.0000 0.09290  0.43410  0.22090  Biso   1.000  O
