data_image0
_cell_length_a       9.4609
_cell_length_b       11.458
_cell_length_c       14.593
_cell_angle_alpha    69.96
_cell_angle_beta     85.42
_cell_angle_gamma    86.41

_symmetry_space_group_name_H-M    P 1
_symmetry_int_tables_number       1

loop_
  _symmetry_equiv_pos_as_xyz
  'x, y, z'

loop_
  _atom_site_label
  _atom_site_occupancy
  _atom_site_fract_x
  _atom_site_fract_y
  _atom_site_fract_z
  _atom_site_thermal_displace_type
  _atom_site_B_iso_or_equiv
  _atom_site_type_symbol
  Y1       1.0000 0.79683  0.95472  0.00251  Biso   1.000  Y
  Y2       1.0000 0.20317  0.04528  0.99749  Biso   1.000  Y
  H1       1.0000 0.86660  0.36940  0.84090  Biso   1.000  H
  H2       1.0000 0.97300  0.37050  0.75280  Biso   1.000  H
  H3       1.0000 0.34100  0.37800  0.89800  Biso   1.000  H
  H4       1.0000 0.26200  0.47600  0.81200  Biso   1.000  H
  H5       1.0000 0.87880  0.94230  0.55690  Biso   1.000  H
  H6       1.0000 0.87140  0.06430  0.46550  Biso   1.000  H
  H7       1.0000 0.27550  0.34920  0.39180  Biso   1.000  H
  H8       1.0000 0.26100  0.28680  0.31890  Biso   1.000  H
  H9       1.0000 0.85530  0.09800  0.28060  Biso   1.000  H
  H10      1.0000 0.81480  0.22330  0.19800  Biso   1.000  H
  H11      1.0000 0.11880  0.53450  0.43240  Biso   1.000  H
  H12      1.0000 0.11460  0.41150  0.52310  Biso   1.000  H
  H13      1.0000 0.66910  0.04450  0.60900  Biso   1.000  H
  H14      1.0000 0.62650  0.11950  0.67300  Biso   1.000  H
  H15      1.0000 0.48480  0.83720  0.80870  Biso   1.000  H
  H16      1.0000 0.63580  0.83180  0.75840  Biso   1.000  H
  H17      1.0000 0.02930  0.48140  0.90920  Biso   1.000  H
  H18      1.0000 0.07950  0.38820  0.00880  Biso   1.000  H
  H19      1.0000 0.62810  0.19020  0.99480  Biso   1.000  H
  H20      1.0000 0.57190  0.15700  0.92930  Biso   1.000  H
  H21      1.0000 0.13340  0.63060  0.15910  Biso   1.000  H
  H22      1.0000 0.02700  0.62950  0.24720  Biso   1.000  H
  H23      1.0000 0.65900  0.62200  0.10200  Biso   1.000  H
  H24      1.0000 0.73800  0.52400  0.18800  Biso   1.000  H
  H25      1.0000 0.12120  0.05770  0.44310  Biso   1.000  H
  H26      1.0000 0.12860  0.93570  0.53450  Biso   1.000  H
  H27      1.0000 0.72450  0.65080  0.60820  Biso   1.000  H
  H28      1.0000 0.73900  0.71320  0.68110  Biso   1.000  H
  H29      1.0000 0.14470  0.90200  0.71940  Biso   1.000  H
  H30      1.0000 0.18520  0.77670  0.80200  Biso   1.000  H
  H31      1.0000 0.88120  0.46550  0.56760  Biso   1.000  H
  H32      1.0000 0.88540  0.58850  0.47690  Biso   1.000  H
  H33      1.0000 0.33090  0.95550  0.39100  Biso   1.000  H
  H34      1.0000 0.37350  0.88050  0.32700  Biso   1.000  H
  H35      1.0000 0.51520  0.16280  0.19130  Biso   1.000  H
  H36      1.0000 0.36420  0.16820  0.24160  Biso   1.000  H
  H37      1.0000 0.97070  0.51860  0.09080  Biso   1.000  H
  H38      1.0000 0.92050  0.61180  0.99120  Biso   1.000  H
  H39      1.0000 0.37190  0.80980  0.00520  Biso   1.000  H
  H40      1.0000 0.42810  0.84300  0.07070  Biso   1.000  H
  C1       1.0000 0.92530  0.09760  0.14230  Biso   1.000  C
  C2       1.0000 0.88570  0.19740  0.68120  Biso   1.000  C
  C3       1.0000 0.00060  0.21620  0.87300  Biso   1.000  C
  C4       1.0000 0.91110  0.31830  0.80490  Biso   1.000  C
  C5       1.0000 0.92790  0.01740  0.51980  Biso   1.000  C
  C6       1.0000 0.98390  0.30310  0.31540  Biso   1.000  C
  C7       1.0000 0.88880  0.15910  0.21950  Biso   1.000  C
  C8       1.0000 0.94190  0.09290  0.58330  Biso   1.000  C
  C9       1.0000 0.99630  0.40560  0.41510  Biso   1.000  C
  C10      1.0000 0.05730  0.47050  0.47450  Biso   1.000  C
  C11      1.0000 0.57980  0.80050  0.81990  Biso   1.000  C
  C12      1.0000 0.64140  0.84770  0.89220  Biso   1.000  C
  C13      1.0000 0.40270  0.61510  0.91240  Biso   1.000  C
  C14      1.0000 0.18990  0.54590  0.95990  Biso   1.000  C
  C15      1.0000 0.05930  0.47520  0.97270  Biso   1.000  C
  C16      1.0000 0.07470  0.90240  0.85770  Biso   1.000  C
  C17      1.0000 0.11430  0.80260  0.31880  Biso   1.000  C
  C18      1.0000 0.99940  0.78380  0.12700  Biso   1.000  C
  C19      1.0000 0.08890  0.68170  0.19510  Biso   1.000  C
  C20      1.0000 0.07210  0.98260  0.48020  Biso   1.000  C
  C21      1.0000 0.01610  0.69690  0.68460  Biso   1.000  C
  C22      1.0000 0.11120  0.84090  0.78050  Biso   1.000  C
  C23      1.0000 0.05810  0.90710  0.41670  Biso   1.000  C
  C24      1.0000 0.00370  0.59440  0.58490  Biso   1.000  C
  C25      1.0000 0.94270  0.52950  0.52550  Biso   1.000  C
  C26      1.0000 0.42020  0.19950  0.18010  Biso   1.000  C
  C27      1.0000 0.35860  0.15230  0.10780  Biso   1.000  C
  C28      1.0000 0.59730  0.38490  0.08760  Biso   1.000  C
  C29      1.0000 0.81010  0.45410  0.04010  Biso   1.000  C
  C30      1.0000 0.94070  0.52480  0.02730  Biso   1.000  C
  S1       1.0000 0.04861  0.22605  0.23579  Biso   1.000  S
  S2       1.0000 0.56907  0.63481  0.85031  Biso   1.000  S
  S3       1.0000 0.77587  0.26440  0.75183  Biso   1.000  S
  S4       1.0000 0.95139  0.77395  0.76421  Biso   1.000  S
  S5       1.0000 0.43093  0.36519  0.14969  Biso   1.000  S
  S6       1.0000 0.22413  0.73560  0.24817  Biso   1.000  S
  N1       1.0000 0.30910  0.53200  0.90510  Biso   1.000  N
  N2       1.0000 0.20770  0.63160  0.99780  Biso   1.000  N
  N3       1.0000 0.07630  0.34780  0.36120  Biso   1.000  N
  N4       1.0000 0.02200  0.20450  0.66200  Biso   1.000  N
  N5       1.0000 0.34440  0.67540  0.96730  Biso   1.000  N
  N6       1.0000 0.83070  0.12780  0.63350  Biso   1.000  N
  N7       1.0000 0.33830  0.45210  0.85050  Biso   1.000  N
  N8       1.0000 0.22310  0.32500  0.35670  Biso   1.000  N
  N9       1.0000 0.05890  0.13680  0.59820  Biso   1.000  N
  N10      1.0000 0.86330  0.39740  0.40410  Biso   1.000  N
  N11      1.0000 0.85390  0.33060  0.33950  Biso   1.000  N
  N12      1.0000 0.69100  0.09280  0.63920  Biso   1.000  N
  N13      1.0000 0.69090  0.46800  0.09490  Biso   1.000  N
  N14      1.0000 0.79230  0.36840  0.00220  Biso   1.000  N
  N15      1.0000 0.92370  0.65220  0.63880  Biso   1.000  N
  N16      1.0000 0.97800  0.79550  0.33800  Biso   1.000  N
  N17      1.0000 0.65560  0.32460  0.03270  Biso   1.000  N
  N18      1.0000 0.16930  0.87220  0.36650  Biso   1.000  N
  N19      1.0000 0.66170  0.54790  0.14950  Biso   1.000  N
  N20      1.0000 0.77690  0.67500  0.64330  Biso   1.000  N
  N21      1.0000 0.94110  0.86320  0.40180  Biso   1.000  N
  N22      1.0000 0.13670  0.60260  0.59590  Biso   1.000  N
  N23      1.0000 0.14610  0.66940  0.66050  Biso   1.000  N
  N24      1.0000 0.30900  0.90720  0.36080  Biso   1.000  N
  O1       1.0000 0.82810  0.04140  0.12430  Biso   1.000  O
  O2       1.0000 0.94730  0.11460  0.92490  Biso   1.000  O
  O3       1.0000 0.12740  0.23650  0.87820  Biso   1.000  O
  O4       1.0000 0.05030  0.10840  0.10570  Biso   1.000  O
  O5       1.0000 0.68720  0.77760  0.97080  Biso   1.000  O
  O6       1.0000 0.64820  0.96540  0.86720  Biso   1.000  O
  O7       1.0000 0.63140  0.12210  0.98120  Biso   1.000  O
  O8       1.0000 0.60130  0.88210  0.12710  Biso   1.000  O
  O9       1.0000 0.17190  0.95860  0.87570  Biso   1.000  O
  O10      1.0000 0.05270  0.88540  0.07510  Biso   1.000  O
  O11      1.0000 0.87260  0.76350  0.12180  Biso   1.000  O
  O12      1.0000 0.94970  0.89160  0.89430  Biso   1.000  O
  O13      1.0000 0.31280  0.22240  0.02920  Biso   1.000  O
  O14      1.0000 0.35180  0.03460  0.13280  Biso   1.000  O
  O15      1.0000 0.36860  0.87790  0.01880  Biso   1.000  O
  O16      1.0000 0.39870  0.11790  0.87290  Biso   1.000  O
