data_image0
_cell_length_a       9.5879
_cell_length_b       11.57
_cell_length_c       14.583
_cell_angle_alpha    69.16
_cell_angle_beta     85.2
_cell_angle_gamma    86.3

_symmetry_space_group_name_H-M    P 1
_symmetry_int_tables_number       1

loop_
  _symmetry_equiv_pos_as_xyz
  'x, y, z'

loop_
  _atom_site_label
  _atom_site_occupancy
  _atom_site_fract_x
  _atom_site_fract_y
  _atom_site_fract_z
  _atom_site_thermal_displace_type
  _atom_site_B_iso_or_equiv
  _atom_site_type_symbol
  Ce1      1.0000 0.79391  0.95685  0.00121  Biso   1.000  Ce
  Ce2      1.0000 0.20609  0.04315  0.99879  Biso   1.000  Ce
  H1       1.0000 0.86760  0.36980  0.83640  Biso   1.000  H
  H2       1.0000 0.96960  0.37280  0.74610  Biso   1.000  H
  H3       1.0000 0.32900  0.38400  0.89400  Biso   1.000  H
  H4       1.0000 0.25800  0.48000  0.80200  Biso   1.000  H
  H5       1.0000 0.87870  0.94440  0.55590  Biso   1.000  H
  H6       1.0000 0.87560  0.06630  0.46320  Biso   1.000  H
  H7       1.0000 0.27270  0.34810  0.39400  Biso   1.000  H
  H8       1.0000 0.25840  0.28600  0.32180  Biso   1.000  H
  H9       1.0000 0.85120  0.10690  0.28550  Biso   1.000  H
  H10      1.0000 0.81820  0.23030  0.19800  Biso   1.000  H
  H11      1.0000 0.11910  0.53330  0.43380  Biso   1.000  H
  H12      1.0000 0.11090  0.41040  0.52570  Biso   1.000  H
  H13      1.0000 0.67280  0.04890  0.60520  Biso   1.000  H
  H14      1.0000 0.63070  0.11970  0.67130  Biso   1.000  H
  H15      1.0000 0.48160  0.83410  0.80490  Biso   1.000  H
  H16      1.0000 0.63120  0.82750  0.75530  Biso   1.000  H
  H17      1.0000 0.03120  0.48240  0.90880  Biso   1.000  H
  H18      1.0000 0.07860  0.38830  0.00970  Biso   1.000  H
  H19      1.0000 0.62140  0.20140  0.99160  Biso   1.000  H
  H20      1.0000 0.56520  0.16820  0.92610  Biso   1.000  H
  H21      1.0000 0.13240  0.63020  0.16360  Biso   1.000  H
  H22      1.0000 0.03040  0.62720  0.25390  Biso   1.000  H
  H23      1.0000 0.67100  0.61600  0.10600  Biso   1.000  H
  H24      1.0000 0.74200  0.52000  0.19800  Biso   1.000  H
  H25      1.0000 0.12130  0.05560  0.44410  Biso   1.000  H
  H26      1.0000 0.12440  0.93370  0.53680  Biso   1.000  H
  H27      1.0000 0.72730  0.65190  0.60600  Biso   1.000  H
  H28      1.0000 0.74160  0.71400  0.67820  Biso   1.000  H
  H29      1.0000 0.14880  0.89310  0.71450  Biso   1.000  H
  H30      1.0000 0.18180  0.76970  0.80200  Biso   1.000  H
  H31      1.0000 0.88090  0.46670  0.56620  Biso   1.000  H
  H32      1.0000 0.88910  0.58960  0.47430  Biso   1.000  H
  H33      1.0000 0.32720  0.95110  0.39480  Biso   1.000  H
  H34      1.0000 0.36930  0.88030  0.32870  Biso   1.000  H
  H35      1.0000 0.51840  0.16590  0.19510  Biso   1.000  H
  H36      1.0000 0.36880  0.17250  0.24470  Biso   1.000  H
  H37      1.0000 0.96880  0.51760  0.09120  Biso   1.000  H
  H38      1.0000 0.92140  0.61170  0.99030  Biso   1.000  H
  H39      1.0000 0.37860  0.79860  0.00840  Biso   1.000  H
  H40      1.0000 0.43480  0.83180  0.07390  Biso   1.000  H
  C1       1.0000 0.92310  0.09760  0.14990  Biso   1.000  C
  C2       1.0000 0.88840  0.19340  0.68070  Biso   1.000  C
  C3       1.0000 0.00780  0.22360  0.86850  Biso   1.000  C
  C4       1.0000 0.91290  0.31920  0.80110  Biso   1.000  C
  C5       1.0000 0.92940  0.01830  0.51860  Biso   1.000  C
  C6       1.0000 0.98530  0.30560  0.31640  Biso   1.000  C
  C7       1.0000 0.88800  0.16430  0.22300  Biso   1.000  C
  C8       1.0000 0.94400  0.09300  0.58240  Biso   1.000  C
  C9       1.0000 0.99560  0.40720  0.41540  Biso   1.000  C
  C10      1.0000 0.05660  0.47040  0.47570  Biso   1.000  C
  C11      1.0000 0.57520  0.79730  0.81710  Biso   1.000  C
  C12      1.0000 0.63550  0.84480  0.88880  Biso   1.000  C
  C13      1.0000 0.39880  0.61260  0.91270  Biso   1.000  C
  C14      1.0000 0.18860  0.54510  0.96100  Biso   1.000  C
  C15      1.0000 0.05950  0.47520  0.97300  Biso   1.000  C
  C16      1.0000 0.07690  0.90240  0.85010  Biso   1.000  C
  C17      1.0000 0.11160  0.80660  0.31930  Biso   1.000  C
  C18      1.0000 0.99220  0.77640  0.13150  Biso   1.000  C
  C19      1.0000 0.08710  0.68080  0.19890  Biso   1.000  C
  C20      1.0000 0.07060  0.98170  0.48140  Biso   1.000  C
  C21      1.0000 0.01470  0.69440  0.68360  Biso   1.000  C
  C22      1.0000 0.11200  0.83570  0.77700  Biso   1.000  C
  C23      1.0000 0.05600  0.90700  0.41760  Biso   1.000  C
  C24      1.0000 0.00440  0.59280  0.58460  Biso   1.000  C
  C25      1.0000 0.94340  0.52960  0.52430  Biso   1.000  C
  C26      1.0000 0.42480  0.20270  0.18290  Biso   1.000  C
  C27      1.0000 0.36450  0.15520  0.11120  Biso   1.000  C
  C28      1.0000 0.60120  0.38740  0.08730  Biso   1.000  C
  C29      1.0000 0.81140  0.45490  0.03900  Biso   1.000  C
  C30      1.0000 0.94050  0.52480  0.02700  Biso   1.000  C
  S1       1.0000 0.04846  0.22684  0.23868  Biso   1.000  S
  S2       1.0000 0.56390  0.63193  0.85124  Biso   1.000  S
  S3       1.0000 0.78031  0.25658  0.75418  Biso   1.000  S
  S4       1.0000 0.95154  0.77316  0.76132  Biso   1.000  S
  S5       1.0000 0.43610  0.36807  0.14876  Biso   1.000  S
  S6       1.0000 0.21969  0.74342  0.24582  Biso   1.000  S
  N1       1.0000 0.30660  0.53260  0.90510  Biso   1.000  N
  N2       1.0000 0.20610  0.62880  0.99960  Biso   1.000  N
  N3       1.0000 0.07570  0.34870  0.36260  Biso   1.000  N
  N4       1.0000 0.02320  0.20140  0.66180  Biso   1.000  N
  N5       1.0000 0.34170  0.67060  0.96960  Biso   1.000  N
  N6       1.0000 0.83350  0.12670  0.63330  Biso   1.000  N
  N7       1.0000 0.33370  0.45450  0.85000  Biso   1.000  N
  N8       1.0000 0.22110  0.32450  0.35900  Biso   1.000  N
  N9       1.0000 0.05860  0.13530  0.59730  Biso   1.000  N
  N10      1.0000 0.86630  0.40150  0.40290  Biso   1.000  N
  N11      1.0000 0.85740  0.33520  0.33850  Biso   1.000  N
  N12      1.0000 0.69450  0.09430  0.63710  Biso   1.000  N
  N13      1.0000 0.69340  0.46740  0.09490  Biso   1.000  N
  N14      1.0000 0.79390  0.37120  0.00040  Biso   1.000  N
  N15      1.0000 0.92430  0.65130  0.63740  Biso   1.000  N
  N16      1.0000 0.97680  0.79860  0.33820  Biso   1.000  N
  N17      1.0000 0.65830  0.32940  0.03040  Biso   1.000  N
  N18      1.0000 0.16650  0.87330  0.36670  Biso   1.000  N
  N19      1.0000 0.66630  0.54550  0.15000  Biso   1.000  N
  N20      1.0000 0.77890  0.67550  0.64100  Biso   1.000  N
  N21      1.0000 0.94140  0.86470  0.40270  Biso   1.000  N
  N22      1.0000 0.13370  0.59850  0.59710  Biso   1.000  N
  N23      1.0000 0.14260  0.66480  0.66150  Biso   1.000  N
  N24      1.0000 0.30550  0.90570  0.36290  Biso   1.000  N
  O1       1.0000 0.82540  0.04760  0.12938  Biso   1.000  O
  O2       1.0000 0.95950  0.12170  0.92507  Biso   1.000  O
  O3       1.0000 0.13150  0.24910  0.86917  Biso   1.000  O
  O4       1.0000 0.04890  0.09940  0.11740  Biso   1.000  O
  O5       1.0000 0.68280  0.77620  0.96695  Biso   1.000  O
  O6       1.0000 0.63830  0.96290  0.86146  Biso   1.000  O
  O7       1.0000 0.62460  0.13320  0.97795  Biso   1.000  O
  O8       1.0000 0.59260  0.87960  0.13525  Biso   1.000  O
  O9       1.0000 0.17460  0.95240  0.87062  Biso   1.000  O
  O10      1.0000 0.04050  0.87830  0.07493  Biso   1.000  O
  O11      1.0000 0.86850  0.75090  0.13083  Biso   1.000  O
  O12      1.0000 0.95110  0.90060  0.88260  Biso   1.000  O
  O13      1.0000 0.31720  0.22380  0.03305  Biso   1.000  O
  O14      1.0000 0.36170  0.03710  0.13854  Biso   1.000  O
  O15      1.0000 0.37540  0.86680  0.02205  Biso   1.000  O
  O16      1.0000 0.40740  0.12040  0.86475  Biso   1.000  O
