data_image0
_cell_length_a       13.897
_cell_length_b       26.89
_cell_length_c       7.607
_cell_angle_alpha    90
_cell_angle_beta     90
_cell_angle_gamma    88.88

_symmetry_space_group_name_H-M    "P 1"
_symmetry_int_tables_number       1

loop_
  _symmetry_equiv_pos_as_xyz
  'x, y, z'

loop_
  _atom_site_label
  _atom_site_occupancy
  _atom_site_fract_x
  _atom_site_fract_y
  _atom_site_fract_z
  _atom_site_thermal_displace_type
  _atom_site_B_iso_or_equiv
  _atom_site_type_symbol
  Cd1      1.0000 0.28780  0.13476  0.87896  Biso   1.000  Cd
  N1       1.0000 0.26650  0.07870  0.09270  Biso   1.000  N
  N2       1.0000 0.25680  0.07700  0.65680  Biso   1.000  N
  N3       1.0000 0.33090  0.19880  0.08880  Biso   1.000  N
  N4       1.0000 0.13160  0.16760  0.87180  Biso   1.000  N
  N5       1.0000 0.32530  0.19180  0.65160  Biso   1.000  N
  N6       1.0000 0.45450  0.12190  0.83080  Biso   1.000  N
  C1       1.0000 0.25860  0.04820  0.19870  Biso   1.000  C
  C2       1.0000 0.25540  0.04830  0.54740  Biso   1.000  C
  C3       1.0000 0.39480  0.21810  0.15230  Biso   1.000  C
  C4       1.0000 0.08130  0.19850  0.82630  Biso   1.000  C
  C5       1.0000 0.42800  0.18950  0.62600  Biso   1.000  C
  C6       1.0000 0.48490  0.15550  0.69200  Biso   1.000  C
  C7       1.0000 0.59210  0.15520  0.65300  Biso   1.000  C
  Cd2      1.0000 0.28780  0.63476  0.37896  Biso   1.000  Cd
  N7       1.0000 0.26650  0.57870  0.59270  Biso   1.000  N
  N8       1.0000 0.25680  0.57700  0.15680  Biso   1.000  N
  N9       1.0000 0.33090  0.69880  0.58880  Biso   1.000  N
  N10      1.0000 0.13160  0.66760  0.37180  Biso   1.000  N
  N11      1.0000 0.32530  0.69180  0.15160  Biso   1.000  N
  N12      1.0000 0.45450  0.62190  0.33080  Biso   1.000  N
  C8       1.0000 0.25860  0.54820  0.69870  Biso   1.000  C
  C9       1.0000 0.25540  0.54830  0.04740  Biso   1.000  C
  C10      1.0000 0.39480  0.71810  0.65230  Biso   1.000  C
  C11      1.0000 0.08130  0.69850  0.32630  Biso   1.000  C
  C12      1.0000 0.42800  0.68950  0.12600  Biso   1.000  C
  C13      1.0000 0.48490  0.65550  0.19200  Biso   1.000  C
  C14      1.0000 0.59210  0.65520  0.15300  Biso   1.000  C
  Cd3      1.0000 0.21220  0.86524  0.87896  Biso   1.000  Cd
  N13      1.0000 0.23350  0.92130  0.09270  Biso   1.000  N
  N14      1.0000 0.24320  0.92300  0.65680  Biso   1.000  N
  N15      1.0000 0.16910  0.80120  0.08880  Biso   1.000  N
  N16      1.0000 0.36840  0.83240  0.87180  Biso   1.000  N
  N17      1.0000 0.17470  0.80820  0.65160  Biso   1.000  N
  N18      1.0000 0.04550  0.87810  0.83080  Biso   1.000  N
  C15      1.0000 0.24140  0.95180  0.19870  Biso   1.000  C
  C16      1.0000 0.24460  0.95170  0.54740  Biso   1.000  C
  C17      1.0000 0.10520  0.78190  0.15230  Biso   1.000  C
  C18      1.0000 0.41870  0.80150  0.82630  Biso   1.000  C
  C19      1.0000 0.07200  0.81050  0.62600  Biso   1.000  C
  C20      1.0000 0.01510  0.84450  0.69200  Biso   1.000  C
  C21      1.0000 0.90790  0.84480  0.65300  Biso   1.000  C
  Cd4      1.0000 0.21220  0.36524  0.37896  Biso   1.000  Cd
  N19      1.0000 0.23350  0.42130  0.59270  Biso   1.000  N
  N20      1.0000 0.24320  0.42300  0.15680  Biso   1.000  N
  N21      1.0000 0.16910  0.30120  0.58880  Biso   1.000  N
  N22      1.0000 0.36840  0.33240  0.37180  Biso   1.000  N
  N23      1.0000 0.17470  0.30820  0.15160  Biso   1.000  N
  N24      1.0000 0.04550  0.37810  0.33080  Biso   1.000  N
  C22      1.0000 0.24140  0.45180  0.69870  Biso   1.000  C
  C23      1.0000 0.24460  0.45170  0.04740  Biso   1.000  C
  C24      1.0000 0.10520  0.28190  0.65230  Biso   1.000  C
  C25      1.0000 0.41870  0.30150  0.32630  Biso   1.000  C
  C26      1.0000 0.07200  0.31050  0.12600  Biso   1.000  C
  C27      1.0000 0.01510  0.34450  0.19200  Biso   1.000  C
  C28      1.0000 0.90790  0.34480  0.15300  Biso   1.000  C
  Cd5      1.0000 0.71220  0.86524  0.12104  Biso   1.000  Cd
  N25      1.0000 0.73350  0.92130  0.90730  Biso   1.000  N
  N26      1.0000 0.74320  0.92300  0.34320  Biso   1.000  N
  N27      1.0000 0.66910  0.80120  0.91120  Biso   1.000  N
  N28      1.0000 0.86840  0.83240  0.12820  Biso   1.000  N
  N29      1.0000 0.67470  0.80820  0.34840  Biso   1.000  N
  N30      1.0000 0.54550  0.87810  0.16920  Biso   1.000  N
  C29      1.0000 0.74140  0.95180  0.80130  Biso   1.000  C
  C30      1.0000 0.74460  0.95170  0.45260  Biso   1.000  C
  C31      1.0000 0.60520  0.78190  0.84770  Biso   1.000  C
  C32      1.0000 0.91870  0.80150  0.17370  Biso   1.000  C
  C33      1.0000 0.57200  0.81050  0.37400  Biso   1.000  C
  C34      1.0000 0.51510  0.84450  0.30800  Biso   1.000  C
  C35      1.0000 0.40790  0.84480  0.34700  Biso   1.000  C
  Cd6      1.0000 0.71220  0.36524  0.62104  Biso   1.000  Cd
  N31      1.0000 0.73350  0.42130  0.40730  Biso   1.000  N
  N32      1.0000 0.74320  0.42300  0.84320  Biso   1.000  N
  N33      1.0000 0.66910  0.30120  0.41120  Biso   1.000  N
  N34      1.0000 0.86840  0.33240  0.62820  Biso   1.000  N
  N35      1.0000 0.67470  0.30820  0.84840  Biso   1.000  N
  N36      1.0000 0.54550  0.37810  0.66920  Biso   1.000  N
  C36      1.0000 0.74140  0.45180  0.30130  Biso   1.000  C
  C37      1.0000 0.74460  0.45170  0.95260  Biso   1.000  C
  C38      1.0000 0.60520  0.28190  0.34770  Biso   1.000  C
  C39      1.0000 0.91870  0.30150  0.67370  Biso   1.000  C
  C40      1.0000 0.57200  0.31050  0.87400  Biso   1.000  C
  C41      1.0000 0.51510  0.34450  0.80800  Biso   1.000  C
  C42      1.0000 0.40790  0.34480  0.84700  Biso   1.000  C
  Cd7      1.0000 0.78780  0.13476  0.12104  Biso   1.000  Cd
  N37      1.0000 0.76650  0.07870  0.90730  Biso   1.000  N
  N38      1.0000 0.75680  0.07700  0.34320  Biso   1.000  N
  N39      1.0000 0.83090  0.19880  0.91120  Biso   1.000  N
  N40      1.0000 0.63160  0.16760  0.12820  Biso   1.000  N
  N41      1.0000 0.82530  0.19180  0.34840  Biso   1.000  N
  N42      1.0000 0.95450  0.12190  0.16920  Biso   1.000  N
  C43      1.0000 0.75860  0.04820  0.80130  Biso   1.000  C
  C44      1.0000 0.75540  0.04830  0.45260  Biso   1.000  C
  C45      1.0000 0.89480  0.21810  0.84770  Biso   1.000  C
  C46      1.0000 0.58130  0.19850  0.17370  Biso   1.000  C
  C47      1.0000 0.92800  0.18950  0.37400  Biso   1.000  C
  C48      1.0000 0.98490  0.15550  0.30800  Biso   1.000  C
  C49      1.0000 0.09210  0.15520  0.34700  Biso   1.000  C
  Cd8      1.0000 0.78780  0.63476  0.62104  Biso   1.000  Cd
  N43      1.0000 0.76650  0.57870  0.40730  Biso   1.000  N
  N44      1.0000 0.75680  0.57700  0.84320  Biso   1.000  N
  N45      1.0000 0.83090  0.69880  0.41120  Biso   1.000  N
  N46      1.0000 0.63160  0.66760  0.62820  Biso   1.000  N
  N47      1.0000 0.82530  0.69180  0.84840  Biso   1.000  N
  N48      1.0000 0.95450  0.62190  0.66920  Biso   1.000  N
  C50      1.0000 0.75860  0.54820  0.30130  Biso   1.000  C
  C51      1.0000 0.75540  0.54830  0.95260  Biso   1.000  C
  C52      1.0000 0.89480  0.71810  0.34770  Biso   1.000  C
  C53      1.0000 0.58130  0.69850  0.67370  Biso   1.000  C
  C54      1.0000 0.92800  0.68950  0.87400  Biso   1.000  C
  C55      1.0000 0.98490  0.65550  0.80800  Biso   1.000  C
  C56      1.0000 0.09210  0.65520  0.84700  Biso   1.000  C
  Ni1      1.0000 0.25000  0.00000  0.37260  Biso   1.000  Ni
  Ni2      1.0000 0.25000  0.50000  0.87260  Biso   1.000  Ni
  Ni3      1.0000 0.75000  0.00000  0.62740  Biso   1.000  Ni
  Ni4      1.0000 0.75000  0.50000  0.12740  Biso   1.000  Ni
  Ni5      1.0000 0.50000  0.25000  0.25000  Biso   1.000  Ni
  Ni6      1.0000 0.00000  0.75000  0.25000  Biso   1.000  Ni
  Ni7      1.0000 0.50000  0.75000  0.75000  Biso   1.000  Ni
  Ni8      1.0000 0.00000  0.25000  0.75000  Biso   1.000  Ni
