data_image0
_cell_length_a       14.104
_cell_length_b       26.654
_cell_length_c       7.645
_cell_angle_alpha    90
_cell_angle_beta     90
_cell_angle_gamma    90

_symmetry_space_group_name_H-M    "P 1"
_symmetry_int_tables_number       1

loop_
  _symmetry_equiv_pos_as_xyz
  'x, y, z'

loop_
  _atom_site_label
  _atom_site_occupancy
  _atom_site_fract_x
  _atom_site_fract_y
  _atom_site_fract_z
  _atom_site_thermal_displace_type
  _atom_site_B_iso_or_equiv
  _atom_site_type_symbol
  Cd1      1.0000 0.21989  0.11415  0.13620  Biso   1.000  Cd
  N1       1.0000 0.24810  0.17160  0.91400  Biso   1.000  N
  N2       1.0000 0.23710  0.16940  0.35700  Biso   1.000  N
  N3       1.0000 0.17060  0.04940  0.33900  Biso   1.000  N
  N4       1.0000 0.12530  0.91760  0.63100  Biso   1.000  N
  N5       1.0000 0.18320  0.05680  0.90500  Biso   1.000  N
  N6       1.0000 0.05570  0.12530  0.08200  Biso   1.000  N
  C1       1.0000 0.24720  0.20080  0.80500  Biso   1.000  C
  C2       1.0000 0.24010  0.20070  0.46200  Biso   1.000  C
  C3       1.0000 0.10470  0.03040  0.40400  Biso   1.000  C
  C4       1.0000 0.07680  0.94850  0.58400  Biso   1.000  C
  C5       1.0000 0.08000  0.05770  0.87800  Biso   1.000  C
  C6       1.0000 0.02700  0.09400  0.94000  Biso   1.000  C
  C7       1.0000 0.92300  0.09600  0.89500  Biso   1.000  C
  Cd2      1.0000 0.28011  0.88585  0.63620  Biso   1.000  Cd
  N7       1.0000 0.25190  0.82840  0.41400  Biso   1.000  N
  N8       1.0000 0.26290  0.83060  0.85700  Biso   1.000  N
  N9       1.0000 0.32940  0.95060  0.83900  Biso   1.000  N
  N10      1.0000 0.37470  0.08240  0.13100  Biso   1.000  N
  N11      1.0000 0.31680  0.94320  0.40500  Biso   1.000  N
  N12      1.0000 0.44430  0.87470  0.58200  Biso   1.000  N
  C8       1.0000 0.25280  0.79920  0.30500  Biso   1.000  C
  C9       1.0000 0.25990  0.79930  0.96200  Biso   1.000  C
  C10      1.0000 0.39530  0.96960  0.90400  Biso   1.000  C
  C11      1.0000 0.42320  0.05150  0.08400  Biso   1.000  C
  C12      1.0000 0.42000  0.94230  0.37800  Biso   1.000  C
  C13      1.0000 0.47300  0.90600  0.44000  Biso   1.000  C
  C14      1.0000 0.57700  0.90400  0.39500  Biso   1.000  C
  Cd3      1.0000 0.78011  0.61415  0.86380  Biso   1.000  Cd
  N13      1.0000 0.75190  0.67160  0.08600  Biso   1.000  N
  N14      1.0000 0.76290  0.66940  0.64300  Biso   1.000  N
  N15      1.0000 0.82940  0.54940  0.66100  Biso   1.000  N
  N16      1.0000 0.87470  0.41760  0.36900  Biso   1.000  N
  N17      1.0000 0.81680  0.55680  0.09500  Biso   1.000  N
  N18      1.0000 0.94430  0.62530  0.91800  Biso   1.000  N
  C15      1.0000 0.75280  0.70080  0.19500  Biso   1.000  C
  C16      1.0000 0.75990  0.70070  0.53800  Biso   1.000  C
  C17      1.0000 0.89530  0.53040  0.59600  Biso   1.000  C
  C18      1.0000 0.92320  0.44850  0.41600  Biso   1.000  C
  C19      1.0000 0.92000  0.55770  0.12200  Biso   1.000  C
  C20      1.0000 0.97300  0.59400  0.06000  Biso   1.000  C
  C21      1.0000 0.07700  0.59600  0.10500  Biso   1.000  C
  Cd4      1.0000 0.71989  0.38585  0.36380  Biso   1.000  Cd
  N19      1.0000 0.74810  0.32840  0.58600  Biso   1.000  N
  N20      1.0000 0.73710  0.33060  0.14300  Biso   1.000  N
  N21      1.0000 0.67060  0.45060  0.16100  Biso   1.000  N
  N22      1.0000 0.62530  0.58240  0.86900  Biso   1.000  N
  N23      1.0000 0.68320  0.44320  0.59500  Biso   1.000  N
  N24      1.0000 0.55570  0.37470  0.41800  Biso   1.000  N
  C22      1.0000 0.74720  0.29920  0.69500  Biso   1.000  C
  C23      1.0000 0.74010  0.29930  0.03800  Biso   1.000  C
  C24      1.0000 0.60470  0.46960  0.09600  Biso   1.000  C
  C25      1.0000 0.57680  0.55150  0.91600  Biso   1.000  C
  C26      1.0000 0.58000  0.44230  0.62200  Biso   1.000  C
  C27      1.0000 0.52700  0.40600  0.56000  Biso   1.000  C
  C28      1.0000 0.42300  0.40400  0.60500  Biso   1.000  C
  Cd5      1.0000 0.78011  0.88585  0.86380  Biso   1.000  Cd
  N25      1.0000 0.75190  0.82840  0.08600  Biso   1.000  N
  N26      1.0000 0.76290  0.83060  0.64300  Biso   1.000  N
  N27      1.0000 0.82940  0.95060  0.66100  Biso   1.000  N
  N28      1.0000 0.87470  0.08240  0.36900  Biso   1.000  N
  N29      1.0000 0.81680  0.94320  0.09500  Biso   1.000  N
  N30      1.0000 0.94430  0.87470  0.91800  Biso   1.000  N
  C29      1.0000 0.75280  0.79920  0.19500  Biso   1.000  C
  C30      1.0000 0.75990  0.79930  0.53800  Biso   1.000  C
  C31      1.0000 0.89530  0.96960  0.59600  Biso   1.000  C
  C32      1.0000 0.92320  0.05150  0.41600  Biso   1.000  C
  C33      1.0000 0.92000  0.94230  0.12200  Biso   1.000  C
  C34      1.0000 0.97300  0.90600  0.06000  Biso   1.000  C
  C35      1.0000 0.07700  0.90400  0.10500  Biso   1.000  C
  Cd6      1.0000 0.71989  0.11415  0.36380  Biso   1.000  Cd
  N31      1.0000 0.74810  0.17160  0.58600  Biso   1.000  N
  N32      1.0000 0.73710  0.16940  0.14300  Biso   1.000  N
  N33      1.0000 0.67060  0.04940  0.16100  Biso   1.000  N
  N34      1.0000 0.62530  0.91760  0.86900  Biso   1.000  N
  N35      1.0000 0.68320  0.05680  0.59500  Biso   1.000  N
  N36      1.0000 0.55570  0.12530  0.41800  Biso   1.000  N
  C36      1.0000 0.74720  0.20080  0.69500  Biso   1.000  C
  C37      1.0000 0.74010  0.20070  0.03800  Biso   1.000  C
  C38      1.0000 0.60470  0.03040  0.09600  Biso   1.000  C
  C39      1.0000 0.57680  0.94850  0.91600  Biso   1.000  C
  C40      1.0000 0.58000  0.05770  0.62200  Biso   1.000  C
  C41      1.0000 0.52700  0.09400  0.56000  Biso   1.000  C
  C42      1.0000 0.42300  0.09600  0.60500  Biso   1.000  C
  Cd7      1.0000 0.21989  0.38585  0.13620  Biso   1.000  Cd
  N37      1.0000 0.24810  0.32840  0.91400  Biso   1.000  N
  N38      1.0000 0.23710  0.33060  0.35700  Biso   1.000  N
  N39      1.0000 0.17060  0.45060  0.33900  Biso   1.000  N
  N40      1.0000 0.12530  0.58240  0.63100  Biso   1.000  N
  N41      1.0000 0.18320  0.44320  0.90500  Biso   1.000  N
  N42      1.0000 0.05570  0.37470  0.08200  Biso   1.000  N
  C43      1.0000 0.24720  0.29920  0.80500  Biso   1.000  C
  C44      1.0000 0.24010  0.29930  0.46200  Biso   1.000  C
  C45      1.0000 0.10470  0.46960  0.40400  Biso   1.000  C
  C46      1.0000 0.07680  0.55150  0.58400  Biso   1.000  C
  C47      1.0000 0.08000  0.44230  0.87800  Biso   1.000  C
  C48      1.0000 0.02700  0.40600  0.94000  Biso   1.000  C
  C49      1.0000 0.92300  0.40400  0.89500  Biso   1.000  C
  Cd8      1.0000 0.28011  0.61415  0.63620  Biso   1.000  Cd
  N43      1.0000 0.25190  0.67160  0.41400  Biso   1.000  N
  N44      1.0000 0.26290  0.66940  0.85700  Biso   1.000  N
  N45      1.0000 0.32940  0.54940  0.83900  Biso   1.000  N
  N46      1.0000 0.37470  0.41760  0.13100  Biso   1.000  N
  N47      1.0000 0.31680  0.55680  0.40500  Biso   1.000  N
  N48      1.0000 0.44430  0.62530  0.58200  Biso   1.000  N
  C50      1.0000 0.25280  0.70080  0.30500  Biso   1.000  C
  C51      1.0000 0.25990  0.70070  0.96200  Biso   1.000  C
  C52      1.0000 0.39530  0.53040  0.90400  Biso   1.000  C
  C53      1.0000 0.42320  0.44850  0.08400  Biso   1.000  C
  C54      1.0000 0.42000  0.55770  0.37800  Biso   1.000  C
  C55      1.0000 0.47300  0.59400  0.44000  Biso   1.000  C
  C56      1.0000 0.57700  0.59600  0.39500  Biso   1.000  C
  Ni1      1.0000 0.24380  0.25000  0.63160  Biso   1.000  Ni
  Ni2      1.0000 0.25620  0.75000  0.13160  Biso   1.000  Ni
  Ni3      1.0000 0.75620  0.75000  0.36840  Biso   1.000  Ni
  Ni4      1.0000 0.74380  0.25000  0.86840  Biso   1.000  Ni
  Ni5      1.0000 0.00000  0.00000  0.50000  Biso   1.000  Ni
  Ni6      1.0000 0.50000  0.00000  0.00000  Biso   1.000  Ni
  Ni7      1.0000 0.00000  0.50000  0.50000  Biso   1.000  Ni
  Ni8      1.0000 0.50000  0.50000  0.00000  Biso   1.000  Ni
