data_image0
_cell_length_a       9.4078
_cell_length_b       11.6538
_cell_length_c       32.6621
_cell_angle_alpha    90
_cell_angle_beta     90
_cell_angle_gamma    90

_symmetry_space_group_name_H-M    "P 1"
_symmetry_int_tables_number       1

loop_
  _symmetry_equiv_pos_as_xyz
  'x, y, z'

loop_
  _atom_site_label
  _atom_site_occupancy
  _atom_site_fract_x
  _atom_site_fract_y
  _atom_site_fract_z
  _atom_site_thermal_displace_type
  _atom_site_B_iso_or_equiv
  _atom_site_type_symbol
  Mn1      1.0000 0.19316  0.09382  0.63759  Biso   1.000  Mn
  Mn2      1.0000 0.24042  0.71462  0.59962  Biso   1.000  Mn
  Mn3      1.0000 0.21617  0.40878  0.62589  Biso   1.000  Mn
  O1       1.0000 0.32190  0.24650  0.60988  Biso   1.000  O
  O2       1.0000 0.44170  0.10080  0.63596  Biso   1.000  O
  O3       1.0000 0.69570  0.20610  0.61740  Biso   1.000  O
  O4       1.0000 0.03260  0.32940  0.60074  Biso   1.000  O
  O5       1.0000 0.98130  0.15590  0.62660  Biso   1.000  O
  O6       1.0000 0.10560  0.57580  0.62643  Biso   1.000  O
  O7       1.0000 0.98210  0.71880  0.60020  Biso   1.000  O
  O8       1.0000 0.73140  0.61330  0.62468  Biso   1.000  O
  O9       1.0000 0.39680  0.49300  0.65011  Biso   1.000  O
  O10      1.0000 0.44730  0.64860  0.61215  Biso   1.000  O
  O11      1.0000 0.69840  0.86920  0.46008  Biso   1.000  O
  O12      1.0000 0.76270  0.04540  0.43962  Biso   1.000  O
  O13      1.0000 0.50620  0.95320  0.51221  Biso   1.000  O
  O14      1.0000 0.21730  0.00630  0.58000  Biso   1.000  O
  O15      1.0000 0.32520  0.84410  0.56030  Biso   1.000  O
  O16      1.0000 0.85400  0.87760  0.81171  Biso   1.000  O
  O17      1.0000 0.77930  0.69500  0.80890  Biso   1.000  O
  O18      1.0000 0.00080  0.83930  0.73797  Biso   1.000  O
  O19      1.0000 0.23930  0.80990  0.65389  Biso   1.000  O
  O20      1.0000 0.12210  0.96320  0.67693  Biso   1.000  O
  C1       1.0000 0.43800  0.19680  0.61850  Biso   1.000  C
  C2       1.0000 0.56920  0.25320  0.60470  Biso   1.000  C
  C3       1.0000 0.59080  0.34270  0.57950  Biso   1.000  C
  H1       1.0000 0.52040  0.38860  0.56660  Biso   1.000  H
  C4       1.0000 0.73920  0.35460  0.57610  Biso   1.000  C
  H2       1.0000 0.78790  0.40970  0.55990  Biso   1.000  H
  C5       1.0000 0.80030  0.27350  0.59990  Biso   1.000  C
  C6       1.0000 0.94920  0.25020  0.61020  Biso   1.000  C
  C7       1.0000 0.98950  0.62600  0.61970  Biso   1.000  C
  C8       1.0000 0.86170  0.57460  0.63840  Biso   1.000  C
  C9       1.0000 0.84320  0.49120  0.66710  Biso   1.000  C
  H3       1.0000 0.91610  0.45090  0.68120  Biso   1.000  H
  C10      1.0000 0.69570  0.47590  0.67200  Biso   1.000  C
  H4       1.0000 0.65020  0.42410  0.69020  Biso   1.000  H
  C11      1.0000 0.63060  0.54980  0.64560  Biso   1.000  C
  C12      1.0000 0.48090  0.56670  0.63480  Biso   1.000  C
  C13      1.0000 0.69030  0.97570  0.46080  Biso   1.000  C
  C14      1.0000 0.58410  0.02950  0.48870  Biso   1.000  C
  C15      1.0000 0.53620  0.13560  0.49510  Biso   1.000  C
  H5       1.0000 0.57190  0.20370  0.48280  Biso   1.000  H
  C16      1.0000 0.42040  0.12890  0.52410  Biso   1.000  C
  H6       1.0000 0.36500  0.19060  0.53450  Biso   1.000  H
  C17      1.0000 0.40770  0.01710  0.53340  Biso   1.000  C
  C18      1.0000 0.31150  0.95250  0.56040  Biso   1.000  C
  C19      1.0000 0.85280  0.77680  0.79650  Biso   1.000  C
  C20      1.0000 0.94490  0.75050  0.76140  Biso   1.000  C
  C21      1.0000 0.99330  0.65090  0.74840  Biso   1.000  C
  H7       1.0000 0.97030  0.57780  0.75950  Biso   1.000  H
  C22      1.0000 0.08560  0.67200  0.71510  Biso   1.000  C
  H8       1.0000 0.13670  0.61600  0.69990  Biso   1.000  H
  C23      1.0000 0.08750  0.78620  0.70900  Biso   1.000  C
  C24      1.0000 0.15420  0.85790  0.67730  Biso   1.000  C
  Mn4      1.0000 0.30684  0.90618  0.13759  Biso   1.000  Mn
  Mn5      1.0000 0.25958  0.28538  0.09962  Biso   1.000  Mn
  Mn6      1.0000 0.28383  0.59122  0.12589  Biso   1.000  Mn
  O21      1.0000 0.17810  0.75350  0.10988  Biso   1.000  O
  O22      1.0000 0.05830  0.89920  0.13596  Biso   1.000  O
  O23      1.0000 0.80430  0.79390  0.11740  Biso   1.000  O
  O24      1.0000 0.46740  0.67060  0.10074  Biso   1.000  O
  O25      1.0000 0.51870  0.84410  0.12660  Biso   1.000  O
  O26      1.0000 0.39440  0.42420  0.12643  Biso   1.000  O
  O27      1.0000 0.51790  0.28120  0.10020  Biso   1.000  O
  O28      1.0000 0.76860  0.38670  0.12468  Biso   1.000  O
  O29      1.0000 0.10320  0.50700  0.15011  Biso   1.000  O
  O30      1.0000 0.05270  0.35140  0.11215  Biso   1.000  O
  O31      1.0000 0.80160  0.13080  0.96008  Biso   1.000  O
  O32      1.0000 0.73730  0.95460  0.93962  Biso   1.000  O
  O33      1.0000 0.99380  0.04680  0.01221  Biso   1.000  O
  O34      1.0000 0.28270  0.99370  0.08000  Biso   1.000  O
  O35      1.0000 0.17480  0.15590  0.06030  Biso   1.000  O
  O36      1.0000 0.64600  0.12240  0.31171  Biso   1.000  O
  O37      1.0000 0.72070  0.30500  0.30890  Biso   1.000  O
  O38      1.0000 0.49920  0.16070  0.23797  Biso   1.000  O
  O39      1.0000 0.26070  0.19010  0.15389  Biso   1.000  O
  O40      1.0000 0.37790  0.03680  0.17693  Biso   1.000  O
  C25      1.0000 0.06200  0.80320  0.11850  Biso   1.000  C
  C26      1.0000 0.93080  0.74680  0.10470  Biso   1.000  C
  C27      1.0000 0.90920  0.65730  0.07950  Biso   1.000  C
  H9       1.0000 0.97960  0.61140  0.06660  Biso   1.000  H
  C28      1.0000 0.76080  0.64540  0.07610  Biso   1.000  C
  H10      1.0000 0.71210  0.59030  0.05990  Biso   1.000  H
  C29      1.0000 0.69970  0.72650  0.09990  Biso   1.000  C
  C30      1.0000 0.55080  0.74980  0.11020  Biso   1.000  C
  C31      1.0000 0.51050  0.37400  0.11970  Biso   1.000  C
  C32      1.0000 0.63830  0.42540  0.13840  Biso   1.000  C
  C33      1.0000 0.65680  0.50880  0.16710  Biso   1.000  C
  H11      1.0000 0.58390  0.54910  0.18120  Biso   1.000  H
  C34      1.0000 0.80430  0.52410  0.17200  Biso   1.000  C
  H12      1.0000 0.84980  0.57590  0.19020  Biso   1.000  H
  C35      1.0000 0.86940  0.45020  0.14560  Biso   1.000  C
  C36      1.0000 0.01910  0.43330  0.13480  Biso   1.000  C
  C37      1.0000 0.80970  0.02430  0.96080  Biso   1.000  C
  C38      1.0000 0.91590  0.97050  0.98870  Biso   1.000  C
  C39      1.0000 0.96380  0.86440  0.99510  Biso   1.000  C
  H13      1.0000 0.92810  0.79630  0.98280  Biso   1.000  H
  C40      1.0000 0.07960  0.87110  0.02410  Biso   1.000  C
  H14      1.0000 0.13500  0.80940  0.03450  Biso   1.000  H
  C41      1.0000 0.09230  0.98290  0.03340  Biso   1.000  C
  C42      1.0000 0.18850  0.04750  0.06040  Biso   1.000  C
  C43      1.0000 0.64720  0.22320  0.29650  Biso   1.000  C
  C44      1.0000 0.55510  0.24950  0.26140  Biso   1.000  C
  C45      1.0000 0.50670  0.34910  0.24840  Biso   1.000  C
  H15      1.0000 0.52970  0.42220  0.25950  Biso   1.000  H
  C46      1.0000 0.41440  0.32800  0.21510  Biso   1.000  C
  H16      1.0000 0.36330  0.38400  0.19990  Biso   1.000  H
  C47      1.0000 0.41250  0.21380  0.20900  Biso   1.000  C
  C48      1.0000 0.34580  0.14210  0.17730  Biso   1.000  C
  Mn7      1.0000 0.80684  0.59382  0.86241  Biso   1.000  Mn
  Mn8      1.0000 0.75958  0.21462  0.90038  Biso   1.000  Mn
  Mn9      1.0000 0.78383  0.90878  0.87411  Biso   1.000  Mn
  O41      1.0000 0.67810  0.74650  0.89012  Biso   1.000  O
  O42      1.0000 0.55830  0.60080  0.86404  Biso   1.000  O
  O43      1.0000 0.30430  0.70610  0.88260  Biso   1.000  O
  O44      1.0000 0.96740  0.82940  0.89926  Biso   1.000  O
  O45      1.0000 0.01870  0.65590  0.87340  Biso   1.000  O
  O46      1.0000 0.89440  0.07580  0.87357  Biso   1.000  O
  O47      1.0000 0.01790  0.21880  0.89980  Biso   1.000  O
  O48      1.0000 0.26860  0.11330  0.87532  Biso   1.000  O
  O49      1.0000 0.60320  0.99300  0.84989  Biso   1.000  O
  O50      1.0000 0.55270  0.14860  0.88785  Biso   1.000  O
  O51      1.0000 0.30160  0.36920  0.03992  Biso   1.000  O
  O52      1.0000 0.23730  0.54540  0.06038  Biso   1.000  O
  O53      1.0000 0.49380  0.45320  0.98779  Biso   1.000  O
  O54      1.0000 0.78270  0.50630  0.92000  Biso   1.000  O
  O55      1.0000 0.67480  0.34410  0.93970  Biso   1.000  O
  O56      1.0000 0.14600  0.37760  0.68829  Biso   1.000  O
  O57      1.0000 0.22070  0.19500  0.69110  Biso   1.000  O
  O58      1.0000 0.99920  0.33930  0.76203  Biso   1.000  O
  O59      1.0000 0.76070  0.30990  0.84611  Biso   1.000  O
  O60      1.0000 0.87790  0.46320  0.82307  Biso   1.000  O
  C49      1.0000 0.56200  0.69680  0.88150  Biso   1.000  C
  C50      1.0000 0.43080  0.75320  0.89530  Biso   1.000  C
  C51      1.0000 0.40920  0.84270  0.92050  Biso   1.000  C
  H17      1.0000 0.47960  0.88860  0.93340  Biso   1.000  H
  C52      1.0000 0.26080  0.85460  0.92390  Biso   1.000  C
  H18      1.0000 0.21210  0.90970  0.94010  Biso   1.000  H
  C53      1.0000 0.19970  0.77350  0.90010  Biso   1.000  C
  C54      1.0000 0.05080  0.75020  0.88980  Biso   1.000  C
  C55      1.0000 0.01050  0.12600  0.88030  Biso   1.000  C
  C56      1.0000 0.13830  0.07460  0.86160  Biso   1.000  C
  C57      1.0000 0.15680  0.99120  0.83290  Biso   1.000  C
  H19      1.0000 0.08390  0.95090  0.81880  Biso   1.000  H
  C58      1.0000 0.30430  0.97590  0.82800  Biso   1.000  C
  H20      1.0000 0.34980  0.92410  0.80980  Biso   1.000  H
  C59      1.0000 0.36940  0.04980  0.85440  Biso   1.000  C
  C60      1.0000 0.51910  0.06670  0.86520  Biso   1.000  C
  C61      1.0000 0.30970  0.47570  0.03920  Biso   1.000  C
  C62      1.0000 0.41590  0.52950  0.01130  Biso   1.000  C
  C63      1.0000 0.46380  0.63560  0.00490  Biso   1.000  C
  H21      1.0000 0.42810  0.70370  0.01720  Biso   1.000  H
  C64      1.0000 0.57960  0.62890  0.97590  Biso   1.000  C
  H22      1.0000 0.63500  0.69060  0.96550  Biso   1.000  H
  C65      1.0000 0.59230  0.51710  0.96660  Biso   1.000  C
  C66      1.0000 0.68850  0.45250  0.93960  Biso   1.000  C
  C67      1.0000 0.14720  0.27680  0.70350  Biso   1.000  C
  C68      1.0000 0.05510  0.25050  0.73860  Biso   1.000  C
  C69      1.0000 0.00670  0.15090  0.75160  Biso   1.000  C
  H23      1.0000 0.02970  0.07780  0.74050  Biso   1.000  H
  C70      1.0000 0.91440  0.17200  0.78490  Biso   1.000  C
  H24      1.0000 0.86330  0.11600  0.80010  Biso   1.000  H
  C71      1.0000 0.91250  0.28620  0.79100  Biso   1.000  C
  C72      1.0000 0.84580  0.35790  0.82270  Biso   1.000  C
  Mn10     1.0000 0.69316  0.40618  0.36241  Biso   1.000  Mn
  Mn11     1.0000 0.74042  0.78538  0.40038  Biso   1.000  Mn
  Mn12     1.0000 0.71617  0.09122  0.37411  Biso   1.000  Mn
  O61      1.0000 0.82190  0.25350  0.39012  Biso   1.000  O
  O62      1.0000 0.94170  0.39920  0.36404  Biso   1.000  O
  O63      1.0000 0.19570  0.29390  0.38260  Biso   1.000  O
  O64      1.0000 0.53260  0.17060  0.39926  Biso   1.000  O
  O65      1.0000 0.48130  0.34410  0.37340  Biso   1.000  O
  O66      1.0000 0.60560  0.92420  0.37357  Biso   1.000  O
  O67      1.0000 0.48210  0.78120  0.39980  Biso   1.000  O
  O68      1.0000 0.23140  0.88670  0.37532  Biso   1.000  O
  O69      1.0000 0.89680  0.00700  0.34989  Biso   1.000  O
  O70      1.0000 0.94730  0.85140  0.38785  Biso   1.000  O
  O71      1.0000 0.19840  0.63080  0.53992  Biso   1.000  O
  O72      1.0000 0.26270  0.45460  0.56038  Biso   1.000  O
  O73      1.0000 0.00620  0.54680  0.48779  Biso   1.000  O
  O74      1.0000 0.71730  0.49370  0.42000  Biso   1.000  O
  O75      1.0000 0.82520  0.65590  0.43970  Biso   1.000  O
  O76      1.0000 0.35400  0.62240  0.18829  Biso   1.000  O
  O77      1.0000 0.27930  0.80500  0.19110  Biso   1.000  O
  O78      1.0000 0.50080  0.66070  0.26203  Biso   1.000  O
  O79      1.0000 0.73930  0.69010  0.34611  Biso   1.000  O
  O80      1.0000 0.62210  0.53680  0.32307  Biso   1.000  O
  C73      1.0000 0.93800  0.30320  0.38150  Biso   1.000  C
  C74      1.0000 0.06920  0.24680  0.39530  Biso   1.000  C
  C75      1.0000 0.09080  0.15730  0.42050  Biso   1.000  C
  H25      1.0000 0.02040  0.11140  0.43340  Biso   1.000  H
  C76      1.0000 0.23920  0.14540  0.42390  Biso   1.000  C
  H26      1.0000 0.28790  0.09030  0.44010  Biso   1.000  H
  C77      1.0000 0.30030  0.22650  0.40010  Biso   1.000  C
  C78      1.0000 0.44920  0.24980  0.38980  Biso   1.000  C
  C79      1.0000 0.48950  0.87400  0.38030  Biso   1.000  C
  C80      1.0000 0.36170  0.92540  0.36160  Biso   1.000  C
  C81      1.0000 0.34320  0.00880  0.33290  Biso   1.000  C
  H27      1.0000 0.41610  0.04910  0.31880  Biso   1.000  H
  C82      1.0000 0.19570  0.02410  0.32800  Biso   1.000  C
  H28      1.0000 0.15020  0.07590  0.30980  Biso   1.000  H
  C83      1.0000 0.13060  0.95020  0.35440  Biso   1.000  C
  C84      1.0000 0.98090  0.93330  0.36520  Biso   1.000  C
  C85      1.0000 0.19030  0.52430  0.53920  Biso   1.000  C
  C86      1.0000 0.08410  0.47050  0.51130  Biso   1.000  C
  C87      1.0000 0.03620  0.36440  0.50490  Biso   1.000  C
  H29      1.0000 0.07190  0.29630  0.51720  Biso   1.000  H
  C88      1.0000 0.92040  0.37110  0.47590  Biso   1.000  C
  H30      1.0000 0.86500  0.30940  0.46550  Biso   1.000  H
  C89      1.0000 0.90770  0.48290  0.46660  Biso   1.000  C
  C90      1.0000 0.81150  0.54750  0.43960  Biso   1.000  C
  C91      1.0000 0.35280  0.72320  0.20350  Biso   1.000  C
  C92      1.0000 0.44490  0.74950  0.23860  Biso   1.000  C
  C93      1.0000 0.49330  0.84910  0.25160  Biso   1.000  C
  H31      1.0000 0.47030  0.92220  0.24050  Biso   1.000  H
  C94      1.0000 0.58560  0.82800  0.28490  Biso   1.000  C
  H32      1.0000 0.63670  0.88400  0.30010  Biso   1.000  H
  C95      1.0000 0.58750  0.71380  0.29100  Biso   1.000  C
  C96      1.0000 0.65420  0.64210  0.32270  Biso   1.000  C
