data_image0
_cell_length_a       9.4378
_cell_length_b       10.192
_cell_length_c       11.234
_cell_angle_alpha    64.11
_cell_angle_beta     73.1
_cell_angle_gamma    83.18

_symmetry_space_group_name_H-M    "P 1"
_symmetry_int_tables_number       1

loop_
  _symmetry_equiv_pos_as_xyz
  'x, y, z'

loop_
  _atom_site_label
  _atom_site_occupancy
  _atom_site_fract_x
  _atom_site_fract_y
  _atom_site_fract_z
  _atom_site_thermal_displace_type
  _atom_site_B_iso_or_equiv
  _atom_site_type_symbol
  Cd1      1.0000 0.05325  0.16732  0.29976  Biso   1.000  Cd
  Cd2      1.0000 0.04773  0.82151  0.60892  Biso   1.000  Cd
  Cd3      1.0000 0.07674  0.50318  0.98253  Biso   1.000  Cd
  O1       1.0000 0.27600  0.91110  0.48530  Biso   1.000  O
  O2       1.0000 0.27990  0.07320  0.26740  Biso   1.000  O
  O3       1.0000 0.56690  0.93010  0.43160  Biso   1.000  O
  O4       1.0000 0.75780  0.79670  0.58850  Biso   1.000  O
  O5       1.0000 0.94220  0.93690  0.42290  Biso   1.000  O
  C1       1.0000 0.33360  0.98780  0.36690  Biso   1.000  C
  C2       1.0000 0.50040  0.99490  0.32750  Biso   1.000  C
  C3       1.0000 0.60770  0.06510  0.20430  Biso   1.000  C
  H1       1.0000 0.59080  0.12110  0.11870  Biso   1.000  H
  C4       1.0000 0.74580  0.03570  0.23380  Biso   1.000  C
  H2       1.0000 0.83800  0.06550  0.17110  Biso   1.000  H
  C5       1.0000 0.71780  0.95230  0.37670  Biso   1.000  C
  C6       1.0000 0.81430  0.89720  0.46650  Biso   1.000  C
  C7       1.0000 0.29540  0.44430  0.13150  Biso   1.000  C
  C8       1.0000 0.39670  0.39400  0.22310  Biso   1.000  C
  C9       1.0000 0.37580  0.32970  0.35780  Biso   1.000  C
  H3       1.0000 0.28490  0.30660  0.42350  Biso   1.000  H
  C10      1.0000 0.51350  0.30280  0.38340  Biso   1.000  C
  H4       1.0000 0.53200  0.25850  0.46930  Biso   1.000  H
  C11      1.0000 0.61450  0.35190  0.26280  Biso   1.000  C
  C12      1.0000 0.77700  0.35640  0.22230  Biso   1.000  C
  O6       1.0000 0.15690  0.40280  0.19290  Biso   1.000  O
  O7       1.0000 0.34230  0.52320  0.00900  Biso   1.000  O
  O8       1.0000 0.54420  0.41930  0.15890  Biso   1.000  O
  O9       1.0000 0.84250  0.28670  0.31430  Biso   1.000  O
  O10      1.0000 0.84230  0.42720  0.09810  Biso   1.000  O
  C13      1.0000 0.97760  0.09920  0.63620  Biso   1.000  C
  C14      1.0000 0.93890  0.19120  0.71500  Biso   1.000  C
  C15      1.0000 0.86080  0.15490  0.84710  Biso   1.000  C
  H5       1.0000 0.81520  0.06580  0.90990  Biso   1.000  H
  C16      1.0000 0.86290  0.28080  0.87000  Biso   1.000  C
  H6       1.0000 0.81610  0.29290  0.94960  Biso   1.000  H
  C17      1.0000 0.94750  0.37940  0.75120  Biso   1.000  C
  C18      1.0000 0.99890  0.53490  0.70480  Biso   1.000  C
  O11      1.0000 0.94070  0.96750  0.70390  Biso   1.000  O
  O12      1.0000 0.04390  0.16910  0.50640  Biso   1.000  O
  O13      1.0000 0.99710  0.32600  0.65630  Biso   1.000  O
  O14      1.0000 0.96300  0.58700  0.79400  Biso   1.000  O
  O15      1.0000 0.06890  0.60330  0.58820  Biso   1.000  O
  C19      1.0000 0.15100  0.79290  0.87610  Biso   1.000  C
  C20      1.0000 0.19740  0.93600  0.85070  Biso   1.000  C
  C21      1.0000 0.28560  0.03760  0.73420  Biso   1.000  C
  H7       1.0000 0.33360  0.02730  0.65380  Biso   1.000  H
  C22      1.0000 0.29010  0.16060  0.75890  Biso   1.000  C
  H8       1.0000 0.34140  0.24700  0.69680  Biso   1.000  H
  C23      1.0000 0.20570  0.13200  0.89040  Biso   1.000  C
  C24      1.0000 0.15820  0.21100  0.97580  Biso   1.000  C
  O16      1.0000 0.06580  0.72140  0.99540  Biso   1.000  O
  O17      1.0000 0.20440  0.74830  0.78620  Biso   1.000  O
  O18      1.0000 0.14830  0.98860  0.94840  Biso   1.000  O
  O19      1.0000 0.20170  0.34550  0.90710  Biso   1.000  O
  O20      1.0000 0.07790  0.16190  0.08790  Biso   1.000  O
