data_image0
_cell_length_a       8.8102
_cell_length_b       15.6323
_cell_length_c       16.3592
_cell_angle_alpha    103.544
_cell_angle_beta     100.811
_cell_angle_gamma    90.1909

_symmetry_space_group_name_H-M    P 1
_symmetry_int_tables_number       1

loop_
  _symmetry_equiv_pos_as_xyz
  'x, y, z'

loop_
  _atom_site_label
  _atom_site_occupancy
  _atom_site_fract_x
  _atom_site_fract_y
  _atom_site_fract_z
  _atom_site_thermal_displace_type
  _atom_site_B_iso_or_equiv
  _atom_site_type_symbol
  Co1      1.0000 0.35538  0.95035  0.35973  Biso   1.000  Co
  Co2      1.0000 0.81166  0.79012  0.73236  Biso   1.000  Co
  Co3      1.0000 0.64462  0.04965  0.64027  Biso   1.000  Co
  Co4      1.0000 0.18834  0.20988  0.26764  Biso   1.000  Co
  H1       1.0000 0.37050  0.82800  0.75490  Biso   1.000  H
  H2       1.0000 0.07410  0.00280  0.60430  Biso   1.000  H
  H3       1.0000 0.26390  0.95690  0.16420  Biso   1.000  H
  H4       1.0000 0.34770  0.91840  0.03730  Biso   1.000  H
  H5       1.0000 0.73700  0.84710  0.16390  Biso   1.000  H
  H6       1.0000 0.63430  0.87730  0.28420  Biso   1.000  H
  H7       1.0000 0.14840  0.79100  0.24480  Biso   1.000  H
  H8       1.0000 0.11200  0.64200  0.22510  Biso   1.000  H
  H9       1.0000 0.46700  0.65150  0.41900  Biso   1.000  H
  H10      1.0000 0.48900  0.79990  0.43590  Biso   1.000  H
  H11      1.0000 0.16000  0.50170  0.18100  Biso   1.000  H
  H12      1.0000 0.12930  0.35270  0.16740  Biso   1.000  H
  H13      1.0000 0.32730  0.37430  0.40310  Biso   1.000  H
  H14      1.0000 0.36190  0.52320  0.42480  Biso   1.000  H
  H15      1.0000 0.81270  0.93700  0.04740  Biso   1.000  H
  H16      1.0000 0.90150  0.90070  0.91980  Biso   1.000  H
  H17      1.0000 0.55130  0.73490  0.81430  Biso   1.000  H
  H18      1.0000 0.44540  0.77210  0.93450  Biso   1.000  H
  H19      1.0000 0.77450  0.82440  0.54690  Biso   1.000  H
  H20      1.0000 0.97700  0.79430  0.37960  Biso   1.000  H
  H21      1.0000 0.80160  0.79430  0.38580  Biso   1.000  H
  H22      1.0000 0.91210  0.87630  0.43550  Biso   1.000  H
  H23      1.0000 0.12090  0.72280  0.44500  Biso   1.000  H
  H24      1.0000 0.15180  0.75550  0.54510  Biso   1.000  H
  H25      1.0000 0.05270  0.66800  0.49970  Biso   1.000  H
  H26      1.0000 0.62950  0.17200  0.24510  Biso   1.000  H
  H27      1.0000 0.92590  0.99720  0.39570  Biso   1.000  H
  H28      1.0000 0.73610  0.04310  0.83580  Biso   1.000  H
  H29      1.0000 0.65230  0.08160  0.96270  Biso   1.000  H
  H30      1.0000 0.26300  0.15290  0.83610  Biso   1.000  H
  H31      1.0000 0.36570  0.12270  0.71580  Biso   1.000  H
  H32      1.0000 0.85160  0.20900  0.75520  Biso   1.000  H
  H33      1.0000 0.88800  0.35800  0.77490  Biso   1.000  H
  H34      1.0000 0.53300  0.34850  0.58100  Biso   1.000  H
  H35      1.0000 0.51100  0.20010  0.56410  Biso   1.000  H
  H36      1.0000 0.84000  0.49830  0.81900  Biso   1.000  H
  H37      1.0000 0.87070  0.64730  0.83260  Biso   1.000  H
  H38      1.0000 0.67270  0.62570  0.59690  Biso   1.000  H
  H39      1.0000 0.63810  0.47680  0.57520  Biso   1.000  H
  H40      1.0000 0.18730  0.06300  0.95260  Biso   1.000  H
  H41      1.0000 0.09850  0.09930  0.08020  Biso   1.000  H
  H42      1.0000 0.44870  0.26510  0.18570  Biso   1.000  H
  H43      1.0000 0.55460  0.22790  0.06550  Biso   1.000  H
  H44      1.0000 0.22550  0.17560  0.45310  Biso   1.000  H
  H45      1.0000 0.02300  0.20570  0.62040  Biso   1.000  H
  H46      1.0000 0.19840  0.20570  0.61420  Biso   1.000  H
  H47      1.0000 0.08790  0.12370  0.56450  Biso   1.000  H
  H48      1.0000 0.87910  0.27720  0.55500  Biso   1.000  H
  H49      1.0000 0.84820  0.24450  0.45490  Biso   1.000  H
  H50      1.0000 0.94730  0.33200  0.50030  Biso   1.000  H
  C1       1.0000 0.33100  0.98447  0.54857  Biso   1.000  C
  C2       1.0000 0.53010  0.86696  0.64850  Biso   1.000  C
  C3       1.0000 0.12390  0.85563  0.81836  Biso   1.000  C
  C4       1.0000 0.92440  0.97048  0.71873  Biso   1.000  C
  C5       1.0000 0.27940  0.94615  0.61589  Biso   1.000  C
  C6       1.0000 0.36920  0.89303  0.66261  Biso   1.000  C
  C7       1.0000 0.31150  0.86448  0.72536  Biso   1.000  C
  C8       1.0000 0.16900  0.88820  0.74588  Biso   1.000  C
  C9       1.0000 0.07990  0.94169  0.70012  Biso   1.000  C
  C10      1.0000 0.13540  0.96857  0.63553  Biso   1.000  C
  C11      1.0000 0.35980  0.93240  0.16402  Biso   1.000  C
  C12      1.0000 0.41050  0.91110  0.08740  Biso   1.000  C
  C13      1.0000 0.55670  0.87858  0.08583  Biso   1.000  C
  C14      1.0000 0.63790  0.86800  0.16133  Biso   1.000  C
  C15      1.0000 0.57610  0.88760  0.23409  Biso   1.000  C
  C16      1.0000 0.21390  0.76247  0.28030  Biso   1.000  C
  C17      1.0000 0.19150  0.67264  0.26780  Biso   1.000  C
  C18      1.0000 0.28840  0.62795  0.31922  Biso   1.000  C
  C19      1.0000 0.40030  0.67821  0.38242  Biso   1.000  C
  C20      1.0000 0.41380  0.76753  0.39174  Biso   1.000  C
  C21      1.0000 0.26660  0.53119  0.30730  Biso   1.000  C
  C22      1.0000 0.19490  0.47750  0.22760  Biso   1.000  C
  C23      1.0000 0.17750  0.38780  0.22010  Biso   1.000  C
  C24      1.0000 0.29250  0.39990  0.35750  Biso   1.000  C
  C25      1.0000 0.31400  0.49020  0.37100  Biso   1.000  C
  C26      1.0000 0.61820  0.85659  0.00555  Biso   1.000  C
  C27      1.0000 0.75670  0.89630  0.00040  Biso   1.000  C
  C28      1.0000 0.80960  0.87370  0.92330  Biso   1.000  C
  C29      1.0000 0.60350  0.77740  0.86105  Biso   1.000  C
  C30      1.0000 0.54030  0.79790  0.93400  Biso   1.000  C
  C31      1.0000 0.85950  0.78945  0.55164  Biso   1.000  C
  C32      1.0000 0.90460  0.81320  0.41660  Biso   1.000  C
  C33      1.0000 0.07770  0.72630  0.49530  Biso   1.000  C
  C34      1.0000 0.66900  0.01553  0.45143  Biso   1.000  C
  C35      1.0000 0.46990  0.13304  0.35150  Biso   1.000  C
  C36      1.0000 0.87610  0.14437  0.18164  Biso   1.000  C
  C37      1.0000 0.07560  0.02952  0.28127  Biso   1.000  C
  C38      1.0000 0.72060  0.05385  0.38411  Biso   1.000  C
  C39      1.0000 0.63080  0.10697  0.33739  Biso   1.000  C
  C40      1.0000 0.68850  0.13552  0.27464  Biso   1.000  C
  C41      1.0000 0.83100  0.11180  0.25412  Biso   1.000  C
  C42      1.0000 0.92010  0.05831  0.29988  Biso   1.000  C
  C43      1.0000 0.86460  0.03143  0.36447  Biso   1.000  C
  C44      1.0000 0.64020  0.06760  0.83598  Biso   1.000  C
  C45      1.0000 0.58950  0.08890  0.91260  Biso   1.000  C
  C46      1.0000 0.44330  0.12142  0.91417  Biso   1.000  C
  C47      1.0000 0.36210  0.13200  0.83867  Biso   1.000  C
  C48      1.0000 0.42390  0.11240  0.76591  Biso   1.000  C
  C49      1.0000 0.78610  0.23753  0.71970  Biso   1.000  C
  C50      1.0000 0.80850  0.32736  0.73220  Biso   1.000  C
  C51      1.0000 0.71160  0.37205  0.68078  Biso   1.000  C
  C52      1.0000 0.59970  0.32179  0.61758  Biso   1.000  C
  C53      1.0000 0.58620  0.23247  0.60826  Biso   1.000  C
  C54      1.0000 0.73340  0.46881  0.69270  Biso   1.000  C
  C55      1.0000 0.80510  0.52250  0.77240  Biso   1.000  C
  C56      1.0000 0.82250  0.61220  0.77990  Biso   1.000  C
  C57      1.0000 0.70750  0.60010  0.64250  Biso   1.000  C
  C58      1.0000 0.68600  0.50980  0.62900  Biso   1.000  C
  C59      1.0000 0.38180  0.14341  0.99445  Biso   1.000  C
  C60      1.0000 0.24330  0.10370  0.99960  Biso   1.000  C
  C61      1.0000 0.19040  0.12630  0.07670  Biso   1.000  C
  C62      1.0000 0.39650  0.22260  0.13895  Biso   1.000  C
  C63      1.0000 0.45970  0.20210  0.06600  Biso   1.000  C
  C64      1.0000 0.14050  0.21055  0.44836  Biso   1.000  C
  C65      1.0000 0.09540  0.18680  0.58340  Biso   1.000  C
  C66      1.0000 0.92230  0.27370  0.50470  Biso   1.000  C
  N1       1.0000 0.43800  0.92032  0.23717  Biso   1.000  N
  N2       1.0000 0.32450  0.81053  0.34061  Biso   1.000  N
  N3       1.0000 0.22600  0.34857  0.28418  Biso   1.000  N
  N4       1.0000 0.73390  0.81458  0.85372  Biso   1.000  N
  N5       1.0000 0.93920  0.77546  0.48943  Biso   1.000  N
  N6       1.0000 0.56200  0.07968  0.76283  Biso   1.000  N
  N7       1.0000 0.67550  0.18947  0.65939  Biso   1.000  N
  N8       1.0000 0.77400  0.65143  0.71582  Biso   1.000  N
  N9       1.0000 0.26610  0.18542  0.14628  Biso   1.000  N
  N10      1.0000 0.06080  0.22454  0.51057  Biso   1.000  N
  O1       1.0000 0.27066  0.95057  0.47267  Biso   1.000  O
  O2       1.0000 0.42235  0.05243  0.57379  Biso   1.000  O
  O3       1.0000 0.58203  0.80102  0.67447  Biso   1.000  O
  O4       1.0000 0.60176  0.91170  0.61239  Biso   1.000  O
  O5       1.0000 0.18280  0.89484  0.89237  Biso   1.000  O
  O6       1.0000 0.03507  0.78621  0.79921  Biso   1.000  O
  O7       1.0000 0.87277  0.03803  0.69525  Biso   1.000  O
  O8       1.0000 0.85505  0.92660  0.75678  Biso   1.000  O
  O9       1.0000 0.89030  0.75929  0.61551  Biso   1.000  O
  O10      1.0000 0.72934  0.04943  0.52733  Biso   1.000  O
  O11      1.0000 0.57765  0.94757  0.42621  Biso   1.000  O
  O12      1.0000 0.41797  0.19898  0.32553  Biso   1.000  O
  O13      1.0000 0.39824  0.08830  0.38761  Biso   1.000  O
  O14      1.0000 0.81720  0.10516  0.10763  Biso   1.000  O
  O15      1.0000 0.96493  0.21379  0.20079  Biso   1.000  O
  O16      1.0000 0.12723  0.96197  0.30475  Biso   1.000  O
  O17      1.0000 0.14495  0.07340  0.24322  Biso   1.000  O
  O18      1.0000 0.10970  0.24071  0.38449  Biso   1.000  O
