data_image0
_cell_length_a       10.29
_cell_length_b       10.29
_cell_length_c       14.5
_cell_angle_alpha    90
_cell_angle_beta     90
_cell_angle_gamma    90

_symmetry_space_group_name_H-M    P 1
_symmetry_int_tables_number       1

loop_
  _symmetry_equiv_pos_as_xyz
  'x, y, z'

loop_
  _atom_site_label
  _atom_site_occupancy
  _atom_site_fract_x
  _atom_site_fract_y
  _atom_site_fract_z
  _atom_site_thermal_displace_type
  _atom_site_B_iso_or_equiv
  _atom_site_type_symbol
  Y1       1.0000 0.85085  0.14915  0.62500  Biso   1.000  Y
  Y2       1.0000 0.14915  0.85085  0.12500  Biso   1.000  Y
  Y3       1.0000 0.85085  0.85085  0.87500  Biso   1.000  Y
  Y4       1.0000 0.14915  0.14915  0.37500  Biso   1.000  Y
  H1       1.0000 0.55850  0.07620  0.37680  Biso   1.000  H
  H2       1.0000 0.44150  0.92380  0.87680  Biso   1.000  H
  H3       1.0000 0.92380  0.55850  0.62680  Biso   1.000  H
  H4       1.0000 0.07620  0.44150  0.12680  Biso   1.000  H
  H5       1.0000 0.44150  0.07620  0.62320  Biso   1.000  H
  H6       1.0000 0.55850  0.92380  0.12320  Biso   1.000  H
  H7       1.0000 0.07620  0.55850  0.37320  Biso   1.000  H
  H8       1.0000 0.92380  0.44150  0.87320  Biso   1.000  H
  H9       1.0000 0.89970  0.00000  0.25000  Biso   1.000  H
  H10      1.0000 0.10030  0.00000  0.75000  Biso   1.000  H
  H11      1.0000 0.00000  0.89970  0.50000  Biso   1.000  H
  H12      1.0000 0.00000  0.10030  0.00000  Biso   1.000  H
  C1       1.0000 0.60460  0.04490  0.32630  Biso   1.000  C
  C2       1.0000 0.73920  0.04320  0.32760  Biso   1.000  C
  C3       1.0000 0.81620  0.08850  0.40980  Biso   1.000  C
  C4       1.0000 0.39540  0.95510  0.82630  Biso   1.000  C
  C5       1.0000 0.26080  0.95680  0.82760  Biso   1.000  C
  C6       1.0000 0.18380  0.91150  0.90980  Biso   1.000  C
  C7       1.0000 0.95510  0.60460  0.57630  Biso   1.000  C
  C8       1.0000 0.95680  0.73920  0.57760  Biso   1.000  C
  C9       1.0000 0.91150  0.81620  0.65980  Biso   1.000  C
  C10      1.0000 0.04490  0.39540  0.07630  Biso   1.000  C
  C11      1.0000 0.04320  0.26080  0.07760  Biso   1.000  C
  C12      1.0000 0.08850  0.18380  0.15980  Biso   1.000  C
  C13      1.0000 0.39540  0.04490  0.67370  Biso   1.000  C
  C14      1.0000 0.26080  0.04320  0.67240  Biso   1.000  C
  C15      1.0000 0.18380  0.08850  0.59020  Biso   1.000  C
  C16      1.0000 0.60460  0.95510  0.17370  Biso   1.000  C
  C17      1.0000 0.73920  0.95680  0.17240  Biso   1.000  C
  C18      1.0000 0.81620  0.91150  0.09020  Biso   1.000  C
  C19      1.0000 0.04490  0.60460  0.42370  Biso   1.000  C
  C20      1.0000 0.04320  0.73920  0.42240  Biso   1.000  C
  C21      1.0000 0.08850  0.81620  0.34020  Biso   1.000  C
  C22      1.0000 0.95510  0.39540  0.92370  Biso   1.000  C
  C23      1.0000 0.95680  0.26080  0.92240  Biso   1.000  C
  C24      1.0000 0.91150  0.18380  0.84020  Biso   1.000  C
  C25      1.0000 0.53980  0.00000  0.25000  Biso   1.000  C
  C26      1.0000 0.39110  0.00000  0.25000  Biso   1.000  C
  C27      1.0000 0.80930  0.00000  0.25000  Biso   1.000  C
  C28      1.0000 0.46020  0.00000  0.75000  Biso   1.000  C
  C29      1.0000 0.60890  0.00000  0.75000  Biso   1.000  C
  C30      1.0000 0.19070  0.00000  0.75000  Biso   1.000  C
  C31      1.0000 0.00000  0.53980  0.50000  Biso   1.000  C
  C32      1.0000 0.00000  0.39110  0.50000  Biso   1.000  C
  C33      1.0000 0.00000  0.80930  0.50000  Biso   1.000  C
  C34      1.0000 0.00000  0.46020  0.00000  Biso   1.000  C
  C35      1.0000 0.00000  0.60890  0.00000  Biso   1.000  C
  C36      1.0000 0.00000  0.19070  0.00000  Biso   1.000  C
  O1       1.0000 0.75850  0.09550  0.48640  Biso   1.000  O
  O2       1.0000 0.33620  0.07250  0.30760  Biso   1.000  O
  O3       1.0000 0.93350  0.11270  0.39970  Biso   1.000  O
  O4       1.0000 0.24150  0.90450  0.98640  Biso   1.000  O
  O5       1.0000 0.66380  0.92750  0.80760  Biso   1.000  O
  O6       1.0000 0.06650  0.88730  0.89970  Biso   1.000  O
  O7       1.0000 0.90450  0.75850  0.73640  Biso   1.000  O
  O8       1.0000 0.92750  0.33620  0.55760  Biso   1.000  O
  O9       1.0000 0.88730  0.93350  0.64970  Biso   1.000  O
  O10      1.0000 0.09550  0.24150  0.23640  Biso   1.000  O
  O11      1.0000 0.07250  0.66380  0.05760  Biso   1.000  O
  O12      1.0000 0.11270  0.06650  0.14970  Biso   1.000  O
  O13      1.0000 0.24150  0.09550  0.51360  Biso   1.000  O
  O14      1.0000 0.66380  0.07250  0.69240  Biso   1.000  O
  O15      1.0000 0.06650  0.11270  0.60030  Biso   1.000  O
  O16      1.0000 0.75850  0.90450  0.01360  Biso   1.000  O
  O17      1.0000 0.33620  0.92750  0.19240  Biso   1.000  O
  O18      1.0000 0.93350  0.88730  0.10030  Biso   1.000  O
  O19      1.0000 0.09550  0.75850  0.26360  Biso   1.000  O
  O20      1.0000 0.07250  0.33620  0.44240  Biso   1.000  O
  O21      1.0000 0.11270  0.93350  0.35030  Biso   1.000  O
  O22      1.0000 0.90450  0.24150  0.76360  Biso   1.000  O
  O23      1.0000 0.92750  0.66380  0.94240  Biso   1.000  O
  O24      1.0000 0.88730  0.06650  0.85030  Biso   1.000  O
  O25      1.0000 0.68760  0.31240  0.62500  Biso   1.000  O
  O26      1.0000 0.31240  0.68760  0.12500  Biso   1.000  O
  O27      1.0000 0.68760  0.68760  0.87500  Biso   1.000  O
  O28      1.0000 0.31240  0.31240  0.37500  Biso   1.000  O
