data_image0
_cell_length_a       25.882
_cell_length_b       25.882
_cell_length_c       25.882
_cell_angle_alpha    90
_cell_angle_beta     90
_cell_angle_gamma    90

_symmetry_space_group_name_H-M    "P 1"
_symmetry_int_tables_number       1

loop_
  _symmetry_equiv_pos_as_xyz
  'x, y, z'

loop_
  _atom_site_label
  _atom_site_occupancy
  _atom_site_fract_x
  _atom_site_fract_y
  _atom_site_fract_z
  _atom_site_thermal_displace_type
  _atom_site_B_iso_or_equiv
  _atom_site_type_symbol
  Zn1      1.0000 0.29337  0.29337  0.20663  Biso   1.000  Zn
  Zn2      1.0000 0.70663  0.70663  0.20663  Biso   1.000  Zn
  Zn3      1.0000 0.20663  0.20663  0.20663  Biso   1.000  Zn
  Zn4      1.0000 0.70663  0.29337  0.79337  Biso   1.000  Zn
  Zn5      1.0000 0.20663  0.29337  0.29337  Biso   1.000  Zn
  Zn6      1.0000 0.29337  0.70663  0.79337  Biso   1.000  Zn
  Zn7      1.0000 0.29337  0.20663  0.29337  Biso   1.000  Zn
  Zn8      1.0000 0.20663  0.79337  0.79337  Biso   1.000  Zn
  Zn9      1.0000 0.20663  0.70663  0.70663  Biso   1.000  Zn
  Zn10     1.0000 0.79337  0.70663  0.29337  Biso   1.000  Zn
  Zn11     1.0000 0.79337  0.20663  0.79337  Biso   1.000  Zn
  Zn12     1.0000 0.79337  0.29337  0.70663  Biso   1.000  Zn
  Zn13     1.0000 0.79337  0.79337  0.20663  Biso   1.000  Zn
  Zn14     1.0000 0.70663  0.20663  0.70663  Biso   1.000  Zn
  Zn15     1.0000 0.29337  0.79337  0.70663  Biso   1.000  Zn
  Zn16     1.0000 0.70663  0.79337  0.29337  Biso   1.000  Zn
  Zn17     1.0000 0.29337  0.29337  0.79337  Biso   1.000  Zn
  Zn18     1.0000 0.70663  0.70663  0.79337  Biso   1.000  Zn
  Zn19     1.0000 0.70663  0.20663  0.29337  Biso   1.000  Zn
  Zn20     1.0000 0.20663  0.70663  0.29337  Biso   1.000  Zn
  Zn21     1.0000 0.29337  0.70663  0.20663  Biso   1.000  Zn
  Zn22     1.0000 0.70663  0.29337  0.20663  Biso   1.000  Zn
  Zn23     1.0000 0.20663  0.79337  0.20663  Biso   1.000  Zn
  Zn24     1.0000 0.29337  0.20663  0.70663  Biso   1.000  Zn
  Zn25     1.0000 0.20663  0.20663  0.79337  Biso   1.000  Zn
  Zn26     1.0000 0.70663  0.79337  0.70663  Biso   1.000  Zn
  Zn27     1.0000 0.20663  0.29337  0.70663  Biso   1.000  Zn
  Zn28     1.0000 0.29337  0.79337  0.29337  Biso   1.000  Zn
  Zn29     1.0000 0.79337  0.29337  0.29337  Biso   1.000  Zn
  Zn30     1.0000 0.79337  0.79337  0.79337  Biso   1.000  Zn
  Zn31     1.0000 0.79337  0.70663  0.70663  Biso   1.000  Zn
  Zn32     1.0000 0.79337  0.20663  0.20663  Biso   1.000  Zn
  O1       1.0000 0.25000  0.25000  0.25000  Biso   1.000  O
  O2       1.0000 0.75000  0.75000  0.25000  Biso   1.000  O
  O3       1.0000 0.75000  0.25000  0.75000  Biso   1.000  O
  O4       1.0000 0.25000  0.75000  0.75000  Biso   1.000  O
  O5       1.0000 0.25000  0.25000  0.75000  Biso   1.000  O
  O6       1.0000 0.75000  0.75000  0.75000  Biso   1.000  O
  O7       1.0000 0.75000  0.25000  0.25000  Biso   1.000  O
  O8       1.0000 0.25000  0.75000  0.25000  Biso   1.000  O
  O9       1.0000 0.28040  0.36667  0.21960  Biso   1.000  O
  C1       1.0000 0.28309  0.47300  0.21691  Biso   1.000  C
  H1       1.0000 0.30550  0.45460  0.19450  Biso   1.000  H
  O10      1.0000 0.28040  0.86667  0.71960  Biso   1.000  O
  C2       1.0000 0.28309  0.97300  0.71691  Biso   1.000  C
  H2       1.0000 0.30550  0.95460  0.69450  Biso   1.000  H
  O11      1.0000 0.71960  0.63333  0.21960  Biso   1.000  O
  C3       1.0000 0.71691  0.52700  0.21691  Biso   1.000  C
  H3       1.0000 0.69450  0.54540  0.19450  Biso   1.000  H
  O12      1.0000 0.71960  0.13333  0.71960  Biso   1.000  O
  C4       1.0000 0.71691  0.02700  0.71691  Biso   1.000  C
  H4       1.0000 0.69450  0.04540  0.69450  Biso   1.000  H
  O13      1.0000 0.21960  0.13333  0.21960  Biso   1.000  O
  C5       1.0000 0.21691  0.02700  0.21691  Biso   1.000  C
  H5       1.0000 0.19450  0.04540  0.19450  Biso   1.000  H
  O14      1.0000 0.71960  0.36667  0.78040  Biso   1.000  O
  C6       1.0000 0.71691  0.47300  0.78309  Biso   1.000  C
  H6       1.0000 0.69450  0.45460  0.80550  Biso   1.000  H
  O15      1.0000 0.71960  0.86667  0.28040  Biso   1.000  O
  C7       1.0000 0.71691  0.97300  0.28309  Biso   1.000  C
  H7       1.0000 0.69450  0.95460  0.30550  Biso   1.000  H
  O16      1.0000 0.21960  0.36667  0.28040  Biso   1.000  O
  C8       1.0000 0.21691  0.47300  0.28309  Biso   1.000  C
  H8       1.0000 0.19450  0.45460  0.30550  Biso   1.000  H
  O17      1.0000 0.28040  0.63333  0.78040  Biso   1.000  O
  C9       1.0000 0.28309  0.52700  0.78309  Biso   1.000  C
  H9       1.0000 0.30550  0.54540  0.80550  Biso   1.000  H
  O18      1.0000 0.28040  0.13333  0.28040  Biso   1.000  O
  C10      1.0000 0.28309  0.02700  0.28309  Biso   1.000  C
  H10      1.0000 0.30550  0.04540  0.30550  Biso   1.000  H
  O19      1.0000 0.21960  0.28040  0.36667  Biso   1.000  O
  C11      1.0000 0.21691  0.28309  0.47300  Biso   1.000  C
  H11      1.0000 0.19450  0.30550  0.45460  Biso   1.000  H
  O20      1.0000 0.21960  0.78040  0.86667  Biso   1.000  O
  C12      1.0000 0.21691  0.78309  0.97300  Biso   1.000  C
  H12      1.0000 0.19450  0.80550  0.95460  Biso   1.000  H
  O21      1.0000 0.21960  0.71960  0.63333  Biso   1.000  O
  C13      1.0000 0.21691  0.71691  0.52700  Biso   1.000  C
  H13      1.0000 0.19450  0.69450  0.54540  Biso   1.000  H
  O22      1.0000 0.21960  0.21960  0.13333  Biso   1.000  O
  C14      1.0000 0.21691  0.21691  0.02700  Biso   1.000  C
  H14      1.0000 0.19450  0.19450  0.04540  Biso   1.000  H
  O23      1.0000 0.78040  0.71960  0.36667  Biso   1.000  O
  C15      1.0000 0.78309  0.71691  0.47300  Biso   1.000  C
  H15      1.0000 0.80550  0.69450  0.45460  Biso   1.000  H
  O24      1.0000 0.78040  0.21960  0.86667  Biso   1.000  O
  C16      1.0000 0.78309  0.21691  0.97300  Biso   1.000  C
  H16      1.0000 0.80550  0.19450  0.95460  Biso   1.000  H
  O25      1.0000 0.28040  0.21960  0.36667  Biso   1.000  O
  C17      1.0000 0.28309  0.21691  0.47300  Biso   1.000  C
  H17      1.0000 0.30550  0.19450  0.45460  Biso   1.000  H
  O26      1.0000 0.78040  0.28040  0.63333  Biso   1.000  O
  C18      1.0000 0.78309  0.28309  0.52700  Biso   1.000  C
  H18      1.0000 0.80550  0.30550  0.54540  Biso   1.000  H
  O27      1.0000 0.78040  0.78040  0.13333  Biso   1.000  O
  C19      1.0000 0.78309  0.78309  0.02700  Biso   1.000  C
  H19      1.0000 0.80550  0.80550  0.04540  Biso   1.000  H
  O28      1.0000 0.28040  0.28040  0.13333  Biso   1.000  O
  C20      1.0000 0.28309  0.28309  0.02700  Biso   1.000  C
  H20      1.0000 0.30550  0.30550  0.04540  Biso   1.000  H
  O29      1.0000 0.36667  0.21960  0.28040  Biso   1.000  O
  C21      1.0000 0.47300  0.21691  0.28309  Biso   1.000  C
  H21      1.0000 0.45460  0.19450  0.30550  Biso   1.000  H
  O30      1.0000 0.86667  0.21960  0.78040  Biso   1.000  O
  C22      1.0000 0.97300  0.21691  0.78309  Biso   1.000  C
  H22      1.0000 0.95460  0.19450  0.80550  Biso   1.000  H
  O31      1.0000 0.63333  0.21960  0.71960  Biso   1.000  O
  C23      1.0000 0.52700  0.21691  0.71691  Biso   1.000  C
  H23      1.0000 0.54540  0.19450  0.69450  Biso   1.000  H
  O32      1.0000 0.13333  0.21960  0.21960  Biso   1.000  O
  C24      1.0000 0.02700  0.21691  0.21691  Biso   1.000  C
  H24      1.0000 0.04540  0.19450  0.19450  Biso   1.000  H
  O33      1.0000 0.36667  0.78040  0.71960  Biso   1.000  O
  C25      1.0000 0.47300  0.78309  0.71691  Biso   1.000  C
  H25      1.0000 0.45460  0.80550  0.69450  Biso   1.000  H
  O34      1.0000 0.36667  0.28040  0.21960  Biso   1.000  O
  C26      1.0000 0.47300  0.28309  0.21691  Biso   1.000  C
  H26      1.0000 0.45460  0.30550  0.19450  Biso   1.000  H
  O35      1.0000 0.86667  0.78040  0.21960  Biso   1.000  O
  C27      1.0000 0.97300  0.78309  0.21691  Biso   1.000  C
  H27      1.0000 0.95460  0.80550  0.19450  Biso   1.000  H
  O36      1.0000 0.63333  0.78040  0.28040  Biso   1.000  O
  C28      1.0000 0.52700  0.78309  0.28309  Biso   1.000  C
  H28      1.0000 0.54540  0.80550  0.30550  Biso   1.000  H
  O37      1.0000 0.13333  0.78040  0.78040  Biso   1.000  O
  C29      1.0000 0.02700  0.78309  0.78309  Biso   1.000  C
  H29      1.0000 0.04540  0.80550  0.80550  Biso   1.000  H
  O38      1.0000 0.13333  0.28040  0.28040  Biso   1.000  O
  C30      1.0000 0.02700  0.28309  0.28309  Biso   1.000  C
  H30      1.0000 0.04540  0.30550  0.30550  Biso   1.000  H
  O39      1.0000 0.36667  0.28040  0.78040  Biso   1.000  O
  C31      1.0000 0.47300  0.28309  0.78309  Biso   1.000  C
  H31      1.0000 0.45460  0.30550  0.80550  Biso   1.000  H
  O40      1.0000 0.86667  0.28040  0.28040  Biso   1.000  O
  C32      1.0000 0.97300  0.28309  0.28309  Biso   1.000  C
  H32      1.0000 0.95460  0.30550  0.30550  Biso   1.000  H
  O41      1.0000 0.63333  0.71960  0.78040  Biso   1.000  O
  C33      1.0000 0.52700  0.71691  0.78309  Biso   1.000  C
  H33      1.0000 0.54540  0.69450  0.80550  Biso   1.000  H
  O42      1.0000 0.63333  0.21960  0.28040  Biso   1.000  O
  C34      1.0000 0.52700  0.21691  0.28309  Biso   1.000  C
  H34      1.0000 0.54540  0.19450  0.30550  Biso   1.000  H
  O43      1.0000 0.13333  0.71960  0.28040  Biso   1.000  O
  C35      1.0000 0.02700  0.71691  0.28309  Biso   1.000  C
  H35      1.0000 0.04540  0.69450  0.30550  Biso   1.000  H
  O44      1.0000 0.36667  0.71960  0.21960  Biso   1.000  O
  C36      1.0000 0.47300  0.71691  0.21691  Biso   1.000  C
  H36      1.0000 0.45460  0.69450  0.19450  Biso   1.000  H
  O45      1.0000 0.86667  0.71960  0.71960  Biso   1.000  O
  C37      1.0000 0.97300  0.71691  0.71691  Biso   1.000  C
  H37      1.0000 0.95460  0.69450  0.69450  Biso   1.000  H
  O46      1.0000 0.86667  0.21960  0.21960  Biso   1.000  O
  C38      1.0000 0.97300  0.21691  0.21691  Biso   1.000  C
  H38      1.0000 0.95460  0.19450  0.19450  Biso   1.000  H
  O47      1.0000 0.63333  0.28040  0.21960  Biso   1.000  O
  C39      1.0000 0.52700  0.28309  0.21691  Biso   1.000  C
  H39      1.0000 0.54540  0.30550  0.19450  Biso   1.000  H
  O48      1.0000 0.13333  0.28040  0.71960  Biso   1.000  O
  C40      1.0000 0.02700  0.28309  0.71691  Biso   1.000  C
  H40      1.0000 0.04540  0.30550  0.69450  Biso   1.000  H
  O49      1.0000 0.28040  0.21960  0.63333  Biso   1.000  O
  C41      1.0000 0.28309  0.21691  0.52700  Biso   1.000  C
  H41      1.0000 0.30550  0.19450  0.54540  Biso   1.000  H
  O50      1.0000 0.28040  0.71960  0.13333  Biso   1.000  O
  C42      1.0000 0.28309  0.71691  0.02700  Biso   1.000  C
  H42      1.0000 0.30550  0.69450  0.04540  Biso   1.000  H
  O51      1.0000 0.71960  0.21960  0.36667  Biso   1.000  O
  C43      1.0000 0.71691  0.21691  0.47300  Biso   1.000  C
  H43      1.0000 0.69450  0.19450  0.45460  Biso   1.000  H
  O52      1.0000 0.71960  0.71960  0.86667  Biso   1.000  O
  C44      1.0000 0.71691  0.71691  0.97300  Biso   1.000  C
  H44      1.0000 0.69450  0.69450  0.95460  Biso   1.000  H
  O53      1.0000 0.21960  0.21960  0.86667  Biso   1.000  O
  C45      1.0000 0.21691  0.21691  0.97300  Biso   1.000  C
  H45      1.0000 0.19450  0.19450  0.95460  Biso   1.000  H
  O54      1.0000 0.71960  0.78040  0.63333  Biso   1.000  O
  C46      1.0000 0.71691  0.78309  0.52700  Biso   1.000  C
  H46      1.0000 0.69450  0.80550  0.54540  Biso   1.000  H
  O55      1.0000 0.71960  0.28040  0.13333  Biso   1.000  O
  C47      1.0000 0.71691  0.28309  0.02700  Biso   1.000  C
  H47      1.0000 0.69450  0.30550  0.04540  Biso   1.000  H
  O56      1.0000 0.21960  0.28040  0.63333  Biso   1.000  O
  C48      1.0000 0.21691  0.28309  0.52700  Biso   1.000  C
  H48      1.0000 0.19450  0.30550  0.54540  Biso   1.000  H
  O57      1.0000 0.28040  0.78040  0.36667  Biso   1.000  O
  C49      1.0000 0.28309  0.78309  0.47300  Biso   1.000  C
  H49      1.0000 0.30550  0.80550  0.45460  Biso   1.000  H
  O58      1.0000 0.28040  0.28040  0.86667  Biso   1.000  O
  C50      1.0000 0.28309  0.28309  0.97300  Biso   1.000  C
  H50      1.0000 0.30550  0.30550  0.95460  Biso   1.000  H
  O59      1.0000 0.21960  0.36667  0.71960  Biso   1.000  O
  C51      1.0000 0.21691  0.47300  0.71691  Biso   1.000  C
  H51      1.0000 0.19450  0.45460  0.69450  Biso   1.000  H
  O60      1.0000 0.21960  0.86667  0.21960  Biso   1.000  O
  C52      1.0000 0.21691  0.97300  0.21691  Biso   1.000  C
  H52      1.0000 0.19450  0.95460  0.19450  Biso   1.000  H
  O61      1.0000 0.21960  0.63333  0.28040  Biso   1.000  O
  C53      1.0000 0.21691  0.52700  0.28309  Biso   1.000  C
  H53      1.0000 0.19450  0.54540  0.30550  Biso   1.000  H
  O62      1.0000 0.21960  0.13333  0.78040  Biso   1.000  O
  C54      1.0000 0.21691  0.02700  0.78309  Biso   1.000  C
  H54      1.0000 0.19450  0.04540  0.80550  Biso   1.000  H
  O63      1.0000 0.78040  0.36667  0.28040  Biso   1.000  O
  C55      1.0000 0.78309  0.47300  0.28309  Biso   1.000  C
  H55      1.0000 0.80550  0.45460  0.30550  Biso   1.000  H
  O64      1.0000 0.78040  0.86667  0.78040  Biso   1.000  O
  C56      1.0000 0.78309  0.97300  0.78309  Biso   1.000  C
  H56      1.0000 0.80550  0.95460  0.80550  Biso   1.000  H
  O65      1.0000 0.28040  0.86667  0.28040  Biso   1.000  O
  C57      1.0000 0.28309  0.97300  0.28309  Biso   1.000  C
  H57      1.0000 0.30550  0.95460  0.30550  Biso   1.000  H
  O66      1.0000 0.78040  0.63333  0.71960  Biso   1.000  O
  C58      1.0000 0.78309  0.52700  0.71691  Biso   1.000  C
  H58      1.0000 0.80550  0.54540  0.69450  Biso   1.000  H
  O67      1.0000 0.78040  0.13333  0.21960  Biso   1.000  O
  C59      1.0000 0.78309  0.02700  0.21691  Biso   1.000  C
  H59      1.0000 0.80550  0.04540  0.19450  Biso   1.000  H
  O68      1.0000 0.28040  0.63333  0.21960  Biso   1.000  O
  C60      1.0000 0.28309  0.52700  0.21691  Biso   1.000  C
  H60      1.0000 0.30550  0.54540  0.19450  Biso   1.000  H
  O69      1.0000 0.71960  0.63333  0.78040  Biso   1.000  O
  C61      1.0000 0.71691  0.52700  0.78309  Biso   1.000  C
  H61      1.0000 0.69450  0.54540  0.80550  Biso   1.000  H
  O70      1.0000 0.71960  0.13333  0.28040  Biso   1.000  O
  C62      1.0000 0.71691  0.02700  0.28309  Biso   1.000  C
  H62      1.0000 0.69450  0.04540  0.30550  Biso   1.000  H
  O71      1.0000 0.28040  0.36667  0.78040  Biso   1.000  O
  C63      1.0000 0.28309  0.47300  0.78309  Biso   1.000  C
  H63      1.0000 0.30550  0.45460  0.80550  Biso   1.000  H
  O72      1.0000 0.28040  0.13333  0.71960  Biso   1.000  O
  C64      1.0000 0.28309  0.02700  0.71691  Biso   1.000  C
  H64      1.0000 0.30550  0.04540  0.69450  Biso   1.000  H
  O73      1.0000 0.71960  0.36667  0.21960  Biso   1.000  O
  C65      1.0000 0.71691  0.47300  0.21691  Biso   1.000  C
  H65      1.0000 0.69450  0.45460  0.19450  Biso   1.000  H
  O74      1.0000 0.71960  0.86667  0.71960  Biso   1.000  O
  C66      1.0000 0.71691  0.97300  0.71691  Biso   1.000  C
  H66      1.0000 0.69450  0.95460  0.69450  Biso   1.000  H
  O75      1.0000 0.78040  0.71960  0.63333  Biso   1.000  O
  C67      1.0000 0.78309  0.71691  0.52700  Biso   1.000  C
  H67      1.0000 0.80550  0.69450  0.54540  Biso   1.000  H
  O76      1.0000 0.78040  0.21960  0.13333  Biso   1.000  O
  C68      1.0000 0.78309  0.21691  0.02700  Biso   1.000  C
  H68      1.0000 0.80550  0.19450  0.04540  Biso   1.000  H
  O77      1.0000 0.78040  0.28040  0.36667  Biso   1.000  O
  C69      1.0000 0.78309  0.28309  0.47300  Biso   1.000  C
  H69      1.0000 0.80550  0.30550  0.45460  Biso   1.000  H
  O78      1.0000 0.78040  0.78040  0.86667  Biso   1.000  O
  C70      1.0000 0.78309  0.78309  0.97300  Biso   1.000  C
  H70      1.0000 0.80550  0.80550  0.95460  Biso   1.000  H
  O79      1.0000 0.21960  0.78040  0.13333  Biso   1.000  O
  C71      1.0000 0.21691  0.78309  0.02700  Biso   1.000  C
  H71      1.0000 0.19450  0.80550  0.04540  Biso   1.000  H
  O80      1.0000 0.21960  0.71960  0.36667  Biso   1.000  O
  C72      1.0000 0.21691  0.71691  0.47300  Biso   1.000  C
  H72      1.0000 0.19450  0.69450  0.45460  Biso   1.000  H
  O81      1.0000 0.63333  0.78040  0.71960  Biso   1.000  O
  C73      1.0000 0.52700  0.78309  0.71691  Biso   1.000  C
  H73      1.0000 0.54540  0.80550  0.69450  Biso   1.000  H
  O82      1.0000 0.13333  0.78040  0.21960  Biso   1.000  O
  C74      1.0000 0.02700  0.78309  0.21691  Biso   1.000  C
  H74      1.0000 0.04540  0.80550  0.19450  Biso   1.000  H
  O83      1.0000 0.36667  0.78040  0.28040  Biso   1.000  O
  C75      1.0000 0.47300  0.78309  0.28309  Biso   1.000  C
  H75      1.0000 0.45460  0.80550  0.30550  Biso   1.000  H
  O84      1.0000 0.86667  0.78040  0.78040  Biso   1.000  O
  C76      1.0000 0.97300  0.78309  0.78309  Biso   1.000  C
  H76      1.0000 0.95460  0.80550  0.80550  Biso   1.000  H
  O85      1.0000 0.13333  0.21960  0.78040  Biso   1.000  O
  C77      1.0000 0.02700  0.21691  0.78309  Biso   1.000  C
  H77      1.0000 0.04540  0.19450  0.80550  Biso   1.000  H
  O86      1.0000 0.36667  0.21960  0.71960  Biso   1.000  O
  C78      1.0000 0.47300  0.21691  0.71691  Biso   1.000  C
  H78      1.0000 0.45460  0.19450  0.69450  Biso   1.000  H
  O87      1.0000 0.63333  0.71960  0.21960  Biso   1.000  O
  C79      1.0000 0.52700  0.71691  0.21691  Biso   1.000  C
  H79      1.0000 0.54540  0.69450  0.19450  Biso   1.000  H
  O88      1.0000 0.13333  0.71960  0.71960  Biso   1.000  O
  C80      1.0000 0.02700  0.71691  0.71691  Biso   1.000  C
  H80      1.0000 0.04540  0.69450  0.69450  Biso   1.000  H
  O89      1.0000 0.86667  0.28040  0.71960  Biso   1.000  O
  C81      1.0000 0.97300  0.28309  0.71691  Biso   1.000  C
  H81      1.0000 0.95460  0.30550  0.69450  Biso   1.000  H
  O90      1.0000 0.63333  0.28040  0.78040  Biso   1.000  O
  C82      1.0000 0.52700  0.28309  0.78309  Biso   1.000  C
  H82      1.0000 0.54540  0.30550  0.80550  Biso   1.000  H
  O91      1.0000 0.36667  0.71960  0.78040  Biso   1.000  O
  C83      1.0000 0.47300  0.71691  0.78309  Biso   1.000  C
  H83      1.0000 0.45460  0.69450  0.80550  Biso   1.000  H
  O92      1.0000 0.86667  0.71960  0.28040  Biso   1.000  O
  C84      1.0000 0.97300  0.71691  0.28309  Biso   1.000  C
  H84      1.0000 0.95460  0.69450  0.30550  Biso   1.000  H
  O93      1.0000 0.71960  0.78040  0.36667  Biso   1.000  O
  C85      1.0000 0.71691  0.78309  0.47300  Biso   1.000  C
  H85      1.0000 0.69450  0.80550  0.45460  Biso   1.000  H
  O94      1.0000 0.71960  0.28040  0.86667  Biso   1.000  O
  C86      1.0000 0.71691  0.28309  0.97300  Biso   1.000  C
  H86      1.0000 0.69450  0.30550  0.95460  Biso   1.000  H
  O95      1.0000 0.28040  0.78040  0.63333  Biso   1.000  O
  C87      1.0000 0.28309  0.78309  0.52700  Biso   1.000  C
  H87      1.0000 0.30550  0.80550  0.54540  Biso   1.000  H
  O96      1.0000 0.28040  0.71960  0.86667  Biso   1.000  O
  C88      1.0000 0.28309  0.71691  0.97300  Biso   1.000  C
  H88      1.0000 0.30550  0.69450  0.95460  Biso   1.000  H
  O97      1.0000 0.71960  0.21960  0.63333  Biso   1.000  O
  C89      1.0000 0.71691  0.21691  0.52700  Biso   1.000  C
  H89      1.0000 0.69450  0.19450  0.54540  Biso   1.000  H
  O98      1.0000 0.71960  0.71960  0.13333  Biso   1.000  O
  C90      1.0000 0.71691  0.71691  0.02700  Biso   1.000  C
  H90      1.0000 0.69450  0.69450  0.04540  Biso   1.000  H
  O99      1.0000 0.78040  0.63333  0.28040  Biso   1.000  O
  C91      1.0000 0.78309  0.52700  0.28309  Biso   1.000  C
  H91      1.0000 0.80550  0.54540  0.30550  Biso   1.000  H
  O100     1.0000 0.78040  0.13333  0.78040  Biso   1.000  O
  C92      1.0000 0.78309  0.02700  0.78309  Biso   1.000  C
  H92      1.0000 0.80550  0.04540  0.80550  Biso   1.000  H
  O101     1.0000 0.78040  0.36667  0.71960  Biso   1.000  O
  C93      1.0000 0.78309  0.47300  0.71691  Biso   1.000  C
  H93      1.0000 0.80550  0.45460  0.69450  Biso   1.000  H
  O102     1.0000 0.78040  0.86667  0.21960  Biso   1.000  O
  C94      1.0000 0.78309  0.97300  0.21691  Biso   1.000  C
  H94      1.0000 0.80550  0.95460  0.19450  Biso   1.000  H
  O103     1.0000 0.21960  0.63333  0.71960  Biso   1.000  O
  C95      1.0000 0.21691  0.52700  0.71691  Biso   1.000  C
  H95      1.0000 0.19450  0.54540  0.69450  Biso   1.000  H
  O104     1.0000 0.21960  0.86667  0.78040  Biso   1.000  O
  C96      1.0000 0.21691  0.97300  0.78309  Biso   1.000  C
  H96      1.0000 0.19450  0.95460  0.80550  Biso   1.000  H
  C97      1.0000 0.25000  0.38830  0.25000  Biso   1.000  C
  C98      1.0000 0.25000  0.44640  0.25000  Biso   1.000  C
  C99      1.0000 0.25000  0.88830  0.75000  Biso   1.000  C
  C100     1.0000 0.25000  0.94640  0.75000  Biso   1.000  C
  C101     1.0000 0.75000  0.61170  0.25000  Biso   1.000  C
  C102     1.0000 0.75000  0.55360  0.25000  Biso   1.000  C
  C103     1.0000 0.75000  0.11170  0.75000  Biso   1.000  C
  C104     1.0000 0.75000  0.05360  0.75000  Biso   1.000  C
  C105     1.0000 0.25000  0.11170  0.25000  Biso   1.000  C
  C106     1.0000 0.25000  0.05360  0.25000  Biso   1.000  C
  C107     1.0000 0.75000  0.38830  0.75000  Biso   1.000  C
  C108     1.0000 0.75000  0.44640  0.75000  Biso   1.000  C
  C109     1.0000 0.75000  0.88830  0.25000  Biso   1.000  C
  C110     1.0000 0.75000  0.94640  0.25000  Biso   1.000  C
  C111     1.0000 0.25000  0.61170  0.75000  Biso   1.000  C
  C112     1.0000 0.25000  0.55360  0.75000  Biso   1.000  C
  C113     1.0000 0.25000  0.25000  0.38830  Biso   1.000  C
  C114     1.0000 0.25000  0.25000  0.44640  Biso   1.000  C
  C115     1.0000 0.25000  0.75000  0.88830  Biso   1.000  C
  C116     1.0000 0.25000  0.75000  0.94640  Biso   1.000  C
  C117     1.0000 0.25000  0.75000  0.61170  Biso   1.000  C
  C118     1.0000 0.25000  0.75000  0.55360  Biso   1.000  C
  C119     1.0000 0.25000  0.25000  0.11170  Biso   1.000  C
  C120     1.0000 0.25000  0.25000  0.05360  Biso   1.000  C
  C121     1.0000 0.75000  0.75000  0.38830  Biso   1.000  C
  C122     1.0000 0.75000  0.75000  0.44640  Biso   1.000  C
  C123     1.0000 0.75000  0.25000  0.88830  Biso   1.000  C
  C124     1.0000 0.75000  0.25000  0.94640  Biso   1.000  C
  C125     1.0000 0.75000  0.25000  0.61170  Biso   1.000  C
  C126     1.0000 0.75000  0.25000  0.55360  Biso   1.000  C
  C127     1.0000 0.75000  0.75000  0.11170  Biso   1.000  C
  C128     1.0000 0.75000  0.75000  0.05360  Biso   1.000  C
  C129     1.0000 0.38830  0.25000  0.25000  Biso   1.000  C
  C130     1.0000 0.44640  0.25000  0.25000  Biso   1.000  C
  C131     1.0000 0.88830  0.25000  0.75000  Biso   1.000  C
  C132     1.0000 0.94640  0.25000  0.75000  Biso   1.000  C
  C133     1.0000 0.61170  0.25000  0.75000  Biso   1.000  C
  C134     1.0000 0.55360  0.25000  0.75000  Biso   1.000  C
  C135     1.0000 0.11170  0.25000  0.25000  Biso   1.000  C
  C136     1.0000 0.05360  0.25000  0.25000  Biso   1.000  C
  C137     1.0000 0.38830  0.75000  0.75000  Biso   1.000  C
  C138     1.0000 0.44640  0.75000  0.75000  Biso   1.000  C
  C139     1.0000 0.88830  0.75000  0.25000  Biso   1.000  C
  C140     1.0000 0.94640  0.75000  0.25000  Biso   1.000  C
  C141     1.0000 0.61170  0.75000  0.25000  Biso   1.000  C
  C142     1.0000 0.55360  0.75000  0.25000  Biso   1.000  C
  C143     1.0000 0.11170  0.75000  0.75000  Biso   1.000  C
  C144     1.0000 0.05360  0.75000  0.75000  Biso   1.000  C
  C145     1.0000 0.38830  0.25000  0.75000  Biso   1.000  C
  C146     1.0000 0.44640  0.25000  0.75000  Biso   1.000  C
  C147     1.0000 0.88830  0.25000  0.25000  Biso   1.000  C
  C148     1.0000 0.94640  0.25000  0.25000  Biso   1.000  C
  C149     1.0000 0.61170  0.75000  0.75000  Biso   1.000  C
  C150     1.0000 0.55360  0.75000  0.75000  Biso   1.000  C
  C151     1.0000 0.61170  0.25000  0.25000  Biso   1.000  C
  C152     1.0000 0.55360  0.25000  0.25000  Biso   1.000  C
  C153     1.0000 0.11170  0.75000  0.25000  Biso   1.000  C
  C154     1.0000 0.05360  0.75000  0.25000  Biso   1.000  C
  C155     1.0000 0.38830  0.75000  0.25000  Biso   1.000  C
  C156     1.0000 0.44640  0.75000  0.25000  Biso   1.000  C
  C157     1.0000 0.88830  0.75000  0.75000  Biso   1.000  C
  C158     1.0000 0.94640  0.75000  0.75000  Biso   1.000  C
  C159     1.0000 0.11170  0.25000  0.75000  Biso   1.000  C
  C160     1.0000 0.05360  0.25000  0.75000  Biso   1.000  C
  C161     1.0000 0.25000  0.25000  0.61170  Biso   1.000  C
  C162     1.0000 0.25000  0.25000  0.55360  Biso   1.000  C
  C163     1.0000 0.25000  0.75000  0.11170  Biso   1.000  C
  C164     1.0000 0.25000  0.75000  0.05360  Biso   1.000  C
  C165     1.0000 0.75000  0.25000  0.38830  Biso   1.000  C
  C166     1.0000 0.75000  0.25000  0.44640  Biso   1.000  C
  C167     1.0000 0.75000  0.75000  0.88830  Biso   1.000  C
  C168     1.0000 0.75000  0.75000  0.94640  Biso   1.000  C
  C169     1.0000 0.25000  0.25000  0.88830  Biso   1.000  C
  C170     1.0000 0.25000  0.25000  0.94640  Biso   1.000  C
  C171     1.0000 0.75000  0.75000  0.61170  Biso   1.000  C
  C172     1.0000 0.75000  0.75000  0.55360  Biso   1.000  C
  C173     1.0000 0.75000  0.25000  0.11170  Biso   1.000  C
  C174     1.0000 0.75000  0.25000  0.05360  Biso   1.000  C
  C175     1.0000 0.25000  0.75000  0.38830  Biso   1.000  C
  C176     1.0000 0.25000  0.75000  0.44640  Biso   1.000  C
  C177     1.0000 0.25000  0.38830  0.75000  Biso   1.000  C
  C178     1.0000 0.25000  0.44640  0.75000  Biso   1.000  C
  C179     1.0000 0.25000  0.88830  0.25000  Biso   1.000  C
  C180     1.0000 0.25000  0.94640  0.25000  Biso   1.000  C
  C181     1.0000 0.25000  0.61170  0.25000  Biso   1.000  C
  C182     1.0000 0.25000  0.55360  0.25000  Biso   1.000  C
  C183     1.0000 0.25000  0.11170  0.75000  Biso   1.000  C
  C184     1.0000 0.25000  0.05360  0.75000  Biso   1.000  C
  C185     1.0000 0.75000  0.38830  0.25000  Biso   1.000  C
  C186     1.0000 0.75000  0.44640  0.25000  Biso   1.000  C
  C187     1.0000 0.75000  0.88830  0.75000  Biso   1.000  C
  C188     1.0000 0.75000  0.94640  0.75000  Biso   1.000  C
  C189     1.0000 0.75000  0.61170  0.75000  Biso   1.000  C
  C190     1.0000 0.75000  0.55360  0.75000  Biso   1.000  C
  C191     1.0000 0.75000  0.11170  0.25000  Biso   1.000  C
  C192     1.0000 0.75000  0.05360  0.25000  Biso   1.000  C
