data_image0
_cell_length_a       18.283
_cell_length_b       18.283
_cell_length_c       18.283
_cell_angle_alpha    60
_cell_angle_beta     60
_cell_angle_gamma    60

_symmetry_space_group_name_H-M    P 1
_symmetry_int_tables_number       1

loop_
  _symmetry_equiv_pos_as_xyz
  'x, y, z'

loop_
  _atom_site_label
  _atom_site_occupancy
  _atom_site_fract_x
  _atom_site_fract_y
  _atom_site_fract_z
  _atom_site_thermal_displace_type
  _atom_site_B_iso_or_equiv
  _atom_site_type_symbol
  Zn1      1.0000 0.20657  0.38031  0.20656  Biso   1.000  Zn
  Zn2      1.0000 0.38032  0.20656  0.20656  Biso   1.000  Zn
  Zn3      1.0000 0.20657  0.20656  0.20656  Biso   1.000  Zn
  Zn4      1.0000 0.20657  0.20656  0.38031  Biso   1.000  Zn
  Zn5      1.0000 0.61968  0.79344  0.79344  Biso   1.000  Zn
  Zn6      1.0000 0.79343  0.61969  0.79344  Biso   1.000  Zn
  Zn7      1.0000 0.79343  0.79344  0.79344  Biso   1.000  Zn
  Zn8      1.0000 0.79343  0.79344  0.61969  Biso   1.000  Zn
  H1       1.0000 0.04500  0.56540  0.04500  Biso   1.000  H
  H2       1.0000 0.56540  0.04500  0.34460  Biso   1.000  H
  H3       1.0000 0.04500  0.34460  0.04500  Biso   1.000  H
  H4       1.0000 0.34460  0.04500  0.56540  Biso   1.000  H
  H5       1.0000 0.04500  0.04500  0.34460  Biso   1.000  H
  H6       1.0000 0.56540  0.34460  0.04500  Biso   1.000  H
  H7       1.0000 0.04500  0.04500  0.56540  Biso   1.000  H
  H8       1.0000 0.34460  0.56540  0.04500  Biso   1.000  H
  H9       1.0000 0.04500  0.34460  0.56540  Biso   1.000  H
  H10      1.0000 0.56540  0.04500  0.04500  Biso   1.000  H
  H11      1.0000 0.04500  0.56540  0.34460  Biso   1.000  H
  H12      1.0000 0.34460  0.04500  0.04500  Biso   1.000  H
  H13      1.0000 0.43460  0.95500  0.95500  Biso   1.000  H
  H14      1.0000 0.95500  0.43460  0.65540  Biso   1.000  H
  H15      1.0000 0.65540  0.95500  0.95500  Biso   1.000  H
  H16      1.0000 0.95500  0.65540  0.43460  Biso   1.000  H
  H17      1.0000 0.95500  0.95500  0.65540  Biso   1.000  H
  H18      1.0000 0.65540  0.43460  0.95500  Biso   1.000  H
  H19      1.0000 0.95500  0.95500  0.43460  Biso   1.000  H
  H20      1.0000 0.43460  0.65540  0.95500  Biso   1.000  H
  H21      1.0000 0.65540  0.95500  0.43460  Biso   1.000  H
  H22      1.0000 0.95500  0.43460  0.95500  Biso   1.000  H
  H23      1.0000 0.43460  0.95500  0.65540  Biso   1.000  H
  H24      1.0000 0.95500  0.65540  0.95500  Biso   1.000  H
  C1       1.0000 0.02670  0.53864  0.02670  Biso   1.000  C
  C2       1.0000 0.53864  0.02670  0.40796  Biso   1.000  C
  C3       1.0000 0.02670  0.40796  0.02670  Biso   1.000  C
  C4       1.0000 0.40796  0.02670  0.53864  Biso   1.000  C
  C5       1.0000 0.02670  0.02670  0.40796  Biso   1.000  C
  C6       1.0000 0.53864  0.40796  0.02670  Biso   1.000  C
  C7       1.0000 0.02670  0.02670  0.53864  Biso   1.000  C
  C8       1.0000 0.40796  0.53864  0.02670  Biso   1.000  C
  C9       1.0000 0.02670  0.40796  0.53864  Biso   1.000  C
  C10      1.0000 0.53864  0.02670  0.02670  Biso   1.000  C
  C11      1.0000 0.02670  0.53864  0.40796  Biso   1.000  C
  C12      1.0000 0.40796  0.02670  0.02670  Biso   1.000  C
  C13      1.0000 0.46136  0.97330  0.97330  Biso   1.000  C
  C14      1.0000 0.97330  0.46136  0.59204  Biso   1.000  C
  C15      1.0000 0.59204  0.97330  0.97330  Biso   1.000  C
  C16      1.0000 0.97330  0.59204  0.46136  Biso   1.000  C
  C17      1.0000 0.97330  0.97330  0.59204  Biso   1.000  C
  C18      1.0000 0.59204  0.46136  0.97330  Biso   1.000  C
  C19      1.0000 0.97330  0.97330  0.46136  Biso   1.000  C
  C20      1.0000 0.46136  0.59204  0.97330  Biso   1.000  C
  C21      1.0000 0.59204  0.97330  0.46136  Biso   1.000  C
  C22      1.0000 0.97330  0.46136  0.97330  Biso   1.000  C
  C23      1.0000 0.46136  0.97330  0.59204  Biso   1.000  C
  C24      1.0000 0.97330  0.59204  0.97330  Biso   1.000  C
  C25      1.0000 0.11148  0.38852  0.11148  Biso   1.000  C
  C26      1.0000 0.05372  0.44628  0.05372  Biso   1.000  C
  C27      1.0000 0.38852  0.11148  0.38852  Biso   1.000  C
  C28      1.0000 0.44628  0.05372  0.44628  Biso   1.000  C
  C29      1.0000 0.11148  0.11148  0.38852  Biso   1.000  C
  C30      1.0000 0.05372  0.05372  0.44628  Biso   1.000  C
  C31      1.0000 0.38852  0.38852  0.11148  Biso   1.000  C
  C32      1.0000 0.44628  0.44628  0.05372  Biso   1.000  C
  C33      1.0000 0.11148  0.38852  0.38852  Biso   1.000  C
  C34      1.0000 0.05372  0.44628  0.44628  Biso   1.000  C
  C35      1.0000 0.38852  0.11148  0.11148  Biso   1.000  C
  C36      1.0000 0.44628  0.05372  0.05372  Biso   1.000  C
  C37      1.0000 0.61148  0.88852  0.88852  Biso   1.000  C
  C38      1.0000 0.55372  0.94628  0.94628  Biso   1.000  C
  C39      1.0000 0.88852  0.61148  0.61148  Biso   1.000  C
  C40      1.0000 0.94628  0.55372  0.55372  Biso   1.000  C
  C41      1.0000 0.88852  0.88852  0.61148  Biso   1.000  C
  C42      1.0000 0.94628  0.94628  0.55372  Biso   1.000  C
  C43      1.0000 0.61148  0.61148  0.88852  Biso   1.000  C
  C44      1.0000 0.55372  0.55372  0.94628  Biso   1.000  C
  C45      1.0000 0.61148  0.88852  0.61148  Biso   1.000  C
  C46      1.0000 0.55372  0.94628  0.55372  Biso   1.000  C
  C47      1.0000 0.88852  0.61148  0.88852  Biso   1.000  C
  C48      1.0000 0.94628  0.55372  0.94628  Biso   1.000  C
  O1       1.0000 0.25000  0.25000  0.25000  Biso   1.000  O
  O2       1.0000 0.75000  0.75000  0.75000  Biso   1.000  O
  O3       1.0000 0.13373  0.42751  0.13373  Biso   1.000  O
  O4       1.0000 0.42751  0.13373  0.30503  Biso   1.000  O
  O5       1.0000 0.13373  0.30503  0.13373  Biso   1.000  O
  O6       1.0000 0.30503  0.13373  0.42751  Biso   1.000  O
  O7       1.0000 0.13373  0.13373  0.30503  Biso   1.000  O
  O8       1.0000 0.42751  0.30503  0.13373  Biso   1.000  O
  O9       1.0000 0.13373  0.13373  0.42751  Biso   1.000  O
  O10      1.0000 0.30503  0.42751  0.13373  Biso   1.000  O
  O11      1.0000 0.13373  0.30503  0.42751  Biso   1.000  O
  O12      1.0000 0.42751  0.13373  0.13373  Biso   1.000  O
  O13      1.0000 0.13373  0.42751  0.30503  Biso   1.000  O
  O14      1.0000 0.30503  0.13373  0.13373  Biso   1.000  O
  O15      1.0000 0.57249  0.86627  0.86627  Biso   1.000  O
  O16      1.0000 0.86627  0.57249  0.69497  Biso   1.000  O
  O17      1.0000 0.69497  0.86627  0.86627  Biso   1.000  O
  O18      1.0000 0.86627  0.69497  0.57249  Biso   1.000  O
  O19      1.0000 0.86627  0.86627  0.69497  Biso   1.000  O
  O20      1.0000 0.69497  0.57249  0.86627  Biso   1.000  O
  O21      1.0000 0.86627  0.86627  0.57249  Biso   1.000  O
  O22      1.0000 0.57249  0.69497  0.86627  Biso   1.000  O
  O23      1.0000 0.69497  0.86627  0.57249  Biso   1.000  O
  O24      1.0000 0.86627  0.57249  0.86627  Biso   1.000  O
  O25      1.0000 0.57249  0.86627  0.69497  Biso   1.000  O
  O26      1.0000 0.86627  0.69497  0.86627  Biso   1.000  O
