data_image0
_cell_length_a       18.3127
_cell_length_b       18.3127
_cell_length_c       18.3127
_cell_angle_alpha    60
_cell_angle_beta     60
_cell_angle_gamma    60

_symmetry_space_group_name_H-M    P 1
_symmetry_int_tables_number       1

loop_
  _symmetry_equiv_pos_as_xyz
  'x, y, z'

loop_
  _atom_site_label
  _atom_site_occupancy
  _atom_site_fract_x
  _atom_site_fract_y
  _atom_site_fract_z
  _atom_site_thermal_displace_type
  _atom_site_B_iso_or_equiv
  _atom_site_type_symbol
  Zn1      1.0000 0.20666  0.38001  0.20666  Biso   1.000  Zn
  Zn2      1.0000 0.38001  0.20666  0.20666  Biso   1.000  Zn
  Zn3      1.0000 0.20667  0.20666  0.20666  Biso   1.000  Zn
  Zn4      1.0000 0.20667  0.20666  0.38001  Biso   1.000  Zn
  Zn5      1.0000 0.61999  0.79334  0.79334  Biso   1.000  Zn
  Zn6      1.0000 0.79334  0.61999  0.79333  Biso   1.000  Zn
  Zn7      1.0000 0.79334  0.79333  0.79334  Biso   1.000  Zn
  Zn8      1.0000 0.79334  0.79333  0.61999  Biso   1.000  Zn
  H1       1.0000 0.04520  0.56580  0.04520  Biso   1.000  H
  H2       1.0000 0.56580  0.04520  0.34380  Biso   1.000  H
  H3       1.0000 0.04520  0.34380  0.04520  Biso   1.000  H
  H4       1.0000 0.34380  0.04520  0.56580  Biso   1.000  H
  H5       1.0000 0.04520  0.04520  0.34380  Biso   1.000  H
  H6       1.0000 0.56580  0.34380  0.04520  Biso   1.000  H
  H7       1.0000 0.04520  0.04520  0.56580  Biso   1.000  H
  H8       1.0000 0.34380  0.56580  0.04520  Biso   1.000  H
  H9       1.0000 0.04520  0.34380  0.56580  Biso   1.000  H
  H10      1.0000 0.56580  0.04520  0.04520  Biso   1.000  H
  H11      1.0000 0.04520  0.56580  0.34380  Biso   1.000  H
  H12      1.0000 0.34380  0.04520  0.04520  Biso   1.000  H
  H13      1.0000 0.43420  0.95480  0.95480  Biso   1.000  H
  H14      1.0000 0.95480  0.43420  0.65620  Biso   1.000  H
  H15      1.0000 0.65620  0.95480  0.95480  Biso   1.000  H
  H16      1.0000 0.95480  0.65620  0.43420  Biso   1.000  H
  H17      1.0000 0.95480  0.95480  0.65620  Biso   1.000  H
  H18      1.0000 0.65620  0.43420  0.95480  Biso   1.000  H
  H19      1.0000 0.95480  0.95480  0.43420  Biso   1.000  H
  H20      1.0000 0.43420  0.65620  0.95480  Biso   1.000  H
  H21      1.0000 0.65620  0.95480  0.43420  Biso   1.000  H
  H22      1.0000 0.95480  0.43420  0.95480  Biso   1.000  H
  H23      1.0000 0.43420  0.95480  0.65620  Biso   1.000  H
  H24      1.0000 0.95480  0.65620  0.95480  Biso   1.000  H
  C1       1.0000 0.02688  0.53930  0.02688  Biso   1.000  C
  C2       1.0000 0.53930  0.02688  0.40694  Biso   1.000  C
  C3       1.0000 0.02688  0.40694  0.02688  Biso   1.000  C
  C4       1.0000 0.40694  0.02688  0.53930  Biso   1.000  C
  C5       1.0000 0.02688  0.02688  0.40694  Biso   1.000  C
  C6       1.0000 0.53930  0.40694  0.02688  Biso   1.000  C
  C7       1.0000 0.02688  0.02688  0.53930  Biso   1.000  C
  C8       1.0000 0.40694  0.53930  0.02688  Biso   1.000  C
  C9       1.0000 0.02688  0.40694  0.53930  Biso   1.000  C
  C10      1.0000 0.53930  0.02688  0.02688  Biso   1.000  C
  C11      1.0000 0.02688  0.53930  0.40694  Biso   1.000  C
  C12      1.0000 0.40694  0.02688  0.02688  Biso   1.000  C
  C13      1.0000 0.46070  0.97312  0.97312  Biso   1.000  C
  C14      1.0000 0.97312  0.46070  0.59306  Biso   1.000  C
  C15      1.0000 0.59306  0.97312  0.97312  Biso   1.000  C
  C16      1.0000 0.97312  0.59306  0.46070  Biso   1.000  C
  C17      1.0000 0.97312  0.97312  0.59306  Biso   1.000  C
  C18      1.0000 0.59306  0.46070  0.97312  Biso   1.000  C
  C19      1.0000 0.97312  0.97312  0.46070  Biso   1.000  C
  C20      1.0000 0.46070  0.59306  0.97312  Biso   1.000  C
  C21      1.0000 0.59306  0.97312  0.46070  Biso   1.000  C
  C22      1.0000 0.97312  0.46070  0.97312  Biso   1.000  C
  C23      1.0000 0.46070  0.97312  0.59306  Biso   1.000  C
  C24      1.0000 0.97312  0.59306  0.97312  Biso   1.000  C
  C25      1.0000 0.11142  0.38858  0.11142  Biso   1.000  C
  C26      1.0000 0.05381  0.44619  0.05381  Biso   1.000  C
  C27      1.0000 0.38858  0.11142  0.38858  Biso   1.000  C
  C28      1.0000 0.44619  0.05381  0.44619  Biso   1.000  C
  C29      1.0000 0.11142  0.11142  0.38858  Biso   1.000  C
  C30      1.0000 0.05381  0.05381  0.44619  Biso   1.000  C
  C31      1.0000 0.38858  0.38858  0.11142  Biso   1.000  C
  C32      1.0000 0.44619  0.44619  0.05381  Biso   1.000  C
  C33      1.0000 0.11142  0.38858  0.38858  Biso   1.000  C
  C34      1.0000 0.05381  0.44619  0.44619  Biso   1.000  C
  C35      1.0000 0.38858  0.11142  0.11142  Biso   1.000  C
  C36      1.0000 0.44619  0.05381  0.05381  Biso   1.000  C
  C37      1.0000 0.61142  0.88858  0.88858  Biso   1.000  C
  C38      1.0000 0.55381  0.94619  0.94619  Biso   1.000  C
  C39      1.0000 0.88858  0.61142  0.61142  Biso   1.000  C
  C40      1.0000 0.94619  0.55381  0.55381  Biso   1.000  C
  C41      1.0000 0.88858  0.88858  0.61142  Biso   1.000  C
  C42      1.0000 0.94619  0.94619  0.55381  Biso   1.000  C
  C43      1.0000 0.61142  0.61142  0.88858  Biso   1.000  C
  C44      1.0000 0.55381  0.55381  0.94619  Biso   1.000  C
  C45      1.0000 0.61142  0.88858  0.61142  Biso   1.000  C
  C46      1.0000 0.55381  0.94619  0.55381  Biso   1.000  C
  C47      1.0000 0.88858  0.61142  0.88858  Biso   1.000  C
  C48      1.0000 0.94619  0.55381  0.94619  Biso   1.000  C
  O1       1.0000 0.25000  0.25000  0.25000  Biso   1.000  O
  O2       1.0000 0.75000  0.75000  0.75000  Biso   1.000  O
  O3       1.0000 0.13369  0.42773  0.13369  Biso   1.000  O
  O4       1.0000 0.42773  0.13369  0.30489  Biso   1.000  O
  O5       1.0000 0.13369  0.30489  0.13369  Biso   1.000  O
  O6       1.0000 0.30489  0.13369  0.42773  Biso   1.000  O
  O7       1.0000 0.13369  0.13369  0.30489  Biso   1.000  O
  O8       1.0000 0.42773  0.30489  0.13369  Biso   1.000  O
  O9       1.0000 0.13369  0.13369  0.42773  Biso   1.000  O
  O10      1.0000 0.30489  0.42773  0.13369  Biso   1.000  O
  O11      1.0000 0.13369  0.30489  0.42773  Biso   1.000  O
  O12      1.0000 0.42773  0.13369  0.13369  Biso   1.000  O
  O13      1.0000 0.13369  0.42773  0.30489  Biso   1.000  O
  O14      1.0000 0.30489  0.13369  0.13369  Biso   1.000  O
  O15      1.0000 0.57227  0.86631  0.86631  Biso   1.000  O
  O16      1.0000 0.86631  0.57227  0.69511  Biso   1.000  O
  O17      1.0000 0.69511  0.86631  0.86631  Biso   1.000  O
  O18      1.0000 0.86631  0.69511  0.57227  Biso   1.000  O
  O19      1.0000 0.86631  0.86631  0.69511  Biso   1.000  O
  O20      1.0000 0.69511  0.57227  0.86631  Biso   1.000  O
  O21      1.0000 0.86631  0.86631  0.57227  Biso   1.000  O
  O22      1.0000 0.57227  0.69511  0.86631  Biso   1.000  O
  O23      1.0000 0.69511  0.86631  0.57227  Biso   1.000  O
  O24      1.0000 0.86631  0.57227  0.86631  Biso   1.000  O
  O25      1.0000 0.57227  0.86631  0.69511  Biso   1.000  O
  O26      1.0000 0.86631  0.69511  0.86631  Biso   1.000  O
