data_image0
_cell_length_a       13.959
_cell_length_b       23.4531
_cell_length_c       25.5819
_cell_angle_alpha    64.3706
_cell_angle_beta     74.1673
_cell_angle_gamma    72.6868

_symmetry_space_group_name_H-M    P 1
_symmetry_int_tables_number       1

loop_
  _symmetry_equiv_pos_as_xyz
  'x, y, z'

loop_
  _atom_site_label
  _atom_site_occupancy
  _atom_site_fract_x
  _atom_site_fract_y
  _atom_site_fract_z
  _atom_site_thermal_displace_type
  _atom_site_B_iso_or_equiv
  _atom_site_type_symbol
  Co1      1.0000 0.62296  0.49518  0.75854  Biso   1.000  Co
  Co2      1.0000 0.54977  0.59911  0.83473  Biso   1.000  Co
  Co3      1.0000 0.68439  0.39860  0.69048  Biso   1.000  Co
  Co4      1.0000 0.12332  0.99518  0.25854  Biso   1.000  Co
  Co5      1.0000 0.01639  0.09911  0.33473  Biso   1.000  Co
  Co6      1.0000 0.22653  0.89860  0.19048  Biso   1.000  Co
  H1       1.0000 0.85630  0.46500  0.78560  Biso   1.000  H
  H2       1.0000 0.03000  0.42890  0.77630  Biso   1.000  H
  H3       1.0000 0.05610  0.58500  0.79080  Biso   1.000  H
  H4       1.0000 0.88210  0.62070  0.80030  Biso   1.000  H
  H5       1.0000 0.21320  0.56720  0.74620  Biso   1.000  H
  H6       1.0000 0.38930  0.52920  0.72940  Biso   1.000  H
  H7       1.0000 0.34980  0.34870  0.79110  Biso   1.000  H
  H8       1.0000 0.17460  0.38820  0.80220  Biso   1.000  H
  H9       1.0000 0.42620  0.76220  0.69380  Biso   1.000  H
  H10      1.0000 0.35230  0.84050  0.61410  Biso   1.000  H
  H11      1.0000 0.38080  0.70970  0.55090  Biso   1.000  H
  H12      1.0000 0.46050  0.63070  0.62750  Biso   1.000  H
  H13      1.0000 0.22000  0.89200  0.56500  Biso   1.000  H
  H14      1.0000 0.13960  0.96880  0.48640  Biso   1.000  H
  H15      1.0000 0.31150  0.87430  0.38350  Biso   1.000  H
  H16      1.0000 0.38980  0.79540  0.46260  Biso   1.000  H
  H17      1.0000 0.51900  0.73380  0.84920  Biso   1.000  H
  H18      1.0000 0.39200  0.73780  0.02380  Biso   1.000  H
  H19      1.0000 0.28660  0.91130  0.05670  Biso   1.000  H
  H20      1.0000 0.39110  0.76720  0.19280  Biso   1.000  H
  H21      1.0000 0.45910  0.73570  0.10790  Biso   1.000  H
  H22      1.0000 0.38560  0.92710  0.96330  Biso   1.000  H
  H23      1.0000 0.41820  0.92900  0.86640  Biso   1.000  H
  H24      1.0000 0.41740  0.84120  0.85120  Biso   1.000  H
  H25      1.0000 0.32870  0.66830  0.99630  Biso   1.000  H
  H26      1.0000 0.38440  0.58950  0.95190  Biso   1.000  H
  H27      1.0000 0.84100  0.22950  0.81790  Biso   1.000  H
  H28      1.0000 0.90340  0.14850  0.89890  Biso   1.000  H
  H29      1.0000 0.85890  0.27590  0.97190  Biso   1.000  H
  H30      1.0000 0.78770  0.35890  0.89110  Biso   1.000  H
  H31      1.0000 0.02700  0.09830  0.95350  Biso   1.000  H
  H32      1.0000 0.84860  0.18830  0.05730  Biso   1.000  H
  H33      1.0000 0.09330  0.01650  0.03410  Biso   1.000  H
  H34      1.0000 0.93650  0.11370  0.13270  Biso   1.000  H
  H35      1.0000 0.89310  0.96500  0.28560  Biso   1.000  H
  H36      1.0000 0.76480  0.92890  0.27630  Biso   1.000  H
  H37      1.0000 0.56810  0.08500  0.29080  Biso   1.000  H
  H38      1.0000 0.69690  0.12070  0.30030  Biso   1.000  H
  H39      1.0000 0.47340  0.06720  0.24620  Biso   1.000  H
  H40      1.0000 0.35210  0.02920  0.22940  Biso   1.000  H
  H41      1.0000 0.51040  0.84870  0.29110  Biso   1.000  H
  H42      1.0000 0.63500  0.88820  0.30220  Biso   1.000  H
  H43      1.0000 0.11780  0.26220  0.19380  Biso   1.000  H
  H44      1.0000 0.19310  0.34050  0.11410  Biso   1.000  H
  H45      1.0000 0.35860  0.20970  0.05090  Biso   1.000  H
  H46      1.0000 0.28130  0.13070  0.12750  Biso   1.000  H
  H47      1.0000 0.32300  0.39200  0.06500  Biso   1.000  H
  H48      1.0000 0.40520  0.46880  0.98640  Biso   1.000  H
  H49      1.0000 0.43070  0.37430  0.88350  Biso   1.000  H
  H50      1.0000 0.35220  0.29540  0.96260  Biso   1.000  H
  H51      1.0000 0.89800  0.23380  0.34920  Biso   1.000  H
  H52      1.0000 0.84640  0.23780  0.52380  Biso   1.000  H
  H53      1.0000 0.74540  0.41130  0.55670  Biso   1.000  H
  H54      1.0000 0.64890  0.26720  0.69280  Biso   1.000  H
  H55      1.0000 0.69730  0.23570  0.60790  Biso   1.000  H
  H56      1.0000 0.72400  0.42710  0.46330  Biso   1.000  H
  H57      1.0000 0.78640  0.42900  0.36640  Biso   1.000  H
  H58      1.0000 0.89020  0.34120  0.35120  Biso   1.000  H
  H59      1.0000 0.00670  0.16830  0.49630  Biso   1.000  H
  H60      1.0000 0.07420  0.08950  0.45190  Biso   1.000  H
  H61      1.0000 0.11160  0.72950  0.31790  Biso   1.000  H
  H62      1.0000 0.04920  0.64850  0.39890  Biso   1.000  H
  H63      1.0000 0.89330  0.77590  0.47190  Biso   1.000  H
  H64      1.0000 0.96230  0.85890  0.39110  Biso   1.000  H
  H65      1.0000 0.92120  0.59830  0.45350  Biso   1.000  H
  H66      1.0000 0.90580  0.68830  0.55730  Biso   1.000  H
  H67      1.0000 0.85610  0.51650  0.53410  Biso   1.000  H
  H68      1.0000 0.81710  0.61370  0.63270  Biso   1.000  H
  C1       1.0000 0.73757  0.56346  0.80700  Biso   1.000  C
  C2       1.0000 0.85062  0.54316  0.79620  Biso   1.000  C
  C3       1.0000 0.89600  0.48950  0.78750  Biso   1.000  C
  C4       1.0000 0.00060  0.46770  0.78110  Biso   1.000  C
  C5       1.0000 0.06150  0.50530  0.78170  Biso   1.000  C
  C6       1.0000 0.01630  0.56020  0.78960  Biso   1.000  C
  C7       1.0000 0.91178  0.58154  0.79610  Biso   1.000  C
  C8       1.0000 0.17442  0.48036  0.77460  Biso   1.000  C
  C9       1.0000 0.23970  0.52350  0.75370  Biso   1.000  C
  C10      1.0000 0.34640  0.50010  0.74430  Biso   1.000  C
  C11      1.0000 0.38749  0.43642  0.75640  Biso   1.000  C
  C12      1.0000 0.49772  0.41406  0.74190  Biso   1.000  C
  C13      1.0000 0.32360  0.39280  0.78020  Biso   1.000  C
  C14      1.0000 0.21730  0.41750  0.78750  Biso   1.000  C
  C15      1.0000 0.49990  0.63650  0.71950  Biso   1.000  C
  C16      1.0000 0.45116  0.68908  0.66840  Biso   1.000  C
  C17      1.0000 0.41870  0.75100  0.66460  Biso   1.000  C
  C18      1.0000 0.37390  0.79810  0.61650  Biso   1.000  C
  C19      1.0000 0.36110  0.78340  0.57300  Biso   1.000  C
  C20      1.0000 0.39150  0.72110  0.57910  Biso   1.000  C
  C21      1.0000 0.43830  0.67300  0.62560  Biso   1.000  C
  C22      1.0000 0.31090  0.83560  0.52240  Biso   1.000  C
  C23      1.0000 0.23770  0.88770  0.52890  Biso   1.000  C
  C24      1.0000 0.18990  0.93410  0.48170  Biso   1.000  C
  C25      1.0000 0.21829  0.92802  0.42760  Biso   1.000  C
  C26      1.0000 0.16579  0.97702  0.37680  Biso   1.000  C
  C27      1.0000 0.29230  0.87750  0.42010  Biso   1.000  C
  C28      1.0000 0.33990  0.83000  0.46760  Biso   1.000  C
  C29      1.0000 0.47886  0.70748  0.88040  Biso   1.000  C
  C30      1.0000 0.41293  0.77924  0.93630  Biso   1.000  C
  C31      1.0000 0.39823  0.77664  0.99210  Biso   1.000  C
  C32      1.0000 0.39290  0.82900  0.00160  Biso   1.000  C
  C33      1.0000 0.32058  0.87174  0.08050  Biso   1.000  C
  C34      1.0000 0.37820  0.79280  0.15480  Biso   1.000  C
  C35      1.0000 0.41610  0.77460  0.10820  Biso   1.000  C
  C36      1.0000 0.39430  0.89010  0.95630  Biso   1.000  C
  C37      1.0000 0.41020  0.89080  0.89860  Biso   1.000  C
  C38      1.0000 0.41400  0.83830  0.88910  Biso   1.000  C
  C39      1.0000 0.37400  0.67200  0.96140  Biso   1.000  C
  C40      1.0000 0.40490  0.62870  0.93670  Biso   1.000  C
  C41      1.0000 0.75646  0.35458  0.79530  Biso   1.000  C
  C42      1.0000 0.80539  0.30052  0.84650  Biso   1.000  C
  C43      1.0000 0.84230  0.23910  0.84930  Biso   1.000  C
  C44      1.0000 0.88160  0.19070  0.89710  Biso   1.000  C
  C45      1.0000 0.88850  0.20570  0.94310  Biso   1.000  C
  C46      1.0000 0.85420  0.26660  0.94100  Biso   1.000  C
  C47      1.0000 0.81122  0.31686  0.89250  Biso   1.000  C
  C48      1.0000 0.93270  0.15180  0.99540  Biso   1.000  C
  C49      1.0000 0.00500  0.10150  0.99010  Biso   1.000  C
  C50      1.0000 0.90190  0.15560  0.05100  Biso   1.000  C
  C51      1.0000 0.07720  0.01010  0.14150  Biso   1.000  C
  C52      1.0000 0.02650  0.05870  0.09050  Biso   1.000  C
  C53      1.0000 0.04830  0.05330  0.03830  Biso   1.000  C
  C54      1.0000 0.95340  0.10940  0.09660  Biso   1.000  C
  C55      1.0000 0.89197  0.06346  0.30700  Biso   1.000  C
  C56      1.0000 0.81002  0.04316  0.29620  Biso   1.000  C
  C57      1.0000 0.82700  0.98950  0.28750  Biso   1.000  C
  C58      1.0000 0.75060  0.96770  0.28110  Biso   1.000  C
  C59      1.0000 0.65150  0.00530  0.28170  Biso   1.000  C
  C60      1.0000 0.63390  0.06020  0.28960  Biso   1.000  C
  C61      1.0000 0.71058  0.08154  0.29610  Biso   1.000  C
  C62      1.0000 0.57062  0.98036  0.27460  Biso   1.000  C
  C63      1.0000 0.48310  0.02350  0.25370  Biso   1.000  C
  C64      1.0000 0.40920  0.00010  0.24430  Biso   1.000  C
  C65      1.0000 0.41969  0.93642  0.25640  Biso   1.000  C
  C66      1.0000 0.34632  0.91406  0.24190  Biso   1.000  C
  C67      1.0000 0.50340  0.89280  0.28020  Biso   1.000  C
  C68      1.0000 0.57770  0.91750  0.28750  Biso   1.000  C
  C69      1.0000 0.14410  0.13650  0.21950  Biso   1.000  C
  C70      1.0000 0.19136  0.18908  0.16840  Biso   1.000  C
  C71      1.0000 0.16570  0.25100  0.16460  Biso   1.000  C
  C72      1.0000 0.21150  0.29810  0.11650  Biso   1.000  C
  C73      1.0000 0.28250  0.28340  0.07300  Biso   1.000  C
  C74      1.0000 0.30830  0.22110  0.07910  Biso   1.000  C
  C75      1.0000 0.26310  0.17300  0.12560  Biso   1.000  C
  C76      1.0000 0.33110  0.33560  0.02240  Biso   1.000  C
  C77      1.0000 0.34570  0.38770  0.02890  Biso   1.000  C
  C78      1.0000 0.39430  0.43410  0.98170  Biso   1.000  C
  C79      1.0000 0.42609  0.42802  0.92760  Biso   1.000  C
  C80      1.0000 0.48039  0.47702  0.87680  Biso   1.000  C
  C81      1.0000 0.41010  0.37750  0.92010  Biso   1.000  C
  C82      1.0000 0.36250  0.33000  0.96760  Biso   1.000  C
  C83      1.0000 0.93326  0.20748  0.38040  Biso   1.000  C
  C84      1.0000 0.87153  0.27924  0.43630  Biso   1.000  C
  C85      1.0000 0.83303  0.27664  0.49210  Biso   1.000  C
  C86      1.0000 0.77650  0.32900  0.50160  Biso   1.000  C
  C87      1.0000 0.72718  0.37174  0.58050  Biso   1.000  C
  C88      1.0000 0.67420  0.29280  0.65480  Biso   1.000  C
  C89      1.0000 0.70110  0.27460  0.60820  Biso   1.000  C
  C90      1.0000 0.75930  0.39010  0.45630  Biso   1.000  C
  C91      1.0000 0.80040  0.39080  0.39860  Biso   1.000  C
  C92      1.0000 0.85860  0.33830  0.38910  Biso   1.000  C
  C93      1.0000 0.99260  0.17200  0.46140  Biso   1.000  C
  C94      1.0000 0.02970  0.12870  0.43670  Biso   1.000  C
  C95      1.0000 0.09366  0.85458  0.29530  Biso   1.000  C
  C96      1.0000 0.04759  0.80052  0.34650  Biso   1.000  C
  C97      1.0000 0.06930  0.73910  0.34930  Biso   1.000  C
  C98      1.0000 0.03060  0.69070  0.39710  Biso   1.000  C
  C99      1.0000 0.96270  0.70570  0.44310  Biso   1.000  C
  C100     1.0000 0.93820  0.76660  0.44100  Biso   1.000  C
  C101     1.0000 0.97942  0.81686  0.39250  Biso   1.000  C
  C102     1.0000 0.92010  0.65180  0.49540  Biso   1.000  C
  C103     1.0000 0.90340  0.60150  0.49010  Biso   1.000  C
  C104     1.0000 0.89150  0.65560  0.55100  Biso   1.000  C
  C105     1.0000 0.77120  0.51010  0.64150  Biso   1.000  C
  C106     1.0000 0.82430  0.55870  0.59050  Biso   1.000  C
  C107     1.0000 0.86010  0.55330  0.53830  Biso   1.000  C
  C108     1.0000 0.84060  0.60940  0.59660  Biso   1.000  C
  N1       1.0000 0.47177  0.65066  0.88500  Biso   1.000  N
  N2       1.0000 0.42083  0.72344  0.92630  Biso   1.000  N
  N3       1.0000 0.37713  0.82614  0.06120  Biso   1.000  N
  N4       1.0000 0.31790  0.85440  0.13860  Biso   1.000  N
  N5       1.0000 0.99257  0.15066  0.38500  Biso   1.000  N
  N6       1.0000 0.92943  0.22344  0.42630  Biso   1.000  N
  N7       1.0000 0.73553  0.32614  0.56120  Biso   1.000  N
  N8       1.0000 0.68910  0.35440  0.63860  Biso   1.000  N
  O1       1.0000 0.68204  0.53492  0.79960  Biso   1.000  O
  O2       1.0000 0.69691  0.60708  0.82730  Biso   1.000  O
  O3       1.0000 0.55831  0.45405  0.71673  Biso   1.000  O
  O4       1.0000 0.53331  0.35608  0.75150  Biso   1.000  O
  O5       1.0000 0.50416  0.65376  0.75912  Biso   1.000  O
  O6       1.0000 0.53060  0.58190  0.71870  Biso   1.000  O
  O7       1.0000 0.18728  0.96774  0.33070  Biso   1.000  O
  O8       1.0000 0.10332  0.02394  0.38542  Biso   1.000  O
  O9       1.0000 0.71539  0.40681  0.79741  Biso   1.000  O
  O10      1.0000 0.76382  0.33753  0.75283  Biso   1.000  O
  O11      1.0000 0.05966  0.02118  0.18570  Biso   1.000  O
  O12      1.0000 0.14112  0.96366  0.13190  Biso   1.000  O
  O13      1.0000 0.98344  0.03492  0.29960  Biso   1.000  O
  O14      1.0000 0.86871  0.10708  0.32730  Biso   1.000  O
  O15      1.0000 0.27091  0.95405  0.21673  Biso   1.000  O
  O16      1.0000 0.35911  0.85608  0.25150  Biso   1.000  O
  O17      1.0000 0.08296  0.15376  0.25912  Biso   1.000  O
  O18      1.0000 0.16880  0.08190  0.21870  Biso   1.000  O
  O19      1.0000 0.51428  0.46774  0.83070  Biso   1.000  O
  O20      1.0000 0.48732  0.52394  0.88542  Biso   1.000  O
  O21      1.0000 0.08039  0.90681  0.29741  Biso   1.000  O
  O22      1.0000 0.14582  0.83753  0.25283  Biso   1.000  O
  O23      1.0000 0.73346  0.52118  0.68570  Biso   1.000  O
  O24      1.0000 0.76332  0.46366  0.63190  Biso   1.000  O
  Co7      1.0000 0.87668  0.00482  0.74146  Biso   1.000  Co
  Co8      1.0000 0.98361  0.90089  0.66527  Biso   1.000  Co
  Co9      1.0000 0.77347  0.10140  0.80952  Biso   1.000  Co
  Co10     1.0000 0.37704  0.50482  0.24146  Biso   1.000  Co
  Co11     1.0000 0.45023  0.40089  0.16527  Biso   1.000  Co
  Co12     1.0000 0.31561  0.60140  0.30952  Biso   1.000  Co
  H69      1.0000 0.10690  0.03500  0.71440  Biso   1.000  H
  H70      1.0000 0.23520  0.07110  0.72370  Biso   1.000  H
  H71      1.0000 0.43190  0.91500  0.70920  Biso   1.000  H
  H72      1.0000 0.30310  0.87930  0.69970  Biso   1.000  H
  H73      1.0000 0.52660  0.93280  0.75380  Biso   1.000  H
  H74      1.0000 0.64790  0.97080  0.77060  Biso   1.000  H
  H75      1.0000 0.48960  0.15130  0.70890  Biso   1.000  H
  H76      1.0000 0.36500  0.11180  0.69780  Biso   1.000  H
  H77      1.0000 0.88220  0.73780  0.80620  Biso   1.000  H
  H78      1.0000 0.80690  0.65950  0.88590  Biso   1.000  H
  H79      1.0000 0.64140  0.79030  0.94910  Biso   1.000  H
  H80      1.0000 0.71870  0.86930  0.87250  Biso   1.000  H
  H81      1.0000 0.67700  0.60800  0.93500  Biso   1.000  H
  H82      1.0000 0.59480  0.53120  0.01360  Biso   1.000  H
  H83      1.0000 0.56930  0.62570  0.11650  Biso   1.000  H
  H84      1.0000 0.64780  0.70460  0.03740  Biso   1.000  H
  H85      1.0000 0.10200  0.76620  0.65080  Biso   1.000  H
  H86      1.0000 0.15360  0.76220  0.47620  Biso   1.000  H
  H87      1.0000 0.25460  0.58870  0.44330  Biso   1.000  H
  H88      1.0000 0.35110  0.73280  0.30720  Biso   1.000  H
  H89      1.0000 0.30270  0.76430  0.39210  Biso   1.000  H
  H90      1.0000 0.27600  0.57290  0.53670  Biso   1.000  H
  H91      1.0000 0.21360  0.57100  0.63360  Biso   1.000  H
  H92      1.0000 0.10980  0.65880  0.64880  Biso   1.000  H
  H93      1.0000 0.99330  0.83170  0.50370  Biso   1.000  H
  H94      1.0000 0.92580  0.91050  0.54810  Biso   1.000  H
  H95      1.0000 0.88840  0.27050  0.68210  Biso   1.000  H
  H96      1.0000 0.95080  0.35150  0.60110  Biso   1.000  H
  H97      1.0000 0.10670  0.22410  0.52810  Biso   1.000  H
  H98      1.0000 0.03770  0.14110  0.60890  Biso   1.000  H
  H99      1.0000 0.07880  0.40170  0.54650  Biso   1.000  H
  H100     1.0000 0.09420  0.31170  0.44270  Biso   1.000  H
  H101     1.0000 0.14390  0.48350  0.46590  Biso   1.000  H
  H102     1.0000 0.18290  0.38630  0.36730  Biso   1.000  H
  H103     1.0000 0.14370  0.53500  0.21440  Biso   1.000  H
  H104     1.0000 0.97000  0.57110  0.22370  Biso   1.000  H
  H105     1.0000 0.94390  0.41500  0.20920  Biso   1.000  H
  H106     1.0000 0.11790  0.37930  0.19970  Biso   1.000  H
  H107     1.0000 0.78680  0.43280  0.25380  Biso   1.000  H
  H108     1.0000 0.61070  0.47080  0.27060  Biso   1.000  H
  H109     1.0000 0.65020  0.65130  0.20890  Biso   1.000  H
  H110     1.0000 0.82540  0.61180  0.19780  Biso   1.000  H
  H111     1.0000 0.57380  0.23780  0.30620  Biso   1.000  H
  H112     1.0000 0.64770  0.15950  0.38590  Biso   1.000  H
  H113     1.0000 0.61920  0.29030  0.44910  Biso   1.000  H
  H114     1.0000 0.53950  0.36930  0.37250  Biso   1.000  H
  H115     1.0000 0.78000  0.10800  0.43500  Biso   1.000  H
  H116     1.0000 0.86040  0.03120  0.51360  Biso   1.000  H
  H117     1.0000 0.68850  0.12570  0.61650  Biso   1.000  H
  H118     1.0000 0.61020  0.20460  0.53740  Biso   1.000  H
  H119     1.0000 0.48100  0.26620  0.15080  Biso   1.000  H
  H120     1.0000 0.60800  0.26220  0.97620  Biso   1.000  H
  H121     1.0000 0.71340  0.08870  0.94330  Biso   1.000  H
  H122     1.0000 0.60890  0.23280  0.80720  Biso   1.000  H
  H123     1.0000 0.54090  0.26430  0.89210  Biso   1.000  H
  H124     1.0000 0.61440  0.07290  0.03670  Biso   1.000  H
  H125     1.0000 0.58180  0.07100  0.13360  Biso   1.000  H
  H126     1.0000 0.58260  0.15880  0.14880  Biso   1.000  H
  H127     1.0000 0.67130  0.33170  0.00370  Biso   1.000  H
  H128     1.0000 0.61560  0.41050  0.04810  Biso   1.000  H
  H129     1.0000 0.15900  0.77050  0.18210  Biso   1.000  H
  H130     1.0000 0.09660  0.85150  0.10110  Biso   1.000  H
  H131     1.0000 0.14110  0.72410  0.02810  Biso   1.000  H
  H132     1.0000 0.21230  0.64110  0.10890  Biso   1.000  H
  H133     1.0000 0.97300  0.90170  0.04650  Biso   1.000  H
  H134     1.0000 0.15140  0.81170  0.94270  Biso   1.000  H
  H135     1.0000 0.90670  0.98350  0.96590  Biso   1.000  H
  H136     1.0000 0.06350  0.88630  0.86730  Biso   1.000  H
  C109     1.0000 0.10803  0.93654  0.69300  Biso   1.000  C
  C110     1.0000 0.18998  0.95684  0.70380  Biso   1.000  C
  C111     1.0000 0.17300  0.01050  0.71250  Biso   1.000  C
  C112     1.0000 0.24940  0.03230  0.71890  Biso   1.000  C
  C113     1.0000 0.34850  0.99470  0.71830  Biso   1.000  C
  C114     1.0000 0.36610  0.93980  0.71040  Biso   1.000  C
  C115     1.0000 0.28942  0.91846  0.70390  Biso   1.000  C
  C116     1.0000 0.42938  0.01964  0.72540  Biso   1.000  C
  C117     1.0000 0.51690  0.97650  0.74630  Biso   1.000  C
  C118     1.0000 0.59080  0.99990  0.75570  Biso   1.000  C
  C119     1.0000 0.58031  0.06358  0.74360  Biso   1.000  C
  C120     1.0000 0.65368  0.08594  0.75810  Biso   1.000  C
  C121     1.0000 0.49660  0.10720  0.71980  Biso   1.000  C
  C122     1.0000 0.42230  0.08250  0.71250  Biso   1.000  C
  C123     1.0000 0.85590  0.86350  0.78050  Biso   1.000  C
  C124     1.0000 0.80864  0.81092  0.83160  Biso   1.000  C
  C125     1.0000 0.83430  0.74900  0.83540  Biso   1.000  C
  C126     1.0000 0.78850  0.70190  0.88350  Biso   1.000  C
  C127     1.0000 0.71750  0.71660  0.92700  Biso   1.000  C
  C128     1.0000 0.69170  0.77890  0.92090  Biso   1.000  C
  C129     1.0000 0.73690  0.82700  0.87440  Biso   1.000  C
  C130     1.0000 0.66890  0.66440  0.97760  Biso   1.000  C
  C131     1.0000 0.65430  0.61230  0.97110  Biso   1.000  C
  C132     1.0000 0.60570  0.56590  0.01830  Biso   1.000  C
  C133     1.0000 0.57391  0.57198  0.07240  Biso   1.000  C
  C134     1.0000 0.51961  0.52298  0.12320  Biso   1.000  C
  C135     1.0000 0.58990  0.62250  0.07990  Biso   1.000  C
  C136     1.0000 0.63750  0.67000  0.03240  Biso   1.000  C
  C137     1.0000 0.06674  0.79252  0.61960  Biso   1.000  C
  C138     1.0000 0.12847  0.72076  0.56370  Biso   1.000  C
  C139     1.0000 0.16697  0.72336  0.50790  Biso   1.000  C
  C140     1.0000 0.22350  0.67100  0.49840  Biso   1.000  C
  C141     1.0000 0.27282  0.62826  0.41950  Biso   1.000  C
  C142     1.0000 0.32580  0.70720  0.34520  Biso   1.000  C
  C143     1.0000 0.29890  0.72540  0.39180  Biso   1.000  C
  C144     1.0000 0.24070  0.60990  0.54370  Biso   1.000  C
  C145     1.0000 0.19960  0.60920  0.60140  Biso   1.000  C
  C146     1.0000 0.14140  0.66170  0.61090  Biso   1.000  C
  C147     1.0000 0.00740  0.82800  0.53860  Biso   1.000  C
  C148     1.0000 0.97030  0.87130  0.56330  Biso   1.000  C
  C149     1.0000 0.90634  0.14542  0.70470  Biso   1.000  C
  C150     1.0000 0.95241  0.19948  0.65350  Biso   1.000  C
  C151     1.0000 0.93070  0.26090  0.65070  Biso   1.000  C
  C152     1.0000 0.96940  0.30930  0.60290  Biso   1.000  C
  C153     1.0000 0.03730  0.29430  0.55690  Biso   1.000  C
  C154     1.0000 0.06180  0.23340  0.55900  Biso   1.000  C
  C155     1.0000 0.02058  0.18314  0.60750  Biso   1.000  C
  C156     1.0000 0.07990  0.34820  0.50460  Biso   1.000  C
  C157     1.0000 0.09660  0.39850  0.50990  Biso   1.000  C
  C158     1.0000 0.10850  0.34440  0.44900  Biso   1.000  C
  C159     1.0000 0.22880  0.48990  0.35850  Biso   1.000  C
  C160     1.0000 0.17570  0.44130  0.40950  Biso   1.000  C
  C161     1.0000 0.13990  0.44670  0.46170  Biso   1.000  C
  C162     1.0000 0.15940  0.39060  0.40340  Biso   1.000  C
  C163     1.0000 0.26243  0.43654  0.19300  Biso   1.000  C
  C164     1.0000 0.14938  0.45684  0.20380  Biso   1.000  C
  C165     1.0000 0.10400  0.51050  0.21250  Biso   1.000  C
  C166     1.0000 0.99940  0.53230  0.21890  Biso   1.000  C
  C167     1.0000 0.93850  0.49470  0.21830  Biso   1.000  C
  C168     1.0000 0.98370  0.43980  0.21040  Biso   1.000  C
  C169     1.0000 0.08822  0.41846  0.20390  Biso   1.000  C
  C170     1.0000 0.82558  0.51964  0.22540  Biso   1.000  C
  C171     1.0000 0.76030  0.47650  0.24630  Biso   1.000  C
  C172     1.0000 0.65360  0.49990  0.25570  Biso   1.000  C
  C173     1.0000 0.61251  0.56358  0.24360  Biso   1.000  C
  C174     1.0000 0.50228  0.58594  0.25810  Biso   1.000  C
  C175     1.0000 0.67640  0.60720  0.21980  Biso   1.000  C
  C176     1.0000 0.78270  0.58250  0.21250  Biso   1.000  C
  C177     1.0000 0.50010  0.36350  0.28050  Biso   1.000  C
  C178     1.0000 0.54884  0.31092  0.33160  Biso   1.000  C
  C179     1.0000 0.58130  0.24900  0.33540  Biso   1.000  C
  C180     1.0000 0.62610  0.20190  0.38350  Biso   1.000  C
  C181     1.0000 0.63890  0.21660  0.42700  Biso   1.000  C
  C182     1.0000 0.60850  0.27890  0.42090  Biso   1.000  C
  C183     1.0000 0.56170  0.32700  0.37440  Biso   1.000  C
  C184     1.0000 0.68910  0.16440  0.47760  Biso   1.000  C
  C185     1.0000 0.76230  0.11230  0.47110  Biso   1.000  C
  C186     1.0000 0.81010  0.06590  0.51830  Biso   1.000  C
  C187     1.0000 0.78171  0.07198  0.57240  Biso   1.000  C
  C188     1.0000 0.83421  0.02298  0.62320  Biso   1.000  C
  C189     1.0000 0.70770  0.12250  0.57990  Biso   1.000  C
  C190     1.0000 0.66010  0.17000  0.53240  Biso   1.000  C
  C191     1.0000 0.52114  0.29252  0.11960  Biso   1.000  C
  C192     1.0000 0.58707  0.22076  0.06370  Biso   1.000  C
  C193     1.0000 0.60177  0.22336  0.00790  Biso   1.000  C
  C194     1.0000 0.60710  0.17100  0.99840  Biso   1.000  C
  C195     1.0000 0.67942  0.12826  0.91950  Biso   1.000  C
  C196     1.0000 0.62180  0.20720  0.84520  Biso   1.000  C
  C197     1.0000 0.58390  0.22540  0.89180  Biso   1.000  C
  C198     1.0000 0.60570  0.10990  0.04370  Biso   1.000  C
  C199     1.0000 0.58980  0.10920  0.10140  Biso   1.000  C
  C200     1.0000 0.58600  0.16170  0.11090  Biso   1.000  C
  C201     1.0000 0.62600  0.32800  0.03860  Biso   1.000  C
  C202     1.0000 0.59510  0.37130  0.06330  Biso   1.000  C
  C203     1.0000 0.24354  0.64542  0.20470  Biso   1.000  C
  C204     1.0000 0.19461  0.69948  0.15350  Biso   1.000  C
  C205     1.0000 0.15770  0.76090  0.15070  Biso   1.000  C
  C206     1.0000 0.11840  0.80930  0.10290  Biso   1.000  C
  C207     1.0000 0.11150  0.79430  0.05690  Biso   1.000  C
  C208     1.0000 0.14580  0.73340  0.05900  Biso   1.000  C
  C209     1.0000 0.18878  0.68314  0.10750  Biso   1.000  C
  C210     1.0000 0.06730  0.84820  0.00460  Biso   1.000  C
  C211     1.0000 0.99500  0.89850  0.00990  Biso   1.000  C
  C212     1.0000 0.09810  0.84440  0.94900  Biso   1.000  C
  C213     1.0000 0.92280  0.98990  0.85850  Biso   1.000  C
  C214     1.0000 0.97350  0.94130  0.90950  Biso   1.000  C
  C215     1.0000 0.95170  0.94670  0.96170  Biso   1.000  C
  C216     1.0000 0.04660  0.89060  0.90340  Biso   1.000  C
  N9       1.0000 0.00743  0.84934  0.61500  Biso   1.000  N
  N10      1.0000 0.07057  0.77656  0.57370  Biso   1.000  N
  N11      1.0000 0.26447  0.67386  0.43880  Biso   1.000  N
  N12      1.0000 0.31090  0.64560  0.36140  Biso   1.000  N
  N13      1.0000 0.52823  0.34934  0.11500  Biso   1.000  N
  N14      1.0000 0.57917  0.27656  0.07370  Biso   1.000  N
  N15      1.0000 0.62287  0.17386  0.93880  Biso   1.000  N
  N16      1.0000 0.68210  0.14560  0.86140  Biso   1.000  N
  O25      1.0000 0.01656  0.96508  0.70040  Biso   1.000  O
  O26      1.0000 0.13129  0.89292  0.67270  Biso   1.000  O
  O27      1.0000 0.72909  0.04595  0.78327  Biso   1.000  O
  O28      1.0000 0.64089  0.14392  0.74850  Biso   1.000  O
  O29      1.0000 0.91704  0.84624  0.74088  Biso   1.000  O
  O30      1.0000 0.83120  0.91810  0.78130  Biso   1.000  O
  O31      1.0000 0.48572  0.53226  0.16930  Biso   1.000  O
  O32      1.0000 0.51268  0.47606  0.11458  Biso   1.000  O
  O33      1.0000 0.91961  0.09319  0.70259  Biso   1.000  O
  O34      1.0000 0.85418  0.16247  0.74717  Biso   1.000  O
  O35      1.0000 0.26654  0.47882  0.31430  Biso   1.000  O
  O36      1.0000 0.23668  0.53634  0.36810  Biso   1.000  O
  O37      1.0000 0.31796  0.46508  0.20040  Biso   1.000  O
  O38      1.0000 0.30309  0.39292  0.17270  Biso   1.000  O
  O39      1.0000 0.44169  0.54595  0.28327  Biso   1.000  O
  O40      1.0000 0.46669  0.64392  0.24850  Biso   1.000  O
  O41      1.0000 0.49584  0.34624  0.24088  Biso   1.000  O
  O42      1.0000 0.46940  0.41810  0.28130  Biso   1.000  O
  O43      1.0000 0.81272  0.03226  0.66930  Biso   1.000  O
  O44      1.0000 0.89668  0.97606  0.61458  Biso   1.000  O
  O45      1.0000 0.28461  0.59319  0.20259  Biso   1.000  O
  O46      1.0000 0.23618  0.66247  0.24717  Biso   1.000  O
  O47      1.0000 0.94034  0.97882  0.81430  Biso   1.000  O
  O48      1.0000 0.85888  0.03634  0.86810  Biso   1.000  O
