data_image0
_cell_length_a       9.3137
_cell_length_b       10.4063
_cell_length_c       23.889
_cell_angle_alpha    91.603
_cell_angle_beta     90
_cell_angle_gamma    90

_symmetry_space_group_name_H-M    P 1
_symmetry_int_tables_number       1

loop_
  _symmetry_equiv_pos_as_xyz
  'x, y, z'

loop_
  _atom_site_label
  _atom_site_occupancy
  _atom_site_fract_x
  _atom_site_fract_y
  _atom_site_fract_z
  _atom_site_thermal_displace_type
  _atom_site_B_iso_or_equiv
  _atom_site_type_symbol
  Co1      1.0000 0.14072  0.00000  0.75000  Biso   1.000  Co
  Co2      1.0000 0.85928  0.00000  0.25000  Biso   1.000  Co
  Co3      1.0000 0.50000  0.50000  0.50000  Biso   1.000  Co
  Co4      1.0000 0.50000  0.50000  0.00000  Biso   1.000  Co
  H1       1.0000 0.86940  0.81210  0.62790  Biso   1.000  H
  H2       1.0000 0.29210  0.40090  0.30120  Biso   1.000  H
  H3       1.0000 0.18810  0.30860  0.26720  Biso   1.000  H
  H4       1.0000 0.92480  0.63570  0.38230  Biso   1.000  H
  H5       1.0000 0.51590  0.90850  0.54420  Biso   1.000  H
  H6       1.0000 0.74650  0.64920  0.44690  Biso   1.000  H
  H7       1.0000 0.73390  0.17710  0.63190  Biso   1.000  H
  H8       1.0000 0.56840  0.34240  0.16080  Biso   1.000  H
  H9       1.0000 0.81890  0.26760  0.35530  Biso   1.000  H
  H10      1.0000 0.40910  0.21810  0.30480  Biso   1.000  H
  H11      1.0000 0.53930  0.11860  0.57640  Biso   1.000  H
  H12      1.0000 0.63990  0.29500  0.41910  Biso   1.000  H
  H13      1.0000 0.60600  0.09040  0.31180  Biso   1.000  H
  H14      1.0000 0.76400  0.21470  0.17390  Biso   1.000  H
  H15      1.0000 0.12360  0.57010  0.33070  Biso   1.000  H
  H16      1.0000 0.99910  0.60990  0.29020  Biso   1.000  H
  H17      1.0000 0.86940  0.18790  0.87210  Biso   1.000  H
  H18      1.0000 0.29210  0.59910  0.19880  Biso   1.000  H
  H19      1.0000 0.18810  0.69140  0.23280  Biso   1.000  H
  H20      1.0000 0.92480  0.36430  0.11770  Biso   1.000  H
  H21      1.0000 0.51590  0.09150  0.95580  Biso   1.000  H
  H22      1.0000 0.74650  0.35080  0.05310  Biso   1.000  H
  H23      1.0000 0.73390  0.82290  0.86810  Biso   1.000  H
  H24      1.0000 0.56840  0.65760  0.33920  Biso   1.000  H
  H25      1.0000 0.81890  0.73240  0.14470  Biso   1.000  H
  H26      1.0000 0.40910  0.78190  0.19520  Biso   1.000  H
  H27      1.0000 0.53930  0.88140  0.92360  Biso   1.000  H
  H28      1.0000 0.63990  0.70500  0.08090  Biso   1.000  H
  H29      1.0000 0.60600  0.90960  0.18820  Biso   1.000  H
  H30      1.0000 0.76400  0.78530  0.32610  Biso   1.000  H
  H31      1.0000 0.12360  0.42990  0.16930  Biso   1.000  H
  H32      1.0000 0.99910  0.39010  0.20980  Biso   1.000  H
  H33      1.0000 0.13060  0.18790  0.37210  Biso   1.000  H
  H34      1.0000 0.70790  0.59910  0.69880  Biso   1.000  H
  H35      1.0000 0.81190  0.69140  0.73280  Biso   1.000  H
  H36      1.0000 0.07520  0.36430  0.61770  Biso   1.000  H
  H37      1.0000 0.48410  0.09150  0.45580  Biso   1.000  H
  H38      1.0000 0.25350  0.35080  0.55310  Biso   1.000  H
  H39      1.0000 0.26610  0.82290  0.36810  Biso   1.000  H
  H40      1.0000 0.43160  0.65760  0.83920  Biso   1.000  H
  H41      1.0000 0.18110  0.73240  0.64470  Biso   1.000  H
  H42      1.0000 0.59090  0.78190  0.69520  Biso   1.000  H
  H43      1.0000 0.46070  0.88140  0.42360  Biso   1.000  H
  H44      1.0000 0.36010  0.70500  0.58090  Biso   1.000  H
  H45      1.0000 0.39400  0.90960  0.68820  Biso   1.000  H
  H46      1.0000 0.23600  0.78530  0.82610  Biso   1.000  H
  H47      1.0000 0.87640  0.42990  0.66930  Biso   1.000  H
  H48      1.0000 0.00090  0.39010  0.70980  Biso   1.000  H
  H49      1.0000 0.13060  0.81210  0.12790  Biso   1.000  H
  H50      1.0000 0.70790  0.40090  0.80120  Biso   1.000  H
  H51      1.0000 0.81190  0.30860  0.76720  Biso   1.000  H
  H52      1.0000 0.07520  0.63570  0.88230  Biso   1.000  H
  H53      1.0000 0.48410  0.90850  0.04420  Biso   1.000  H
  H54      1.0000 0.25350  0.64920  0.94690  Biso   1.000  H
  H55      1.0000 0.26610  0.17710  0.13190  Biso   1.000  H
  H56      1.0000 0.43160  0.34240  0.66080  Biso   1.000  H
  H57      1.0000 0.18110  0.26760  0.85530  Biso   1.000  H
  H58      1.0000 0.59090  0.21810  0.80480  Biso   1.000  H
  H59      1.0000 0.46070  0.11860  0.07640  Biso   1.000  H
  H60      1.0000 0.36010  0.29500  0.91910  Biso   1.000  H
  H61      1.0000 0.39400  0.09040  0.81180  Biso   1.000  H
  H62      1.0000 0.23600  0.21470  0.67390  Biso   1.000  H
  H63      1.0000 0.87640  0.57010  0.83070  Biso   1.000  H
  H64      1.0000 0.00090  0.60990  0.79020  Biso   1.000  H
  C1       1.0000 0.80380  0.87410  0.61720  Biso   1.000  C
  C2       1.0000 0.24650  0.38550  0.26518  Biso   1.000  C
  C3       1.0000 0.86620  0.56500  0.38829  Biso   1.000  C
  C4       1.0000 0.59200  0.93130  0.56765  Biso   1.000  C
  C5       1.0000 0.82230  0.00120  0.63519  Biso   1.000  C
  C6       1.0000 0.68850  0.83910  0.58340  Biso   1.000  C
  C7       1.0000 0.94630  0.03900  0.67094  Biso   1.000  C
  C8       1.0000 0.88610  0.45100  0.35798  Biso   1.000  C
  C9       1.0000 0.46490  0.29410  0.23152  Biso   1.000  C
  C10      1.0000 0.75870  0.57160  0.42718  Biso   1.000  C
  C11      1.0000 0.66920  0.69980  0.56585  Biso   1.000  C
  C12      1.0000 0.72290  0.09200  0.61973  Biso   1.000  C
  C13      1.0000 0.57410  0.29200  0.19224  Biso   1.000  C
  C14      1.0000 0.80330  0.34810  0.37210  Biso   1.000  C
  C15      1.0000 0.47930  0.21820  0.27711  Biso   1.000  C
  C16      1.0000 0.60680  0.05730  0.58626  Biso   1.000  C
  C17      1.0000 0.69740  0.36540  0.41120  Biso   1.000  C
  C18      1.0000 0.59840  0.14300  0.28113  Biso   1.000  C
  C19      1.0000 0.69100  0.21450  0.20041  Biso   1.000  C
  C20      1.0000 0.06270  0.54030  0.30009  Biso   1.000  C
  C21      1.0000 0.80380  0.12590  0.88280  Biso   1.000  C
  C22      1.0000 0.24650  0.61450  0.23482  Biso   1.000  C
  C23      1.0000 0.86620  0.43500  0.11171  Biso   1.000  C
  C24      1.0000 0.59200  0.06870  0.93235  Biso   1.000  C
  C25      1.0000 0.82230  0.99880  0.86481  Biso   1.000  C
  C26      1.0000 0.68850  0.16090  0.91660  Biso   1.000  C
  C27      1.0000 0.94630  0.96100  0.82906  Biso   1.000  C
  C28      1.0000 0.88610  0.54900  0.14202  Biso   1.000  C
  C29      1.0000 0.46490  0.70590  0.26848  Biso   1.000  C
  C30      1.0000 0.75870  0.42840  0.07282  Biso   1.000  C
  C31      1.0000 0.66920  0.30020  0.93415  Biso   1.000  C
  C32      1.0000 0.72290  0.90800  0.88027  Biso   1.000  C
  C33      1.0000 0.57410  0.70800  0.30776  Biso   1.000  C
  C34      1.0000 0.80330  0.65190  0.12790  Biso   1.000  C
  C35      1.0000 0.47930  0.78180  0.22289  Biso   1.000  C
  C36      1.0000 0.60680  0.94270  0.91374  Biso   1.000  C
  C37      1.0000 0.69740  0.63460  0.08880  Biso   1.000  C
  C38      1.0000 0.59840  0.85700  0.21887  Biso   1.000  C
  C39      1.0000 0.69100  0.78550  0.29959  Biso   1.000  C
  C40      1.0000 0.06270  0.45970  0.19991  Biso   1.000  C
  C41      1.0000 0.19620  0.12590  0.38280  Biso   1.000  C
  C42      1.0000 0.75350  0.61450  0.73482  Biso   1.000  C
  C43      1.0000 0.13380  0.43500  0.61171  Biso   1.000  C
  C44      1.0000 0.40800  0.06870  0.43235  Biso   1.000  C
  C45      1.0000 0.17770  0.99880  0.36481  Biso   1.000  C
  C46      1.0000 0.31150  0.16090  0.41660  Biso   1.000  C
  C47      1.0000 0.05370  0.96100  0.32906  Biso   1.000  C
  C48      1.0000 0.11390  0.54900  0.64202  Biso   1.000  C
  C49      1.0000 0.53510  0.70590  0.76848  Biso   1.000  C
  C50      1.0000 0.24130  0.42840  0.57282  Biso   1.000  C
  C51      1.0000 0.33080  0.30020  0.43415  Biso   1.000  C
  C52      1.0000 0.27710  0.90800  0.38027  Biso   1.000  C
  C53      1.0000 0.42590  0.70800  0.80776  Biso   1.000  C
  C54      1.0000 0.19670  0.65190  0.62790  Biso   1.000  C
  C55      1.0000 0.52070  0.78180  0.72289  Biso   1.000  C
  C56      1.0000 0.39320  0.94270  0.41374  Biso   1.000  C
  C57      1.0000 0.30260  0.63460  0.58880  Biso   1.000  C
  C58      1.0000 0.40160  0.85700  0.71887  Biso   1.000  C
  C59      1.0000 0.30900  0.78550  0.79959  Biso   1.000  C
  C60      1.0000 0.93730  0.45970  0.69991  Biso   1.000  C
  C61      1.0000 0.19620  0.87410  0.11720  Biso   1.000  C
  C62      1.0000 0.75350  0.38550  0.76518  Biso   1.000  C
  C63      1.0000 0.13380  0.56500  0.88829  Biso   1.000  C
  C64      1.0000 0.40800  0.93130  0.06765  Biso   1.000  C
  C65      1.0000 0.17770  0.00120  0.13519  Biso   1.000  C
  C66      1.0000 0.31150  0.83910  0.08340  Biso   1.000  C
  C67      1.0000 0.05370  0.03900  0.17094  Biso   1.000  C
  C68      1.0000 0.11390  0.45100  0.85798  Biso   1.000  C
  C69      1.0000 0.53510  0.29410  0.73152  Biso   1.000  C
  C70      1.0000 0.24130  0.57160  0.92718  Biso   1.000  C
  C71      1.0000 0.33080  0.69980  0.06585  Biso   1.000  C
  C72      1.0000 0.27710  0.09200  0.11973  Biso   1.000  C
  C73      1.0000 0.42590  0.29200  0.69224  Biso   1.000  C
  C74      1.0000 0.19670  0.34810  0.87210  Biso   1.000  C
  C75      1.0000 0.52070  0.21820  0.77711  Biso   1.000  C
  C76      1.0000 0.39320  0.05730  0.08626  Biso   1.000  C
  C77      1.0000 0.30260  0.36540  0.91120  Biso   1.000  C
  C78      1.0000 0.40160  0.14300  0.78113  Biso   1.000  C
  C79      1.0000 0.30900  0.21450  0.70041  Biso   1.000  C
  C80      1.0000 0.93730  0.54030  0.80009  Biso   1.000  C
  C81      1.0000 0.15420  0.50000  0.25000  Biso   1.000  C
  C82      1.0000 0.84580  0.50000  0.75000  Biso   1.000  C
  N1       1.0000 0.70590  0.14000  0.24343  Biso   1.000  N
  N2       1.0000 0.67030  0.47580  0.43907  Biso   1.000  N
  N3       1.0000 0.70590  0.86000  0.25657  Biso   1.000  N
  N4       1.0000 0.67030  0.52420  0.06093  Biso   1.000  N
  N5       1.0000 0.29410  0.86000  0.75657  Biso   1.000  N
  N6       1.0000 0.32970  0.52420  0.56093  Biso   1.000  N
  N7       1.0000 0.29410  0.14000  0.74343  Biso   1.000  N
  N8       1.0000 0.32970  0.47580  0.93907  Biso   1.000  N
  O1       1.0000 0.73580  0.61830  0.59217  Biso   1.000  O
  O2       1.0000 0.58080  0.67590  0.52710  Biso   1.000  O
  O3       1.0000 0.03670  0.95230  0.68210  Biso   1.000  O
  O4       1.0000 0.95820  0.14890  0.68996  Biso   1.000  O
  O5       1.0000 0.98100  0.43210  0.31657  Biso   1.000  O
  O6       1.0000 0.35320  0.37030  0.22187  Biso   1.000  O
  O7       1.0000 0.62810  0.39970  0.55986  Biso   1.000  O
  O8       1.0000 0.73580  0.38170  0.90783  Biso   1.000  O
  O9       1.0000 0.58080  0.32410  0.97290  Biso   1.000  O
  O10      1.0000 0.03670  0.04770  0.81790  Biso   1.000  O
  O11      1.0000 0.95820  0.85110  0.81004  Biso   1.000  O
  O12      1.0000 0.98100  0.56790  0.18343  Biso   1.000  O
  O13      1.0000 0.35320  0.62970  0.27813  Biso   1.000  O
  O14      1.0000 0.62810  0.60030  0.94014  Biso   1.000  O
  O15      1.0000 0.26420  0.38170  0.40783  Biso   1.000  O
  O16      1.0000 0.41920  0.32410  0.47290  Biso   1.000  O
  O17      1.0000 0.96330  0.04770  0.31790  Biso   1.000  O
  O18      1.0000 0.04180  0.85110  0.31004  Biso   1.000  O
  O19      1.0000 0.01900  0.56790  0.68343  Biso   1.000  O
  O20      1.0000 0.64680  0.62970  0.77813  Biso   1.000  O
  O21      1.0000 0.37190  0.60030  0.44014  Biso   1.000  O
  O22      1.0000 0.26420  0.61830  0.09217  Biso   1.000  O
  O23      1.0000 0.41920  0.67590  0.02710  Biso   1.000  O
  O24      1.0000 0.96330  0.95230  0.18210  Biso   1.000  O
  O25      1.0000 0.04180  0.14890  0.18996  Biso   1.000  O
  O26      1.0000 0.01900  0.43210  0.81657  Biso   1.000  O
  O27      1.0000 0.64680  0.37030  0.72187  Biso   1.000  O
  O28      1.0000 0.37190  0.39970  0.05986  Biso   1.000  O
