data_image0
_cell_length_a       16.1936
_cell_length_b       16.1936
_cell_length_c       29.884
_cell_angle_alpha    90
_cell_angle_beta     90
_cell_angle_gamma    90

_symmetry_space_group_name_H-M    "P 1"
_symmetry_int_tables_number       1

loop_
  _symmetry_equiv_pos_as_xyz
  'x, y, z'

loop_
  _atom_site_label
  _atom_site_occupancy
  _atom_site_fract_x
  _atom_site_fract_y
  _atom_site_fract_z
  _atom_site_thermal_displace_type
  _atom_site_B_iso_or_equiv
  _atom_site_type_symbol
  C1       1.0000 0.25790  0.26300  0.04035  Biso   1.000  C
  C2       1.0000 0.25700  0.17660  0.04037  Biso   1.000  C
  C3       1.0000 0.27490  0.31650  0.08104  Biso   1.000  C
  C4       1.0000 0.25849  0.12604  0.08238  Biso   1.000  C
  O1       1.0000 0.22018  0.37120  0.08873  Biso   1.000  O
  O2       1.0000 0.33923  0.30651  0.10205  Biso   1.000  O
  O3       1.0000 0.27539  0.05000  0.07609  Biso   1.000  O
  O4       1.0000 0.24344  0.15697  0.11884  Biso   1.000  O
  C5       1.0000 0.75790  0.76300  0.54035  Biso   1.000  C
  C6       1.0000 0.75700  0.67660  0.54037  Biso   1.000  C
  C7       1.0000 0.77490  0.81650  0.58104  Biso   1.000  C
  C8       1.0000 0.75849  0.62604  0.58238  Biso   1.000  C
  O5       1.0000 0.72018  0.87120  0.58873  Biso   1.000  O
  O6       1.0000 0.83923  0.80651  0.60205  Biso   1.000  O
  O7       1.0000 0.77539  0.55000  0.57609  Biso   1.000  O
  O8       1.0000 0.74344  0.65697  0.61884  Biso   1.000  O
  C9       1.0000 0.24210  0.73700  0.54035  Biso   1.000  C
  C10      1.0000 0.24300  0.82340  0.54037  Biso   1.000  C
  C11      1.0000 0.22510  0.68350  0.58104  Biso   1.000  C
  C12      1.0000 0.24151  0.87396  0.58238  Biso   1.000  C
  O9       1.0000 0.27982  0.62880  0.58873  Biso   1.000  O
  O10      1.0000 0.16077  0.69349  0.60205  Biso   1.000  O
  O11      1.0000 0.22461  0.95000  0.57609  Biso   1.000  O
  O12      1.0000 0.25656  0.84303  0.61884  Biso   1.000  O
  C13      1.0000 0.74210  0.23700  0.04035  Biso   1.000  C
  C14      1.0000 0.74300  0.32340  0.04037  Biso   1.000  C
  C15      1.0000 0.72510  0.18350  0.08104  Biso   1.000  C
  C16      1.0000 0.74151  0.37396  0.08238  Biso   1.000  C
  O13      1.0000 0.77982  0.12880  0.08873  Biso   1.000  O
  O14      1.0000 0.66077  0.19349  0.10205  Biso   1.000  O
  O15      1.0000 0.72461  0.45000  0.07609  Biso   1.000  O
  O16      1.0000 0.75656  0.34303  0.11884  Biso   1.000  O
  C17      1.0000 0.98700  0.00790  0.29035  Biso   1.000  C
  C18      1.0000 0.07340  0.00700  0.29037  Biso   1.000  C
  C19      1.0000 0.93350  0.02490  0.33104  Biso   1.000  C
  C20      1.0000 0.12396  0.00849  0.33238  Biso   1.000  C
  O17      1.0000 0.87880  0.97018  0.33873  Biso   1.000  O
  O18      1.0000 0.94349  0.08923  0.35205  Biso   1.000  O
  O19      1.0000 0.20000  0.02539  0.32609  Biso   1.000  O
  O20      1.0000 0.09303  0.99344  0.36884  Biso   1.000  O
  C21      1.0000 0.48700  0.50790  0.79035  Biso   1.000  C
  C22      1.0000 0.57340  0.50700  0.79037  Biso   1.000  C
  C23      1.0000 0.43350  0.52490  0.83104  Biso   1.000  C
  C24      1.0000 0.62396  0.50849  0.83238  Biso   1.000  C
  O21      1.0000 0.37880  0.47018  0.83873  Biso   1.000  O
  O22      1.0000 0.44349  0.58923  0.85205  Biso   1.000  O
  O23      1.0000 0.70000  0.52539  0.82609  Biso   1.000  O
  O24      1.0000 0.59303  0.49344  0.86884  Biso   1.000  O
  C25      1.0000 0.51300  0.99210  0.79035  Biso   1.000  C
  C26      1.0000 0.42660  0.99300  0.79037  Biso   1.000  C
  C27      1.0000 0.56650  0.97510  0.83104  Biso   1.000  C
  C28      1.0000 0.37604  0.99151  0.83238  Biso   1.000  C
  O25      1.0000 0.62120  0.02982  0.83873  Biso   1.000  O
  O26      1.0000 0.55651  0.91077  0.85205  Biso   1.000  O
  O27      1.0000 0.30000  0.97461  0.82609  Biso   1.000  O
  O28      1.0000 0.40697  0.00656  0.86884  Biso   1.000  O
  C29      1.0000 0.01300  0.49210  0.29035  Biso   1.000  C
  C30      1.0000 0.92660  0.49300  0.29037  Biso   1.000  C
  C31      1.0000 0.06650  0.47510  0.33104  Biso   1.000  C
  C32      1.0000 0.87604  0.49151  0.33238  Biso   1.000  C
  O29      1.0000 0.12120  0.52982  0.33873  Biso   1.000  O
  O30      1.0000 0.05651  0.41077  0.35205  Biso   1.000  O
  O31      1.0000 0.80000  0.47461  0.32609  Biso   1.000  O
  O32      1.0000 0.90697  0.50656  0.36884  Biso   1.000  O
  C33      1.0000 0.24210  0.26300  0.95965  Biso   1.000  C
  C34      1.0000 0.24300  0.17660  0.95963  Biso   1.000  C
  C35      1.0000 0.22510  0.31650  0.91896  Biso   1.000  C
  C36      1.0000 0.24151  0.12604  0.91762  Biso   1.000  C
  O33      1.0000 0.27982  0.37120  0.91127  Biso   1.000  O
  O34      1.0000 0.16077  0.30651  0.89795  Biso   1.000  O
  O35      1.0000 0.22461  0.05000  0.92391  Biso   1.000  O
  O36      1.0000 0.25656  0.15697  0.88116  Biso   1.000  O
  C37      1.0000 0.74210  0.76300  0.45965  Biso   1.000  C
  C38      1.0000 0.74300  0.67660  0.45963  Biso   1.000  C
  C39      1.0000 0.72510  0.81650  0.41896  Biso   1.000  C
  C40      1.0000 0.74151  0.62604  0.41762  Biso   1.000  C
  O37      1.0000 0.77982  0.87120  0.41127  Biso   1.000  O
  O38      1.0000 0.66077  0.80651  0.39795  Biso   1.000  O
  O39      1.0000 0.72461  0.55000  0.42391  Biso   1.000  O
  O40      1.0000 0.75656  0.65697  0.38116  Biso   1.000  O
  C41      1.0000 0.25790  0.73700  0.45965  Biso   1.000  C
  C42      1.0000 0.25700  0.82340  0.45963  Biso   1.000  C
  C43      1.0000 0.27490  0.68350  0.41896  Biso   1.000  C
  C44      1.0000 0.25849  0.87396  0.41762  Biso   1.000  C
  O41      1.0000 0.22018  0.62880  0.41127  Biso   1.000  O
  O42      1.0000 0.33923  0.69349  0.39795  Biso   1.000  O
  O43      1.0000 0.27539  0.95000  0.42391  Biso   1.000  O
  O44      1.0000 0.24344  0.84303  0.38116  Biso   1.000  O
  C45      1.0000 0.75790  0.23700  0.95965  Biso   1.000  C
  C46      1.0000 0.75700  0.32340  0.95963  Biso   1.000  C
  C47      1.0000 0.77490  0.18350  0.91896  Biso   1.000  C
  C48      1.0000 0.75849  0.37396  0.91762  Biso   1.000  C
  O45      1.0000 0.72018  0.12880  0.91127  Biso   1.000  O
  O46      1.0000 0.83923  0.19349  0.89795  Biso   1.000  O
  O47      1.0000 0.77539  0.45000  0.92391  Biso   1.000  O
  O48      1.0000 0.74344  0.34303  0.88116  Biso   1.000  O
  C49      1.0000 0.51300  0.00790  0.70965  Biso   1.000  C
  C50      1.0000 0.42660  0.00700  0.70963  Biso   1.000  C
  C51      1.0000 0.56650  0.02490  0.66896  Biso   1.000  C
  C52      1.0000 0.37604  0.00849  0.66762  Biso   1.000  C
  O49      1.0000 0.62120  0.97018  0.66127  Biso   1.000  O
  O50      1.0000 0.55651  0.08923  0.64795  Biso   1.000  O
  O51      1.0000 0.30000  0.02539  0.67391  Biso   1.000  O
  O52      1.0000 0.40697  0.99344  0.63116  Biso   1.000  O
  C53      1.0000 0.01300  0.50790  0.20965  Biso   1.000  C
  C54      1.0000 0.92660  0.50700  0.20963  Biso   1.000  C
  C55      1.0000 0.06650  0.52490  0.16896  Biso   1.000  C
  C56      1.0000 0.87604  0.50849  0.16762  Biso   1.000  C
  O53      1.0000 0.12120  0.47018  0.16127  Biso   1.000  O
  O54      1.0000 0.05651  0.58923  0.14795  Biso   1.000  O
  O55      1.0000 0.80000  0.52539  0.17391  Biso   1.000  O
  O56      1.0000 0.90697  0.49344  0.13116  Biso   1.000  O
  C57      1.0000 0.98700  0.99210  0.20965  Biso   1.000  C
  C58      1.0000 0.07340  0.99300  0.20963  Biso   1.000  C
  C59      1.0000 0.93350  0.97510  0.16896  Biso   1.000  C
  C60      1.0000 0.12396  0.99151  0.16762  Biso   1.000  C
  O57      1.0000 0.87880  0.02982  0.16127  Biso   1.000  O
  O58      1.0000 0.94349  0.91077  0.14795  Biso   1.000  O
  O59      1.0000 0.20000  0.97461  0.17391  Biso   1.000  O
  O60      1.0000 0.09303  0.00656  0.13116  Biso   1.000  O
  C61      1.0000 0.48700  0.49210  0.70965  Biso   1.000  C
  C62      1.0000 0.57340  0.49300  0.70963  Biso   1.000  C
  C63      1.0000 0.43350  0.47510  0.66896  Biso   1.000  C
  C64      1.0000 0.62396  0.49151  0.66762  Biso   1.000  C
  O61      1.0000 0.37880  0.52982  0.66127  Biso   1.000  O
  O62      1.0000 0.44349  0.41077  0.64795  Biso   1.000  O
  O63      1.0000 0.70000  0.47461  0.67391  Biso   1.000  O
  O64      1.0000 0.59303  0.50656  0.63116  Biso   1.000  O
  C65      1.0000 0.74210  0.73700  0.95965  Biso   1.000  C
  C66      1.0000 0.74300  0.82340  0.95963  Biso   1.000  C
  C67      1.0000 0.72510  0.68350  0.91896  Biso   1.000  C
  C68      1.0000 0.74151  0.87396  0.91762  Biso   1.000  C
  O65      1.0000 0.77982  0.62880  0.91127  Biso   1.000  O
  O66      1.0000 0.66077  0.69349  0.89795  Biso   1.000  O
  O67      1.0000 0.72461  0.95000  0.92391  Biso   1.000  O
  O68      1.0000 0.75656  0.84303  0.88116  Biso   1.000  O
  C69      1.0000 0.24210  0.23700  0.45965  Biso   1.000  C
  C70      1.0000 0.24300  0.32340  0.45963  Biso   1.000  C
  C71      1.0000 0.22510  0.18350  0.41896  Biso   1.000  C
  C72      1.0000 0.24151  0.37396  0.41762  Biso   1.000  C
  O69      1.0000 0.27982  0.12880  0.41127  Biso   1.000  O
  O70      1.0000 0.16077  0.19349  0.39795  Biso   1.000  O
  O71      1.0000 0.22461  0.45000  0.42391  Biso   1.000  O
  O72      1.0000 0.25656  0.34303  0.38116  Biso   1.000  O
  C73      1.0000 0.75790  0.26300  0.45965  Biso   1.000  C
  C74      1.0000 0.75700  0.17660  0.45963  Biso   1.000  C
  C75      1.0000 0.77490  0.31650  0.41896  Biso   1.000  C
  C76      1.0000 0.75849  0.12604  0.41762  Biso   1.000  C
  O73      1.0000 0.72018  0.37120  0.41127  Biso   1.000  O
  O74      1.0000 0.83923  0.30651  0.39795  Biso   1.000  O
  O75      1.0000 0.77539  0.05000  0.42391  Biso   1.000  O
  O76      1.0000 0.74344  0.15697  0.38116  Biso   1.000  O
  C77      1.0000 0.25790  0.76300  0.95965  Biso   1.000  C
  C78      1.0000 0.25700  0.67660  0.95963  Biso   1.000  C
  C79      1.0000 0.27490  0.81650  0.91896  Biso   1.000  C
  C80      1.0000 0.25849  0.62604  0.91762  Biso   1.000  C
  O77      1.0000 0.22018  0.87120  0.91127  Biso   1.000  O
  O78      1.0000 0.33923  0.80651  0.89795  Biso   1.000  O
  O79      1.0000 0.27539  0.55000  0.92391  Biso   1.000  O
  O80      1.0000 0.24344  0.65697  0.88116  Biso   1.000  O
  C81      1.0000 0.01300  0.99210  0.70965  Biso   1.000  C
  C82      1.0000 0.92660  0.99300  0.70963  Biso   1.000  C
  C83      1.0000 0.06650  0.97510  0.66896  Biso   1.000  C
  C84      1.0000 0.87604  0.99151  0.66762  Biso   1.000  C
  O81      1.0000 0.12120  0.02982  0.66127  Biso   1.000  O
  O82      1.0000 0.05651  0.91077  0.64795  Biso   1.000  O
  O83      1.0000 0.80000  0.97461  0.67391  Biso   1.000  O
  O84      1.0000 0.90697  0.00656  0.63116  Biso   1.000  O
  C85      1.0000 0.51300  0.49210  0.20965  Biso   1.000  C
  C86      1.0000 0.42660  0.49300  0.20963  Biso   1.000  C
  C87      1.0000 0.56650  0.47510  0.16896  Biso   1.000  C
  C88      1.0000 0.37604  0.49151  0.16762  Biso   1.000  C
  O85      1.0000 0.62120  0.52982  0.16127  Biso   1.000  O
  O86      1.0000 0.55651  0.41077  0.14795  Biso   1.000  O
  O87      1.0000 0.30000  0.47461  0.17391  Biso   1.000  O
  O88      1.0000 0.40697  0.50656  0.13116  Biso   1.000  O
  C89      1.0000 0.48700  0.00790  0.20965  Biso   1.000  C
  C90      1.0000 0.57340  0.00700  0.20963  Biso   1.000  C
  C91      1.0000 0.43350  0.02490  0.16896  Biso   1.000  C
  C92      1.0000 0.62396  0.00849  0.16762  Biso   1.000  C
  O89      1.0000 0.37880  0.97018  0.16127  Biso   1.000  O
  O90      1.0000 0.44349  0.08923  0.14795  Biso   1.000  O
  O91      1.0000 0.70000  0.02539  0.17391  Biso   1.000  O
  O92      1.0000 0.59303  0.99344  0.13116  Biso   1.000  O
  C93      1.0000 0.98700  0.50790  0.70965  Biso   1.000  C
  C94      1.0000 0.07340  0.50700  0.70963  Biso   1.000  C
  C95      1.0000 0.93350  0.52490  0.66896  Biso   1.000  C
  C96      1.0000 0.12396  0.50849  0.66762  Biso   1.000  C
  O93      1.0000 0.87880  0.47018  0.66127  Biso   1.000  O
  O94      1.0000 0.94349  0.58923  0.64795  Biso   1.000  O
  O95      1.0000 0.20000  0.52539  0.67391  Biso   1.000  O
  O96      1.0000 0.09303  0.49344  0.63116  Biso   1.000  O
  C97      1.0000 0.75790  0.73700  0.04035  Biso   1.000  C
  C98      1.0000 0.75700  0.82340  0.04037  Biso   1.000  C
  C99      1.0000 0.77490  0.68350  0.08104  Biso   1.000  C
  C100     1.0000 0.75849  0.87396  0.08238  Biso   1.000  C
  O97      1.0000 0.72018  0.62880  0.08873  Biso   1.000  O
  O98      1.0000 0.83923  0.69349  0.10205  Biso   1.000  O
  O99      1.0000 0.77539  0.95000  0.07609  Biso   1.000  O
  O100     1.0000 0.74344  0.84303  0.11884  Biso   1.000  O
  C101     1.0000 0.25790  0.23700  0.54035  Biso   1.000  C
  C102     1.0000 0.25700  0.32340  0.54037  Biso   1.000  C
  C103     1.0000 0.27490  0.18350  0.58104  Biso   1.000  C
  C104     1.0000 0.25849  0.37396  0.58238  Biso   1.000  C
  O101     1.0000 0.22018  0.12880  0.58873  Biso   1.000  O
  O102     1.0000 0.33923  0.19349  0.60205  Biso   1.000  O
  O103     1.0000 0.27539  0.45000  0.57609  Biso   1.000  O
  O104     1.0000 0.24344  0.34303  0.61884  Biso   1.000  O
  C105     1.0000 0.74210  0.26300  0.54035  Biso   1.000  C
  C106     1.0000 0.74300  0.17660  0.54037  Biso   1.000  C
  C107     1.0000 0.72510  0.31650  0.58104  Biso   1.000  C
  C108     1.0000 0.74151  0.12604  0.58238  Biso   1.000  C
  O105     1.0000 0.77982  0.37120  0.58873  Biso   1.000  O
  O106     1.0000 0.66077  0.30651  0.60205  Biso   1.000  O
  O107     1.0000 0.72461  0.05000  0.57609  Biso   1.000  O
  O108     1.0000 0.75656  0.15697  0.61884  Biso   1.000  O
  C109     1.0000 0.24210  0.76300  0.04035  Biso   1.000  C
  C110     1.0000 0.24300  0.67660  0.04037  Biso   1.000  C
  C111     1.0000 0.22510  0.81650  0.08104  Biso   1.000  C
  C112     1.0000 0.24151  0.62604  0.08238  Biso   1.000  C
  O109     1.0000 0.27982  0.87120  0.08873  Biso   1.000  O
  O110     1.0000 0.16077  0.80651  0.10205  Biso   1.000  O
  O111     1.0000 0.22461  0.55000  0.07609  Biso   1.000  O
  O112     1.0000 0.25656  0.65697  0.11884  Biso   1.000  O
  C113     1.0000 0.48700  0.99210  0.29035  Biso   1.000  C
  C114     1.0000 0.57340  0.99300  0.29037  Biso   1.000  C
  C115     1.0000 0.43350  0.97510  0.33104  Biso   1.000  C
  C116     1.0000 0.62396  0.99151  0.33238  Biso   1.000  C
  O113     1.0000 0.37880  0.02982  0.33873  Biso   1.000  O
  O114     1.0000 0.44349  0.91077  0.35205  Biso   1.000  O
  O115     1.0000 0.70000  0.97461  0.32609  Biso   1.000  O
  O116     1.0000 0.59303  0.00656  0.36884  Biso   1.000  O
  C117     1.0000 0.98700  0.49210  0.79035  Biso   1.000  C
  C118     1.0000 0.07340  0.49300  0.79037  Biso   1.000  C
  C119     1.0000 0.93350  0.47510  0.83104  Biso   1.000  C
  C120     1.0000 0.12396  0.49151  0.83238  Biso   1.000  C
  O117     1.0000 0.87880  0.52982  0.83873  Biso   1.000  O
  O118     1.0000 0.94349  0.41077  0.85205  Biso   1.000  O
  O119     1.0000 0.20000  0.47461  0.82609  Biso   1.000  O
  O120     1.0000 0.09303  0.50656  0.86884  Biso   1.000  O
  C121     1.0000 0.01300  0.00790  0.79035  Biso   1.000  C
  C122     1.0000 0.92660  0.00700  0.79037  Biso   1.000  C
  C123     1.0000 0.06650  0.02490  0.83104  Biso   1.000  C
  C124     1.0000 0.87604  0.00849  0.83238  Biso   1.000  C
  O121     1.0000 0.12120  0.97018  0.83873  Biso   1.000  O
  O122     1.0000 0.05651  0.08923  0.85205  Biso   1.000  O
  O123     1.0000 0.80000  0.02539  0.82609  Biso   1.000  O
  O124     1.0000 0.90697  0.99344  0.86884  Biso   1.000  O
  C125     1.0000 0.51300  0.50790  0.29035  Biso   1.000  C
  C126     1.0000 0.42660  0.50700  0.29037  Biso   1.000  C
  C127     1.0000 0.56650  0.52490  0.33104  Biso   1.000  C
  C128     1.0000 0.37604  0.50849  0.33238  Biso   1.000  C
  O125     1.0000 0.62120  0.47018  0.33873  Biso   1.000  O
  O126     1.0000 0.55651  0.58923  0.35205  Biso   1.000  O
  O127     1.0000 0.30000  0.52539  0.32609  Biso   1.000  O
  O128     1.0000 0.40697  0.49344  0.36884  Biso   1.000  O
  C129     1.0000 0.25000  0.30490  0.00000  Biso   1.000  C
  H1       1.0000 0.25000  0.36230  0.00000  Biso   1.000  H
  C130     1.0000 0.25000  0.13750  0.00000  Biso   1.000  C
  H2       1.0000 0.25000  0.08010  0.00000  Biso   1.000  H
  C131     1.0000 0.75000  0.80490  0.50000  Biso   1.000  C
  H3       1.0000 0.75000  0.86230  0.50000  Biso   1.000  H
  C132     1.0000 0.75000  0.63750  0.50000  Biso   1.000  C
  H4       1.0000 0.75000  0.58010  0.50000  Biso   1.000  H
  C133     1.0000 0.25000  0.69510  0.50000  Biso   1.000  C
  H5       1.0000 0.25000  0.63770  0.50000  Biso   1.000  H
  C134     1.0000 0.25000  0.86250  0.50000  Biso   1.000  C
  H6       1.0000 0.25000  0.91990  0.50000  Biso   1.000  H
  C135     1.0000 0.75000  0.19510  0.00000  Biso   1.000  C
  H7       1.0000 0.75000  0.13770  0.00000  Biso   1.000  H
  C136     1.0000 0.75000  0.36250  0.00000  Biso   1.000  C
  H8       1.0000 0.75000  0.41990  0.00000  Biso   1.000  H
  C137     1.0000 0.94510  0.00000  0.25000  Biso   1.000  C
  H9       1.0000 0.88770  0.00000  0.25000  Biso   1.000  H
  C138     1.0000 0.11250  0.00000  0.25000  Biso   1.000  C
  H10      1.0000 0.16990  0.00000  0.25000  Biso   1.000  H
  C139     1.0000 0.44510  0.50000  0.75000  Biso   1.000  C
  H11      1.0000 0.38770  0.50000  0.75000  Biso   1.000  H
  C140     1.0000 0.61250  0.50000  0.75000  Biso   1.000  C
  H12      1.0000 0.66990  0.50000  0.75000  Biso   1.000  H
  C141     1.0000 0.55490  0.00000  0.75000  Biso   1.000  C
  H13      1.0000 0.61230  0.00000  0.75000  Biso   1.000  H
  C142     1.0000 0.38750  0.00000  0.75000  Biso   1.000  C
  H14      1.0000 0.33010  0.00000  0.75000  Biso   1.000  H
  C143     1.0000 0.05490  0.50000  0.25000  Biso   1.000  C
  H15      1.0000 0.11230  0.50000  0.25000  Biso   1.000  H
  C144     1.0000 0.88750  0.50000  0.25000  Biso   1.000  C
  H16      1.0000 0.83010  0.50000  0.25000  Biso   1.000  H
  C145     1.0000 0.75000  0.69510  0.00000  Biso   1.000  C
  H17      1.0000 0.75000  0.63770  0.00000  Biso   1.000  H
  C146     1.0000 0.75000  0.86250  0.00000  Biso   1.000  C
  H18      1.0000 0.75000  0.91990  0.00000  Biso   1.000  H
  C147     1.0000 0.25000  0.19510  0.50000  Biso   1.000  C
  H19      1.0000 0.25000  0.13770  0.50000  Biso   1.000  H
  C148     1.0000 0.25000  0.36250  0.50000  Biso   1.000  C
  H20      1.0000 0.25000  0.41990  0.50000  Biso   1.000  H
  C149     1.0000 0.75000  0.30490  0.50000  Biso   1.000  C
  H21      1.0000 0.75000  0.36230  0.50000  Biso   1.000  H
  C150     1.0000 0.75000  0.13750  0.50000  Biso   1.000  C
  H22      1.0000 0.75000  0.08010  0.50000  Biso   1.000  H
  C151     1.0000 0.25000  0.80490  0.00000  Biso   1.000  C
  H23      1.0000 0.25000  0.86230  0.00000  Biso   1.000  H
  C152     1.0000 0.25000  0.63750  0.00000  Biso   1.000  C
  H24      1.0000 0.25000  0.58010  0.00000  Biso   1.000  H
  C153     1.0000 0.05490  0.00000  0.75000  Biso   1.000  C
  H25      1.0000 0.11230  0.00000  0.75000  Biso   1.000  H
  C154     1.0000 0.88750  0.00000  0.75000  Biso   1.000  C
  H26      1.0000 0.83010  0.00000  0.75000  Biso   1.000  H
  C155     1.0000 0.55490  0.50000  0.25000  Biso   1.000  C
  H27      1.0000 0.61230  0.50000  0.25000  Biso   1.000  H
  C156     1.0000 0.38750  0.50000  0.25000  Biso   1.000  C
  H28      1.0000 0.33010  0.50000  0.25000  Biso   1.000  H
  C157     1.0000 0.44510  0.00000  0.25000  Biso   1.000  C
  H29      1.0000 0.38770  0.00000  0.25000  Biso   1.000  H
  C158     1.0000 0.61250  0.00000  0.25000  Biso   1.000  C
  H30      1.0000 0.66990  0.00000  0.25000  Biso   1.000  H
  C159     1.0000 0.94510  0.50000  0.75000  Biso   1.000  C
  H31      1.0000 0.88770  0.50000  0.75000  Biso   1.000  H
  C160     1.0000 0.11250  0.50000  0.75000  Biso   1.000  C
  H32      1.0000 0.16990  0.50000  0.75000  Biso   1.000  H
  Zn1      1.0000 0.22251  0.47251  0.12500  Biso   1.000  Zn
  Zn2      1.0000 0.72251  0.97251  0.62500  Biso   1.000  Zn
  Zn3      1.0000 0.27749  0.52749  0.62500  Biso   1.000  Zn
  Zn4      1.0000 0.77749  0.97251  0.37500  Biso   1.000  Zn
  Zn5      1.0000 0.72251  0.02749  0.87500  Biso   1.000  Zn
  Zn6      1.0000 0.27749  0.47251  0.87500  Biso   1.000  Zn
  Zn7      1.0000 0.22251  0.52749  0.37500  Biso   1.000  Zn
  Zn8      1.0000 0.77749  0.02749  0.12500  Biso   1.000  Zn
  Zn9      1.0000 0.77749  0.52749  0.87500  Biso   1.000  Zn
  Zn10     1.0000 0.27749  0.02749  0.37500  Biso   1.000  Zn
  Zn11     1.0000 0.72251  0.47251  0.37500  Biso   1.000  Zn
  Zn12     1.0000 0.22251  0.97251  0.87500  Biso   1.000  Zn
  Zn13     1.0000 0.22251  0.02749  0.62500  Biso   1.000  Zn
  Zn14     1.0000 0.27749  0.97251  0.12500  Biso   1.000  Zn
  Zn15     1.0000 0.72251  0.52749  0.12500  Biso   1.000  Zn
  Zn16     1.0000 0.77749  0.47251  0.62500  Biso   1.000  Zn
