data_image0
_cell_length_a       12.798
_cell_length_b       20.613
_cell_length_c       18.8901
_cell_angle_alpha    104.45
_cell_angle_beta     90
_cell_angle_gamma    90

_symmetry_space_group_name_H-M    P 1
_symmetry_int_tables_number       1

loop_
  _symmetry_equiv_pos_as_xyz
  'x, y, z'

loop_
  _atom_site_label
  _atom_site_occupancy
  _atom_site_fract_x
  _atom_site_fract_y
  _atom_site_fract_z
  _atom_site_thermal_displace_type
  _atom_site_B_iso_or_equiv
  _atom_site_type_symbol
  Cd1      1.0000 0.50343  0.70096  0.07787  Biso   1.000  Cd
  Cd2      1.0000 0.99657  0.70096  0.57787  Biso   1.000  Cd
  H1       1.0000 0.06330  0.34520  0.24520  Biso   1.000  H
  H2       1.0000 0.15110  0.44120  0.30050  Biso   1.000  H
  H3       1.0000 0.10320  0.51210  0.12460  Biso   1.000  H
  H4       1.0000 0.02260  0.41470  0.06710  Biso   1.000  H
  H5       1.0000 0.90020  0.02960  0.07460  Biso   1.000  H
  H6       1.0000 0.86410  0.91820  0.02180  Biso   1.000  H
  H7       1.0000 0.77840  0.96830  0.84140  Biso   1.000  H
  H8       1.0000 0.82670  0.07790  0.89270  Biso   1.000  H
  H9       1.0000 0.33550  0.72400  0.20770  Biso   1.000  H
  H10      1.0000 0.22420  0.67510  0.27350  Biso   1.000  H
  H11      1.0000 0.31600  0.49960  0.15050  Biso   1.000  H
  H12      1.0000 0.42380  0.55270  0.08980  Biso   1.000  H
  H13      1.0000 0.21510  0.66900  0.48190  Biso   1.000  H
  H14      1.0000 0.28320  0.61840  0.37100  Biso   1.000  H
  H15      1.0000 0.99670  0.55220  0.30960  Biso   1.000  H
  H16      1.0000 0.94160  0.59860  0.42470  Biso   1.000  H
  H17      1.0000 0.03710  0.82760  0.72220  Biso   1.000  H
  H18      1.0000 0.96760  0.88400  0.83070  Biso   1.000  H
  H19      1.0000 0.71460  0.76960  0.78540  Biso   1.000  H
  H20      1.0000 0.78870  0.71950  0.67710  Biso   1.000  H
  H21      1.0000 0.55050  0.84430  0.05060  Biso   1.000  H
  H22      1.0000 0.63880  0.90330  0.98300  Biso   1.000  H
  H23      1.0000 0.80360  0.73670  0.89710  Biso   1.000  H
  H24      1.0000 0.70520  0.68480  0.96710  Biso   1.000  H
  H25      1.0000 0.43670  0.34520  0.74520  Biso   1.000  H
  H26      1.0000 0.34890  0.44120  0.80050  Biso   1.000  H
  H27      1.0000 0.39680  0.51210  0.62460  Biso   1.000  H
  H28      1.0000 0.47740  0.41470  0.56710  Biso   1.000  H
  H29      1.0000 0.59980  0.02960  0.57460  Biso   1.000  H
  H30      1.0000 0.63590  0.91820  0.52180  Biso   1.000  H
  H31      1.0000 0.72160  0.96830  0.34140  Biso   1.000  H
  H32      1.0000 0.67330  0.07790  0.39270  Biso   1.000  H
  H33      1.0000 0.16450  0.72400  0.70770  Biso   1.000  H
  H34      1.0000 0.27580  0.67510  0.77350  Biso   1.000  H
  H35      1.0000 0.18400  0.49960  0.65050  Biso   1.000  H
  H36      1.0000 0.07620  0.55270  0.58980  Biso   1.000  H
  H37      1.0000 0.28490  0.66900  0.98190  Biso   1.000  H
  H38      1.0000 0.21680  0.61840  0.87100  Biso   1.000  H
  H39      1.0000 0.50330  0.55220  0.80960  Biso   1.000  H
  H40      1.0000 0.55840  0.59860  0.92470  Biso   1.000  H
  H41      1.0000 0.46290  0.82760  0.22220  Biso   1.000  H
  H42      1.0000 0.53240  0.88400  0.33070  Biso   1.000  H
  H43      1.0000 0.78540  0.76960  0.28540  Biso   1.000  H
  H44      1.0000 0.71130  0.71950  0.17710  Biso   1.000  H
  H45      1.0000 0.94950  0.84430  0.55060  Biso   1.000  H
  H46      1.0000 0.86120  0.90330  0.48300  Biso   1.000  H
  H47      1.0000 0.69640  0.73670  0.39710  Biso   1.000  H
  H48      1.0000 0.79480  0.68480  0.46710  Biso   1.000  H
  C1       1.0000 0.98580  0.30670  0.11480  Biso   1.000  C
  C2       1.0000 0.95200  0.25400  0.08790  Biso   1.000  C
  C3       1.0000 0.91720  0.18910  0.05560  Biso   1.000  C
  C4       1.0000 0.89120  0.13350  0.02580  Biso   1.000  C
  C5       1.0000 0.03410  0.36870  0.15010  Biso   1.000  C
  C6       1.0000 0.07250  0.37850  0.22030  Biso   1.000  C
  C7       1.0000 0.12380  0.43600  0.25380  Biso   1.000  C
  C8       1.0000 0.13500  0.48710  0.21760  Biso   1.000  C
  C9       1.0000 0.09620  0.47810  0.14860  Biso   1.000  C
  C10      1.0000 0.04740  0.42020  0.11450  Biso   1.000  C
  C11      1.0000 0.86300  0.06570  0.99240  Biso   1.000  C
  C12      1.0000 0.87570  0.01770  0.02680  Biso   1.000  C
  C13      1.0000 0.85450  0.95010  0.99530  Biso   1.000  C
  C14      1.0000 0.82070  0.93250  0.92710  Biso   1.000  C
  C15      1.0000 0.80560  0.98040  0.88850  Biso   1.000  C
  C16      1.0000 0.83100  0.04630  0.92020  Biso   1.000  C
  C17      1.0000 0.33190  0.67750  0.19590  Biso   1.000  C
  C18      1.0000 0.26380  0.64890  0.23580  Biso   1.000  C
  C19      1.0000 0.25630  0.58100  0.21810  Biso   1.000  C
  C20      1.0000 0.31840  0.54620  0.16330  Biso   1.000  C
  C21      1.0000 0.38310  0.57820  0.12740  Biso   1.000  C
  C22      1.0000 0.17050  0.64420  0.44640  Biso   1.000  C
  C23      1.0000 0.21220  0.61480  0.37980  Biso   1.000  C
  C24      1.0000 0.14750  0.58020  0.32640  Biso   1.000  C
  C25      1.0000 0.04370  0.57520  0.34440  Biso   1.000  C
  C26      1.0000 0.01110  0.60420  0.41300  Biso   1.000  C
  C27      1.0000 0.97090  0.81570  0.73490  Biso   1.000  C
  C28      1.0000 0.92990  0.84910  0.80100  Biso   1.000  C
  C29      1.0000 0.83480  0.83230  0.82450  Biso   1.000  C
  C30      1.0000 0.78110  0.78240  0.77440  Biso   1.000  C
  C31      1.0000 0.82660  0.75260  0.70930  Biso   1.000  C
  C32      1.0000 0.60120  0.82220  0.01830  Biso   1.000  C
  C33      1.0000 0.65570  0.85860  0.97880  Biso   1.000  C
  C34      1.0000 0.73680  0.82840  0.93220  Biso   1.000  C
  C35      1.0000 0.75260  0.76070  0.92790  Biso   1.000  C
  C36      1.0000 0.69160  0.72970  0.96990  Biso   1.000  C
  C37      1.0000 0.51420  0.30670  0.61480  Biso   1.000  C
  C38      1.0000 0.54800  0.25400  0.58790  Biso   1.000  C
  C39      1.0000 0.58280  0.18910  0.55560  Biso   1.000  C
  C40      1.0000 0.60880  0.13350  0.52580  Biso   1.000  C
  C41      1.0000 0.46590  0.36870  0.65010  Biso   1.000  C
  C42      1.0000 0.42750  0.37850  0.72030  Biso   1.000  C
  C43      1.0000 0.37620  0.43600  0.75380  Biso   1.000  C
  C44      1.0000 0.36500  0.48710  0.71760  Biso   1.000  C
  C45      1.0000 0.40380  0.47810  0.64860  Biso   1.000  C
  C46      1.0000 0.45260  0.42020  0.61450  Biso   1.000  C
  C47      1.0000 0.63700  0.06570  0.49240  Biso   1.000  C
  C48      1.0000 0.62430  0.01770  0.52680  Biso   1.000  C
  C49      1.0000 0.64550  0.95010  0.49530  Biso   1.000  C
  C50      1.0000 0.67930  0.93250  0.42710  Biso   1.000  C
  C51      1.0000 0.69440  0.98040  0.38850  Biso   1.000  C
  C52      1.0000 0.66900  0.04630  0.42020  Biso   1.000  C
  C53      1.0000 0.16810  0.67750  0.69590  Biso   1.000  C
  C54      1.0000 0.23620  0.64890  0.73580  Biso   1.000  C
  C55      1.0000 0.24370  0.58100  0.71810  Biso   1.000  C
  C56      1.0000 0.18160  0.54620  0.66330  Biso   1.000  C
  C57      1.0000 0.11690  0.57820  0.62740  Biso   1.000  C
  C58      1.0000 0.32950  0.64420  0.94640  Biso   1.000  C
  C59      1.0000 0.28780  0.61480  0.87980  Biso   1.000  C
  C60      1.0000 0.35250  0.58020  0.82640  Biso   1.000  C
  C61      1.0000 0.45630  0.57520  0.84440  Biso   1.000  C
  C62      1.0000 0.48890  0.60420  0.91300  Biso   1.000  C
  C63      1.0000 0.52910  0.81570  0.23490  Biso   1.000  C
  C64      1.0000 0.57010  0.84910  0.30100  Biso   1.000  C
  C65      1.0000 0.66520  0.83230  0.32450  Biso   1.000  C
  C66      1.0000 0.71890  0.78240  0.27440  Biso   1.000  C
  C67      1.0000 0.67340  0.75260  0.20930  Biso   1.000  C
  C68      1.0000 0.89880  0.82220  0.51830  Biso   1.000  C
  C69      1.0000 0.84430  0.85860  0.47880  Biso   1.000  C
  C70      1.0000 0.76320  0.82840  0.43220  Biso   1.000  C
  C71      1.0000 0.74740  0.76070  0.42790  Biso   1.000  C
  C72      1.0000 0.80840  0.72970  0.46990  Biso   1.000  C
  N1       1.0000 0.18590  0.54840  0.25540  Biso   1.000  N
  N2       1.0000 0.39200  0.64470  0.14280  Biso   1.000  N
  N3       1.0000 0.07210  0.64000  0.46440  Biso   1.000  N
  N4       1.0000 0.79460  0.86410  0.89330  Biso   1.000  N
  N5       1.0000 0.92040  0.76700  0.68820  Biso   1.000  N
  N6       1.0000 0.61600  0.75830  0.01330  Biso   1.000  N
  N7       1.0000 0.31410  0.54840  0.75540  Biso   1.000  N
  N8       1.0000 0.10800  0.64470  0.64280  Biso   1.000  N
  N9       1.0000 0.42790  0.64000  0.96440  Biso   1.000  N
  N10      1.0000 0.70540  0.86410  0.39330  Biso   1.000  N
  N11      1.0000 0.57960  0.76700  0.18820  Biso   1.000  N
  N12      1.0000 0.88400  0.75830  0.51330  Biso   1.000  N
  Cl1      1.0000 0.35790  0.79267  0.08660  Biso   1.000  Cl
  Cl2      1.0000 0.64130  0.60614  0.06536  Biso   1.000  Cl
  Cl3      1.0000 0.14210  0.79267  0.58660  Biso   1.000  Cl
  Cl4      1.0000 0.85870  0.60614  0.56536  Biso   1.000  Cl
  Cd3      1.0000 0.00343  0.29904  0.42213  Biso   1.000  Cd
  Cd4      1.0000 0.49657  0.29904  0.92213  Biso   1.000  Cd
  H49      1.0000 0.56330  0.65480  0.25480  Biso   1.000  H
  H50      1.0000 0.65110  0.55880  0.19950  Biso   1.000  H
  H51      1.0000 0.60320  0.48790  0.37540  Biso   1.000  H
  H52      1.0000 0.52260  0.58530  0.43290  Biso   1.000  H
  H53      1.0000 0.40020  0.97040  0.42540  Biso   1.000  H
  H54      1.0000 0.36410  0.08180  0.47820  Biso   1.000  H
  H55      1.0000 0.27840  0.03170  0.65860  Biso   1.000  H
  H56      1.0000 0.32670  0.92210  0.60730  Biso   1.000  H
  H57      1.0000 0.83550  0.27600  0.29230  Biso   1.000  H
  H58      1.0000 0.72420  0.32490  0.22650  Biso   1.000  H
  H59      1.0000 0.81600  0.50040  0.34950  Biso   1.000  H
  H60      1.0000 0.92380  0.44730  0.41020  Biso   1.000  H
  H61      1.0000 0.71510  0.33100  0.01810  Biso   1.000  H
  H62      1.0000 0.78320  0.38160  0.12900  Biso   1.000  H
  H63      1.0000 0.49670  0.44780  0.19040  Biso   1.000  H
  H64      1.0000 0.44160  0.40140  0.07530  Biso   1.000  H
  H65      1.0000 0.53710  0.17240  0.77780  Biso   1.000  H
  H66      1.0000 0.46760  0.11600  0.66930  Biso   1.000  H
  H67      1.0000 0.21460  0.23040  0.71460  Biso   1.000  H
  H68      1.0000 0.28870  0.28050  0.82290  Biso   1.000  H
  H69      1.0000 0.05050  0.15570  0.44940  Biso   1.000  H
  H70      1.0000 0.13880  0.09670  0.51700  Biso   1.000  H
  H71      1.0000 0.30360  0.26330  0.60290  Biso   1.000  H
  H72      1.0000 0.20520  0.31520  0.53290  Biso   1.000  H
  H73      1.0000 0.93670  0.65480  0.75480  Biso   1.000  H
  H74      1.0000 0.84890  0.55880  0.69950  Biso   1.000  H
  H75      1.0000 0.89680  0.48790  0.87540  Biso   1.000  H
  H76      1.0000 0.97740  0.58530  0.93290  Biso   1.000  H
  H77      1.0000 0.09980  0.97040  0.92540  Biso   1.000  H
  H78      1.0000 0.13590  0.08180  0.97820  Biso   1.000  H
  H79      1.0000 0.22160  0.03170  0.15860  Biso   1.000  H
  H80      1.0000 0.17330  0.92210  0.10730  Biso   1.000  H
  H81      1.0000 0.66450  0.27600  0.79230  Biso   1.000  H
  H82      1.0000 0.77580  0.32490  0.72650  Biso   1.000  H
  H83      1.0000 0.68400  0.50040  0.84950  Biso   1.000  H
  H84      1.0000 0.57620  0.44730  0.91020  Biso   1.000  H
  H85      1.0000 0.78490  0.33100  0.51810  Biso   1.000  H
  H86      1.0000 0.71680  0.38160  0.62900  Biso   1.000  H
  H87      1.0000 0.00330  0.44780  0.69040  Biso   1.000  H
  H88      1.0000 0.05840  0.40140  0.57530  Biso   1.000  H
  H89      1.0000 0.96290  0.17240  0.27780  Biso   1.000  H
  H90      1.0000 0.03240  0.11600  0.16930  Biso   1.000  H
  H91      1.0000 0.28540  0.23040  0.21460  Biso   1.000  H
  H92      1.0000 0.21130  0.28050  0.32290  Biso   1.000  H
  H93      1.0000 0.44950  0.15570  0.94940  Biso   1.000  H
  H94      1.0000 0.36120  0.09670  0.01700  Biso   1.000  H
  H95      1.0000 0.19640  0.26330  0.10290  Biso   1.000  H
  H96      1.0000 0.29480  0.31520  0.03290  Biso   1.000  H
  C73      1.0000 0.48580  0.69330  0.38520  Biso   1.000  C
  C74      1.0000 0.45200  0.74600  0.41210  Biso   1.000  C
  C75      1.0000 0.41720  0.81090  0.44440  Biso   1.000  C
  C76      1.0000 0.39120  0.86650  0.47420  Biso   1.000  C
  C77      1.0000 0.53410  0.63130  0.34990  Biso   1.000  C
  C78      1.0000 0.57250  0.62150  0.27970  Biso   1.000  C
  C79      1.0000 0.62380  0.56400  0.24620  Biso   1.000  C
  C80      1.0000 0.63500  0.51290  0.28240  Biso   1.000  C
  C81      1.0000 0.59620  0.52190  0.35140  Biso   1.000  C
  C82      1.0000 0.54740  0.57980  0.38550  Biso   1.000  C
  C83      1.0000 0.36300  0.93430  0.50760  Biso   1.000  C
  C84      1.0000 0.37570  0.98230  0.47320  Biso   1.000  C
  C85      1.0000 0.35450  0.04990  0.50470  Biso   1.000  C
  C86      1.0000 0.32070  0.06750  0.57290  Biso   1.000  C
  C87      1.0000 0.30560  0.01960  0.61150  Biso   1.000  C
  C88      1.0000 0.33100  0.95370  0.57980  Biso   1.000  C
  C89      1.0000 0.83190  0.32250  0.30410  Biso   1.000  C
  C90      1.0000 0.76380  0.35110  0.26420  Biso   1.000  C
  C91      1.0000 0.75630  0.41900  0.28190  Biso   1.000  C
  C92      1.0000 0.81840  0.45380  0.33670  Biso   1.000  C
  C93      1.0000 0.88310  0.42180  0.37260  Biso   1.000  C
  C94      1.0000 0.67050  0.35580  0.05360  Biso   1.000  C
  C95      1.0000 0.71220  0.38520  0.12020  Biso   1.000  C
  C96      1.0000 0.64750  0.41980  0.17360  Biso   1.000  C
  C97      1.0000 0.54370  0.42480  0.15560  Biso   1.000  C
  C98      1.0000 0.51110  0.39580  0.08700  Biso   1.000  C
  C99      1.0000 0.47090  0.18430  0.76510  Biso   1.000  C
  C100     1.0000 0.42990  0.15090  0.69900  Biso   1.000  C
  C101     1.0000 0.33480  0.16770  0.67550  Biso   1.000  C
  C102     1.0000 0.28110  0.21760  0.72560  Biso   1.000  C
  C103     1.0000 0.32660  0.24740  0.79070  Biso   1.000  C
  C104     1.0000 0.10120  0.17780  0.48170  Biso   1.000  C
  C105     1.0000 0.15570  0.14140  0.52120  Biso   1.000  C
  C106     1.0000 0.23680  0.17160  0.56780  Biso   1.000  C
  C107     1.0000 0.25260  0.23930  0.57210  Biso   1.000  C
  C108     1.0000 0.19160  0.27030  0.53010  Biso   1.000  C
  C109     1.0000 0.01420  0.69330  0.88520  Biso   1.000  C
  C110     1.0000 0.04800  0.74600  0.91210  Biso   1.000  C
  C111     1.0000 0.08280  0.81090  0.94440  Biso   1.000  C
  C112     1.0000 0.10880  0.86650  0.97420  Biso   1.000  C
  C113     1.0000 0.96590  0.63130  0.84990  Biso   1.000  C
  C114     1.0000 0.92750  0.62150  0.77970  Biso   1.000  C
  C115     1.0000 0.87620  0.56400  0.74620  Biso   1.000  C
  C116     1.0000 0.86500  0.51290  0.78240  Biso   1.000  C
  C117     1.0000 0.90380  0.52190  0.85140  Biso   1.000  C
  C118     1.0000 0.95260  0.57980  0.88550  Biso   1.000  C
  C119     1.0000 0.13700  0.93430  0.00760  Biso   1.000  C
  C120     1.0000 0.12430  0.98230  0.97320  Biso   1.000  C
  C121     1.0000 0.14550  0.04990  0.00470  Biso   1.000  C
  C122     1.0000 0.17930  0.06750  0.07290  Biso   1.000  C
  C123     1.0000 0.19440  0.01960  0.11150  Biso   1.000  C
  C124     1.0000 0.16900  0.95370  0.07980  Biso   1.000  C
  C125     1.0000 0.66810  0.32250  0.80410  Biso   1.000  C
  C126     1.0000 0.73620  0.35110  0.76420  Biso   1.000  C
  C127     1.0000 0.74370  0.41900  0.78190  Biso   1.000  C
  C128     1.0000 0.68160  0.45380  0.83670  Biso   1.000  C
  C129     1.0000 0.61690  0.42180  0.87260  Biso   1.000  C
  C130     1.0000 0.82950  0.35580  0.55360  Biso   1.000  C
  C131     1.0000 0.78780  0.38520  0.62020  Biso   1.000  C
  C132     1.0000 0.85250  0.41980  0.67360  Biso   1.000  C
  C133     1.0000 0.95630  0.42480  0.65560  Biso   1.000  C
  C134     1.0000 0.98890  0.39580  0.58700  Biso   1.000  C
  C135     1.0000 0.02910  0.18430  0.26510  Biso   1.000  C
  C136     1.0000 0.07010  0.15090  0.19900  Biso   1.000  C
  C137     1.0000 0.16520  0.16770  0.17550  Biso   1.000  C
  C138     1.0000 0.21890  0.21760  0.22560  Biso   1.000  C
  C139     1.0000 0.17340  0.24740  0.29070  Biso   1.000  C
  C140     1.0000 0.39880  0.17780  0.98170  Biso   1.000  C
  C141     1.0000 0.34430  0.14140  0.02120  Biso   1.000  C
  C142     1.0000 0.26320  0.17160  0.06780  Biso   1.000  C
  C143     1.0000 0.24740  0.23930  0.07210  Biso   1.000  C
  C144     1.0000 0.30840  0.27030  0.03010  Biso   1.000  C
  N13      1.0000 0.68590  0.45160  0.24460  Biso   1.000  N
  N14      1.0000 0.89200  0.35530  0.35720  Biso   1.000  N
  N15      1.0000 0.57210  0.36000  0.03560  Biso   1.000  N
  N16      1.0000 0.29460  0.13590  0.60670  Biso   1.000  N
  N17      1.0000 0.42040  0.23300  0.81180  Biso   1.000  N
  N18      1.0000 0.11600  0.24170  0.48670  Biso   1.000  N
  N19      1.0000 0.81410  0.45160  0.74460  Biso   1.000  N
  N20      1.0000 0.60800  0.35530  0.85720  Biso   1.000  N
  N21      1.0000 0.92790  0.36000  0.53560  Biso   1.000  N
  N22      1.0000 0.20540  0.13590  0.10670  Biso   1.000  N
  N23      1.0000 0.07960  0.23300  0.31180  Biso   1.000  N
  N24      1.0000 0.38400  0.24170  0.98670  Biso   1.000  N
  Cl5      1.0000 0.85790  0.20733  0.41340  Biso   1.000  Cl
  Cl6      1.0000 0.14130  0.39386  0.43464  Biso   1.000  Cl
  Cl7      1.0000 0.64210  0.20733  0.91340  Biso   1.000  Cl
  Cl8      1.0000 0.35870  0.39386  0.93464  Biso   1.000  Cl
