data_image0
_cell_length_a       10.1093
_cell_length_b       13.057
_cell_length_c       24.359
_cell_angle_alpha    85.542
_cell_angle_beta     85.314
_cell_angle_gamma    80.749

_symmetry_space_group_name_H-M    P 1
_symmetry_int_tables_number       1

loop_
  _symmetry_equiv_pos_as_xyz
  'x, y, z'

loop_
  _atom_site_label
  _atom_site_occupancy
  _atom_site_fract_x
  _atom_site_fract_y
  _atom_site_fract_z
  _atom_site_thermal_displace_type
  _atom_site_B_iso_or_equiv
  _atom_site_type_symbol
  Cd1      1.0000 0.36366  0.54459  0.58310  Biso   1.000  Cd
  Cd2      1.0000 0.07343  0.40745  0.57777  Biso   1.000  Cd
  Cd3      1.0000 0.85158  0.67869  0.60729  Biso   1.000  Cd
  Cd4      1.0000 0.63634  0.45541  0.41690  Biso   1.000  Cd
  Cd5      1.0000 0.92657  0.59255  0.42223  Biso   1.000  Cd
  Cd6      1.0000 0.14842  0.32131  0.39271  Biso   1.000  Cd
  H1       1.0000 0.14170  0.02620  0.80100  Biso   1.000  H
  H2       1.0000 0.20830  0.03930  0.89010  Biso   1.000  H
  H3       1.0000 0.58190  0.92070  0.84140  Biso   1.000  H
  H4       1.0000 0.51770  0.91790  0.75320  Biso   1.000  H
  H5       1.0000 0.42410  0.77030  0.57310  Biso   1.000  H
  H6       1.0000 0.38720  0.92740  0.61180  Biso   1.000  H
  H7       1.0000 0.26340  0.78110  0.75360  Biso   1.000  H
  H8       1.0000 0.30540  0.62850  0.70970  Biso   1.000  H
  H9       1.0000 0.20290  0.31130  0.68780  Biso   1.000  H
  H10      1.0000 0.28780  0.16180  0.73620  Biso   1.000  H
  H11      1.0000 0.15360  0.00510  0.62200  Biso   1.000  H
  H12      1.0000 0.08500  0.15960  0.57580  Biso   1.000  H
  H13      1.0000 0.86640  0.10100  0.86640  Biso   1.000  H
  H14      1.0000 0.76290  0.05000  0.79370  Biso   1.000  H
  H15      1.0000 0.86030  0.29670  0.70010  Biso   1.000  H
  H16      1.0000 0.96320  0.34890  0.77220  Biso   1.000  H
  H17      1.0000 0.41710  0.36450  0.99200  Biso   1.000  H
  H18      1.0000 0.52600  0.42040  0.06390  Biso   1.000  H
  H19      1.0000 0.16820  0.48880  0.14680  Biso   1.000  H
  H20      1.0000 0.06310  0.43490  0.07500  Biso   1.000  H
  H21      1.0000 0.39670  0.40340  0.69400  Biso   1.000  H
  H22      1.0000 0.52300  0.25830  0.73480  Biso   1.000  H
  H23      1.0000 0.74200  0.22240  0.59200  Biso   1.000  H
  H24      1.0000 0.61310  0.36880  0.55550  Biso   1.000  H
  H25      1.0000 0.65340  0.89720  0.59370  Biso   1.000  H
  H26      1.0000 0.60690  0.05880  0.62590  Biso   1.000  H
  H27      1.0000 0.93610  0.99040  0.71000  Biso   1.000  H
  H28      1.0000 0.97600  0.83030  0.67350  Biso   1.000  H
  H29      1.0000 0.28650  0.23260  0.27410  Biso   1.000  H
  H30      1.0000 0.36000  0.29440  0.18870  Biso   1.000  H
  H31      1.0000 0.39510  0.55840  0.25480  Biso   1.000  H
  H32      1.0000 0.32180  0.48900  0.33740  Biso   1.000  H
  H33      1.0000 0.48280  0.80200  0.11190  Biso   1.000  H
  H34      1.0000 0.36900  0.66570  0.10730  Biso   1.000  H
  H35      1.0000 0.64900  0.49470  0.19800  Biso   1.000  H
  H36      1.0000 0.75580  0.63800  0.19560  Biso   1.000  H
  H37      1.0000 0.85830  0.97380  0.19900  Biso   1.000  H
  H38      1.0000 0.79170  0.96070  0.10990  Biso   1.000  H
  H39      1.0000 0.41810  0.07930  0.15860  Biso   1.000  H
  H40      1.0000 0.48230  0.08210  0.24680  Biso   1.000  H
  H41      1.0000 0.57590  0.22970  0.42690  Biso   1.000  H
  H42      1.0000 0.61280  0.07260  0.38820  Biso   1.000  H
  H43      1.0000 0.73660  0.21890  0.24640  Biso   1.000  H
  H44      1.0000 0.69460  0.37150  0.29030  Biso   1.000  H
  H45      1.0000 0.79710  0.68870  0.31220  Biso   1.000  H
  H46      1.0000 0.71220  0.83820  0.26380  Biso   1.000  H
  H47      1.0000 0.84640  0.99490  0.37800  Biso   1.000  H
  H48      1.0000 0.91500  0.84040  0.42420  Biso   1.000  H
  H49      1.0000 0.13360  0.89900  0.13360  Biso   1.000  H
  H50      1.0000 0.23710  0.95000  0.20630  Biso   1.000  H
  H51      1.0000 0.13970  0.70330  0.29990  Biso   1.000  H
  H52      1.0000 0.03680  0.65110  0.22780  Biso   1.000  H
  H53      1.0000 0.58290  0.63550  0.00800  Biso   1.000  H
  H54      1.0000 0.47400  0.57960  0.93610  Biso   1.000  H
  H55      1.0000 0.83180  0.51120  0.85320  Biso   1.000  H
  H56      1.0000 0.93690  0.56510  0.92500  Biso   1.000  H
  H57      1.0000 0.60330  0.59660  0.30600  Biso   1.000  H
  H58      1.0000 0.47700  0.74170  0.26520  Biso   1.000  H
  H59      1.0000 0.25800  0.77760  0.40800  Biso   1.000  H
  H60      1.0000 0.38690  0.63120  0.44450  Biso   1.000  H
  H61      1.0000 0.34660  0.10280  0.40630  Biso   1.000  H
  H62      1.0000 0.39310  0.94120  0.37410  Biso   1.000  H
  H63      1.0000 0.06390  0.00960  0.29000  Biso   1.000  H
  H64      1.0000 0.02400  0.16970  0.32650  Biso   1.000  H
  H65      1.0000 0.71350  0.76740  0.72590  Biso   1.000  H
  H66      1.0000 0.64000  0.70560  0.81130  Biso   1.000  H
  H67      1.0000 0.60490  0.44160  0.74520  Biso   1.000  H
  H68      1.0000 0.67820  0.51100  0.66260  Biso   1.000  H
  H69      1.0000 0.51720  0.19800  0.88810  Biso   1.000  H
  H70      1.0000 0.63100  0.33430  0.89270  Biso   1.000  H
  H71      1.0000 0.35100  0.50530  0.80200  Biso   1.000  H
  H72      1.0000 0.24420  0.36200  0.80440  Biso   1.000  H
  C1       1.0000 0.44450  0.98740  0.92860  Biso   1.000  C
  C2       1.0000 0.47870  0.99490  0.97290  Biso   1.000  C
  C3       1.0000 0.32400  0.97100  0.76790  Biso   1.000  C
  C4       1.0000 0.23130  0.00640  0.80860  Biso   1.000  C
  C5       1.0000 0.27130  0.01320  0.86260  Biso   1.000  C
  C6       1.0000 0.40240  0.98140  0.87420  Biso   1.000  C
  C7       1.0000 0.49310  0.94420  0.83370  Biso   1.000  C
  C8       1.0000 0.45350  0.94120  0.78080  Biso   1.000  C
  C9       1.0000 0.39080  0.77300  0.60980  Biso   1.000  C
  C10      1.0000 0.36830  0.86810  0.63270  Biso   1.000  C
  C11      1.0000 0.31660  0.87450  0.68760  Biso   1.000  C
  C12      1.0000 0.29500  0.78150  0.71670  Biso   1.000  C
  C13      1.0000 0.32110  0.68970  0.68990  Biso   1.000  C
  C14      1.0000 0.19650  0.24820  0.67370  Biso   1.000  C
  C15      1.0000 0.24720  0.15840  0.70370  Biso   1.000  C
  C16      1.0000 0.23680  0.06280  0.68440  Biso   1.000  C
  C17      1.0000 0.16900  0.06640  0.63570  Biso   1.000  C
  C18      1.0000 0.12600  0.15980  0.60860  Biso   1.000  C
  C19      1.0000 0.98590  0.26430  0.87210  Biso   1.000  C
  C20      1.0000 0.04190  0.29440  0.90700  Biso   1.000  C
  C21      1.0000 0.10620  0.33100  0.94720  Biso   1.000  C
  C22      1.0000 0.16320  0.36170  0.98220  Biso   1.000  C
  C23      1.0000 0.92280  0.23260  0.82690  Biso   1.000  C
  C24      1.0000 0.86390  0.14080  0.83300  Biso   1.000  C
  C25      1.0000 0.80270  0.10980  0.78960  Biso   1.000  C
  C26      1.0000 0.80150  0.16910  0.74000  Biso   1.000  C
  C27      1.0000 0.86130  0.25790  0.73370  Biso   1.000  C
  C28      1.0000 0.92250  0.28950  0.77700  Biso   1.000  C
  C29      1.0000 0.22860  0.39760  0.02540  Biso   1.000  C
  C30      1.0000 0.36650  0.39050  0.02300  Biso   1.000  C
  C31      1.0000 0.43340  0.42180  0.06660  Biso   1.000  C
  C32      1.0000 0.35590  0.45410  0.11270  Biso   1.000  C
  C33      1.0000 0.21890  0.46280  0.11590  Biso   1.000  C
  C34      1.0000 0.15590  0.43200  0.07220  Biso   1.000  C
  C35      1.0000 0.46790  0.36700  0.67330  Biso   1.000  C
  C36      1.0000 0.54370  0.27990  0.69830  Biso   1.000  C
  C37      1.0000 0.64860  0.22690  0.66820  Biso   1.000  C
  C38      1.0000 0.67340  0.25900  0.61380  Biso   1.000  C
  C39      1.0000 0.59460  0.34640  0.59210  Biso   1.000  C
  C40      1.0000 0.71170  0.91630  0.61730  Biso   1.000  C
  C41      1.0000 0.68220  0.01360  0.63700  Biso   1.000  C
  C42      1.0000 0.76350  0.04450  0.67300  Biso   1.000  C
  C43      1.0000 0.87660  0.97320  0.68630  Biso   1.000  C
  C44      1.0000 0.90010  0.87670  0.66420  Biso   1.000  C
  C45      1.0000 0.30720  0.29980  0.27010  Biso   1.000  C
  C46      1.0000 0.35120  0.33620  0.21850  Biso   1.000  C
  C47      1.0000 0.38230  0.43600  0.21140  Biso   1.000  C
  C48      1.0000 0.37200  0.49200  0.25740  Biso   1.000  C
  C49      1.0000 0.32770  0.44930  0.30700  Biso   1.000  C
  C50      1.0000 0.51780  0.73830  0.12890  Biso   1.000  C
  C51      1.0000 0.44630  0.65740  0.12650  Biso   1.000  C
  C52      1.0000 0.49410  0.56350  0.15370  Biso   1.000  C
  C53      1.0000 0.61260  0.55670  0.17970  Biso   1.000  C
  C54      1.0000 0.67650  0.64370  0.17800  Biso   1.000  C
  C55      1.0000 0.55550  0.01260  0.07140  Biso   1.000  C
  C56      1.0000 0.52130  0.00510  0.02710  Biso   1.000  C
  C57      1.0000 0.67600  0.02900  0.23210  Biso   1.000  C
  C58      1.0000 0.76870  0.99360  0.19140  Biso   1.000  C
  C59      1.0000 0.72870  0.98680  0.13740  Biso   1.000  C
  C60      1.0000 0.59760  0.01860  0.12580  Biso   1.000  C
  C61      1.0000 0.50690  0.05580  0.16630  Biso   1.000  C
  C62      1.0000 0.54650  0.05880  0.21920  Biso   1.000  C
  C63      1.0000 0.60920  0.22700  0.39020  Biso   1.000  C
  C64      1.0000 0.63170  0.13190  0.36730  Biso   1.000  C
  C65      1.0000 0.68340  0.12550  0.31240  Biso   1.000  C
  C66      1.0000 0.70500  0.21850  0.28330  Biso   1.000  C
  C67      1.0000 0.67890  0.31030  0.31010  Biso   1.000  C
  C68      1.0000 0.80350  0.75180  0.32630  Biso   1.000  C
  C69      1.0000 0.75280  0.84160  0.29630  Biso   1.000  C
  C70      1.0000 0.76320  0.93720  0.31560  Biso   1.000  C
  C71      1.0000 0.83100  0.93360  0.36430  Biso   1.000  C
  C72      1.0000 0.87400  0.84020  0.39140  Biso   1.000  C
  C73      1.0000 0.01410  0.73570  0.12790  Biso   1.000  C
  C74      1.0000 0.95810  0.70560  0.09300  Biso   1.000  C
  C75      1.0000 0.89380  0.66900  0.05280  Biso   1.000  C
  C76      1.0000 0.83680  0.63830  0.01780  Biso   1.000  C
  C77      1.0000 0.07720  0.76740  0.17310  Biso   1.000  C
  C78      1.0000 0.13610  0.85920  0.16700  Biso   1.000  C
  C79      1.0000 0.19730  0.89020  0.21040  Biso   1.000  C
  C80      1.0000 0.19850  0.83090  0.26000  Biso   1.000  C
  C81      1.0000 0.13870  0.74210  0.26630  Biso   1.000  C
  C82      1.0000 0.07750  0.71050  0.22300  Biso   1.000  C
  C83      1.0000 0.77140  0.60240  0.97460  Biso   1.000  C
  C84      1.0000 0.63350  0.60950  0.97700  Biso   1.000  C
  C85      1.0000 0.56660  0.57820  0.93340  Biso   1.000  C
  C86      1.0000 0.64410  0.54590  0.88730  Biso   1.000  C
  C87      1.0000 0.78110  0.53720  0.88410  Biso   1.000  C
  C88      1.0000 0.84410  0.56800  0.92780  Biso   1.000  C
  C89      1.0000 0.53210  0.63300  0.32670  Biso   1.000  C
  C90      1.0000 0.45630  0.72010  0.30170  Biso   1.000  C
  C91      1.0000 0.35140  0.77310  0.33180  Biso   1.000  C
  C92      1.0000 0.32660  0.74100  0.38620  Biso   1.000  C
  C93      1.0000 0.40540  0.65360  0.40790  Biso   1.000  C
  C94      1.0000 0.28830  0.08370  0.38270  Biso   1.000  C
  C95      1.0000 0.31780  0.98640  0.36300  Biso   1.000  C
  C96      1.0000 0.23650  0.95550  0.32700  Biso   1.000  C
  C97      1.0000 0.12340  0.02680  0.31370  Biso   1.000  C
  C98      1.0000 0.09990  0.12330  0.33580  Biso   1.000  C
  C99      1.0000 0.69280  0.70020  0.72990  Biso   1.000  C
  C100     1.0000 0.64880  0.66380  0.78150  Biso   1.000  C
  C101     1.0000 0.61770  0.56400  0.78860  Biso   1.000  C
  C102     1.0000 0.62800  0.50800  0.74260  Biso   1.000  C
  C103     1.0000 0.67230  0.55070  0.69300  Biso   1.000  C
  C104     1.0000 0.48220  0.26170  0.87110  Biso   1.000  C
  C105     1.0000 0.55370  0.34260  0.87350  Biso   1.000  C
  C106     1.0000 0.50590  0.43650  0.84630  Biso   1.000  C
  C107     1.0000 0.38740  0.44330  0.82030  Biso   1.000  C
  C108     1.0000 0.32350  0.35630  0.82200  Biso   1.000  C
  S1       1.0000 0.06630  0.52994  0.67910  Biso   1.000  S
  S2       1.0000 0.08578  0.66566  0.51793  Biso   1.000  S
  S3       1.0000 0.33564  0.37793  0.48013  Biso   1.000  S
  S4       1.0000 0.93370  0.47006  0.32090  Biso   1.000  S
  S5       1.0000 0.91422  0.33434  0.48207  Biso   1.000  S
  S6       1.0000 0.66436  0.62207  0.51987  Biso   1.000  S
  N1       1.0000 0.28670  0.96990  0.71280  Biso   1.000  N
  N2       1.0000 0.36760  0.68490  0.63720  Biso   1.000  N
  N3       1.0000 0.13930  0.25170  0.62640  Biso   1.000  N
  N4       1.0000 0.73530  0.14150  0.69460  Biso   1.000  N
  N5       1.0000 0.49320  0.40010  0.62120  Biso   1.000  N
  N6       1.0000 0.81870  0.84750  0.63010  Biso   1.000  N
  N7       1.0000 0.41960  0.47750  0.15860  Biso   1.000  N
  N8       1.0000 0.29230  0.35520  0.31530  Biso   1.000  N
  N9       1.0000 0.63000  0.73400  0.15270  Biso   1.000  N
  N10      1.0000 0.71330  0.03010  0.28720  Biso   1.000  N
  N11      1.0000 0.63240  0.31510  0.36280  Biso   1.000  N
  N12      1.0000 0.86070  0.74830  0.37360  Biso   1.000  N
  N13      1.0000 0.26470  0.85850  0.30540  Biso   1.000  N
  N14      1.0000 0.50680  0.59990  0.37880  Biso   1.000  N
  N15      1.0000 0.18130  0.15250  0.36990  Biso   1.000  N
  N16      1.0000 0.58040  0.52250  0.84140  Biso   1.000  N
  N17      1.0000 0.70770  0.64480  0.68470  Biso   1.000  N
  N18      1.0000 0.37000  0.26600  0.84730  Biso   1.000  N
  O1       1.0000 0.19460  0.49660  0.64598  Biso   1.000  O
  O2       1.0000 0.96520  0.47330  0.65871  Biso   1.000  O
  O3       1.0000 0.02270  0.64190  0.66890  Biso   1.000  O
  O4       1.0000 0.08620  0.50360  0.73690  Biso   1.000  O
  O5       1.0000 0.22670  0.65640  0.52924  Biso   1.000  O
  O6       1.0000 0.02040  0.57960  0.54590  Biso   1.000  O
  O7       1.0000 0.00980  0.76110  0.53790  Biso   1.000  O
  O8       1.0000 0.07650  0.66540  0.45807  Biso   1.000  O
  O9       1.0000 0.27390  0.41970  0.53271  Biso   1.000  O
  O10      1.0000 0.26410  0.43460  0.43350  Biso   1.000  O
  O11      1.0000 0.32060  0.27200  0.47800  Biso   1.000  O
  O12      1.0000 0.47190  0.39710  0.47430  Biso   1.000  O
  O13      1.0000 0.80540  0.50340  0.35402  Biso   1.000  O
  O14      1.0000 0.03480  0.52670  0.34129  Biso   1.000  O
  O15      1.0000 0.97730  0.35810  0.33110  Biso   1.000  O
  O16      1.0000 0.91380  0.49640  0.26310  Biso   1.000  O
  O17      1.0000 0.77330  0.34360  0.47076  Biso   1.000  O
  O18      1.0000 0.97960  0.42040  0.45410  Biso   1.000  O
  O19      1.0000 0.99020  0.23890  0.46210  Biso   1.000  O
  O20      1.0000 0.92350  0.33460  0.54193  Biso   1.000  O
  O21      1.0000 0.72610  0.58030  0.46729  Biso   1.000  O
  O22      1.0000 0.73590  0.56540  0.56650  Biso   1.000  O
  O23      1.0000 0.67940  0.72800  0.52200  Biso   1.000  O
  O24      1.0000 0.52810  0.60290  0.52570  Biso   1.000  O
