data_image0
_cell_length_a       17.5575
_cell_length_b       17.5575
_cell_length_c       17.5575
_cell_angle_alpha    108.339
_cell_angle_beta     110.04
_cell_angle_gamma    110.04

_symmetry_space_group_name_H-M    P 1
_symmetry_int_tables_number       1

loop_
  _symmetry_equiv_pos_as_xyz
  'x, y, z'

loop_
  _atom_site_label
  _atom_site_occupancy
  _atom_site_fract_x
  _atom_site_fract_y
  _atom_site_fract_z
  _atom_site_thermal_displace_type
  _atom_site_B_iso_or_equiv
  _atom_site_type_symbol
  Cu1      1.0000 0.47032  0.04468  0.04716  Biso   1.000  Cu
  Cu2      1.0000 0.52968  0.57684  0.57436  Biso   1.000  Cu
  Cu3      1.0000 0.99752  0.42316  0.95284  Biso   1.000  Cu
  Cu4      1.0000 0.00248  0.95532  0.42564  Biso   1.000  Cu
  Cu5      1.0000 0.52968  0.95532  0.95284  Biso   1.000  Cu
  Cu6      1.0000 0.47032  0.42316  0.42564  Biso   1.000  Cu
  Cu7      1.0000 0.00248  0.57684  0.04716  Biso   1.000  Cu
  Cu8      1.0000 0.99752  0.04468  0.57436  Biso   1.000  Cu
  Cu9      1.0000 0.06600  0.50000  0.56600  Biso   1.000  Cu
  Cu10     1.0000 0.93400  0.50000  0.43400  Biso   1.000  Cu
  Cu11     1.0000 0.43440  0.43440  1.00000  Biso   1.000  Cu
  Cu12     1.0000 0.56560  0.56560  0.00000  Biso   1.000  Cu
  H1       1.0000 0.45440  0.74660  0.99620  Biso   1.000  H
  H2       1.0000 0.66290  0.88840  0.14570  Biso   1.000  H
  H3       1.0000 0.73640  0.20090  0.26410  Biso   1.000  H
  H4       1.0000 0.23630  0.83700  0.99290  Biso   1.000  H
  H5       1.0000 0.54560  0.54180  0.29220  Biso   1.000  H
  H6       1.0000 0.33710  0.48280  0.22550  Biso   1.000  H
  H7       1.0000 0.26360  0.52770  0.46450  Biso   1.000  H
  H8       1.0000 0.76370  0.75660  0.60070  Biso   1.000  H
  H9       1.0000 0.75040  0.45820  0.00380  Biso   1.000  H
  H10      1.0000 0.74270  0.51720  0.85430  Biso   1.000  H
  H11      1.0000 0.93680  0.47230  0.73590  Biso   1.000  H
  H12      1.0000 0.84410  0.24340  0.00710  Biso   1.000  H
  H13      1.0000 0.24960  0.25340  0.70780  Biso   1.000  H
  H14      1.0000 0.25730  0.11160  0.77450  Biso   1.000  H
  H15      1.0000 0.06320  0.79910  0.53550  Biso   1.000  H
  H16      1.0000 0.15590  0.16300  0.39930  Biso   1.000  H
  H17      1.0000 0.54560  0.25340  0.00380  Biso   1.000  H
  H18      1.0000 0.33710  0.11160  0.85430  Biso   1.000  H
  H19      1.0000 0.26360  0.79910  0.73590  Biso   1.000  H
  H20      1.0000 0.76370  0.16300  0.00710  Biso   1.000  H
  H21      1.0000 0.45440  0.45820  0.70780  Biso   1.000  H
  H22      1.0000 0.66290  0.51720  0.77450  Biso   1.000  H
  H23      1.0000 0.73640  0.47230  0.53550  Biso   1.000  H
  H24      1.0000 0.23630  0.24340  0.39930  Biso   1.000  H
  H25      1.0000 0.24960  0.54180  0.99620  Biso   1.000  H
  H26      1.0000 0.25730  0.48280  0.14570  Biso   1.000  H
  H27      1.0000 0.06320  0.52770  0.26410  Biso   1.000  H
  H28      1.0000 0.15590  0.75660  0.99290  Biso   1.000  H
  H29      1.0000 0.75040  0.74660  0.29220  Biso   1.000  H
  H30      1.0000 0.74270  0.88840  0.22550  Biso   1.000  H
  H31      1.0000 0.93680  0.20090  0.46450  Biso   1.000  H
  H32      1.0000 0.84410  0.83700  0.60070  Biso   1.000  H
  C1       1.0000 0.34580  0.76580  0.99020  Biso   1.000  C
  C2       1.0000 0.39540  0.72060  0.99280  Biso   1.000  C
  C3       1.0000 0.39290  0.85100  0.98530  Biso   1.000  C
  C4       1.0000 0.72720  0.07970  0.23410  Biso   1.000  C
  C5       1.0000 0.76760  0.16940  0.28180  Biso   1.000  C
  C6       1.0000 0.63260  0.02920  0.14120  Biso   1.000  C
  C7       1.0000 0.65420  0.64440  0.42000  Biso   1.000  C
  C8       1.0000 0.60460  0.59740  0.32520  Biso   1.000  C
  C9       1.0000 0.60710  0.59240  0.45810  Biso   1.000  C
  C10      1.0000 0.27280  0.50690  0.35250  Biso   1.000  C
  C11      1.0000 0.23240  0.51420  0.40180  Biso   1.000  C
  C12      1.0000 0.36740  0.50860  0.39660  Biso   1.000  C
  C13      1.0000 0.77560  0.35560  0.00980  Biso   1.000  C
  C14      1.0000 0.72780  0.40260  0.00720  Biso   1.000  C
  C15      1.0000 0.86570  0.40760  0.01470  Biso   1.000  C
  C16      1.0000 0.84560  0.49310  0.76590  Biso   1.000  C
  C17      1.0000 0.88760  0.48580  0.71820  Biso   1.000  C
  C18      1.0000 0.88800  0.49140  0.85880  Biso   1.000  C
  C19      1.0000 0.22440  0.23420  0.58000  Biso   1.000  C
  C20      1.0000 0.27220  0.27940  0.67480  Biso   1.000  C
  C21      1.0000 0.13430  0.14900  0.54190  Biso   1.000  C
  C22      1.0000 0.15440  0.92030  0.64750  Biso   1.000  C
  C23      1.0000 0.11240  0.83060  0.59820  Biso   1.000  C
  C24      1.0000 0.11200  0.97080  0.60340  Biso   1.000  C
  C25      1.0000 0.65420  0.23420  0.00980  Biso   1.000  C
  C26      1.0000 0.60460  0.27940  0.00720  Biso   1.000  C
  C27      1.0000 0.60710  0.14900  0.01470  Biso   1.000  C
  C28      1.0000 0.27280  0.92030  0.76590  Biso   1.000  C
  C29      1.0000 0.23240  0.83060  0.71820  Biso   1.000  C
  C30      1.0000 0.36740  0.97080  0.85880  Biso   1.000  C
  C31      1.0000 0.34580  0.35560  0.58000  Biso   1.000  C
  C32      1.0000 0.39540  0.40260  0.67480  Biso   1.000  C
  C33      1.0000 0.39290  0.40760  0.54190  Biso   1.000  C
  C34      1.0000 0.72720  0.49310  0.64750  Biso   1.000  C
  C35      1.0000 0.76760  0.48580  0.59820  Biso   1.000  C
  C36      1.0000 0.63260  0.49140  0.60340  Biso   1.000  C
  C37      1.0000 0.22440  0.64440  0.99020  Biso   1.000  C
  C38      1.0000 0.27220  0.59740  0.99280  Biso   1.000  C
  C39      1.0000 0.13430  0.59240  0.98530  Biso   1.000  C
  C40      1.0000 0.15440  0.50690  0.23410  Biso   1.000  C
  C41      1.0000 0.11240  0.51420  0.28180  Biso   1.000  C
  C42      1.0000 0.11200  0.50860  0.14120  Biso   1.000  C
  C43      1.0000 0.77560  0.76580  0.42000  Biso   1.000  C
  C44      1.0000 0.72780  0.72060  0.32520  Biso   1.000  C
  C45      1.0000 0.86570  0.85100  0.45810  Biso   1.000  C
  C46      1.0000 0.84560  0.07970  0.35250  Biso   1.000  C
  C47      1.0000 0.88760  0.16940  0.40180  Biso   1.000  C
  C48      1.0000 0.88800  0.02920  0.39660  Biso   1.000  C
  C49      1.0000 0.75680  0.02430  0.26750  Biso   1.000  C
  C50      1.0000 0.69900  0.91250  0.21350  Biso   1.000  C
  C51      1.0000 0.63400  0.88200  0.24800  Biso   1.000  C
  C52      1.0000 0.85890  0.21940  0.36050  Biso   1.000  C
  C53      1.0000 0.91230  0.32640  0.41410  Biso   1.000  C
  C54      1.0000 0.24320  0.51070  0.26750  Biso   1.000  C
  C55      1.0000 0.30100  0.51450  0.21350  Biso   1.000  C
  C56      1.0000 0.36600  0.61400  0.24800  Biso   1.000  C
  C57      1.0000 0.14110  0.50160  0.36050  Biso   1.000  C
  C58      1.0000 0.08770  0.50180  0.41410  Biso   1.000  C
  C59      1.0000 0.75680  0.48930  0.73250  Biso   1.000  C
  C60      1.0000 0.69900  0.48550  0.78650  Biso   1.000  C
  C61      1.0000 0.63400  0.38600  0.75200  Biso   1.000  C
  C62      1.0000 0.85890  0.49840  0.63950  Biso   1.000  C
  C63      1.0000 0.91230  0.49820  0.58590  Biso   1.000  C
  C64      1.0000 0.24320  0.97570  0.73250  Biso   1.000  C
  C65      1.0000 0.30100  0.08750  0.78650  Biso   1.000  C
  C66      1.0000 0.36600  0.11800  0.75200  Biso   1.000  C
  C67      1.0000 0.14110  0.78060  0.63950  Biso   1.000  C
  C68      1.0000 0.08770  0.67360  0.58590  Biso   1.000  C
  C69      1.0000 0.41290  0.58730  0.00020  Biso   1.000  C
  C70      1.0000 0.14200  0.71600  0.85800  Biso   1.000  C
  C71      1.0000 0.25390  0.72650  0.98040  Biso   1.000  C
  C72      1.0000 0.35680  0.63370  0.99050  Biso   1.000  C
  C73      1.0000 0.19770  0.76920  0.96690  Biso   1.000  C
  C74      1.0000 0.58710  0.58730  0.17440  Biso   1.000  C
  C75      1.0000 0.85800  0.71600  0.57400  Biso   1.000  C
  C76      1.0000 0.74610  0.72650  0.47260  Biso   1.000  C
  C77      1.0000 0.64320  0.63370  0.27690  Biso   1.000  C
  C78      1.0000 0.80230  0.76920  0.57150  Biso   1.000  C
  C79      1.0000 0.58710  0.41270  0.99980  Biso   1.000  C
  C80      1.0000 0.85800  0.28400  0.14200  Biso   1.000  C
  C81      1.0000 0.74610  0.27350  0.01960  Biso   1.000  C
  C82      1.0000 0.64320  0.36630  0.00950  Biso   1.000  C
  C83      1.0000 0.80230  0.23080  0.03310  Biso   1.000  C
  C84      1.0000 0.41290  0.41270  0.82560  Biso   1.000  C
  C85      1.0000 0.14200  0.28400  0.42600  Biso   1.000  C
  C86      1.0000 0.25390  0.27350  0.52740  Biso   1.000  C
  C87      1.0000 0.35680  0.36630  0.72310  Biso   1.000  C
  C88      1.0000 0.19770  0.23080  0.42850  Biso   1.000  C
  O1       1.0000 0.57060  0.05520  0.14680  Biso   1.000  O
  O2       1.0000 0.98750  0.36430  0.48640  Biso   1.000  O
  O3       1.0000 0.43550  0.85320  0.94810  Biso   1.000  O
  O4       1.0000 0.38540  0.92100  0.02700  Biso   1.000  O
  O5       1.0000 0.37350  0.50580  0.99530  Biso   1.000  O
  O6       1.0000 0.62390  0.98050  0.07380  Biso   1.000  O
  O7       1.0000 0.43230  0.12320  0.13470  Biso   1.000  O
  O8       1.0000 0.42940  0.57620  0.48460  Biso   1.000  O
  O9       1.0000 0.01250  0.49890  0.37680  Biso   1.000  O
  O10      1.0000 0.56450  0.51260  0.41770  Biso   1.000  O
  O11      1.0000 0.61460  0.64160  0.53560  Biso   1.000  O
  O12      1.0000 0.62650  0.62180  0.13230  Biso   1.000  O
  O13      1.0000 0.37610  0.44990  0.35660  Biso   1.000  O
  O14      1.0000 0.56770  0.70240  0.69090  Biso   1.000  O
  O15      1.0000 0.90840  0.42380  0.85320  Biso   1.000  O
  O16      1.0000 0.87790  0.50110  0.51360  Biso   1.000  O
  O17      1.0000 0.90510  0.48740  0.05190  Biso   1.000  O
  O18      1.0000 0.89400  0.35840  0.97300  Biso   1.000  O
  O19      1.0000 0.51050  0.37820  0.00470  Biso   1.000  O
  O20      1.0000 0.90670  0.55010  0.92620  Biso   1.000  O
  O21      1.0000 0.98850  0.29760  0.86530  Biso   1.000  O
  O22      1.0000 0.09160  0.94480  0.51540  Biso   1.000  O
  O23      1.0000 0.12210  0.63570  0.62320  Biso   1.000  O
  O24      1.0000 0.09490  0.14680  0.58230  Biso   1.000  O
  O25      1.0000 0.10600  0.07900  0.46440  Biso   1.000  O
  O26      1.0000 0.48950  0.49420  0.86770  Biso   1.000  O
  O27      1.0000 0.09330  0.01950  0.64340  Biso   1.000  O
  O28      1.0000 0.01150  0.87680  0.30910  Biso   1.000  O
  O29      1.0000 0.42940  0.94480  0.85320  Biso   1.000  O
  O30      1.0000 0.01250  0.63570  0.51360  Biso   1.000  O
  O31      1.0000 0.56450  0.14680  0.05190  Biso   1.000  O
  O32      1.0000 0.61460  0.07900  0.97300  Biso   1.000  O
  O33      1.0000 0.62650  0.49420  0.00470  Biso   1.000  O
  O34      1.0000 0.37610  0.01950  0.92620  Biso   1.000  O
  O35      1.0000 0.56770  0.87680  0.86530  Biso   1.000  O
  O36      1.0000 0.57060  0.42380  0.51540  Biso   1.000  O
  O37      1.0000 0.98750  0.50110  0.62320  Biso   1.000  O
  O38      1.0000 0.43550  0.48740  0.58230  Biso   1.000  O
  O39      1.0000 0.38540  0.35840  0.46440  Biso   1.000  O
  O40      1.0000 0.37350  0.37820  0.86770  Biso   1.000  O
  O41      1.0000 0.62390  0.55010  0.64340  Biso   1.000  O
  O42      1.0000 0.43230  0.29760  0.30910  Biso   1.000  O
  O43      1.0000 0.09160  0.57620  0.14680  Biso   1.000  O
  O44      1.0000 0.12210  0.49890  0.48640  Biso   1.000  O
  O45      1.0000 0.09490  0.51260  0.94810  Biso   1.000  O
  O46      1.0000 0.10600  0.64160  0.02700  Biso   1.000  O
  O47      1.0000 0.48950  0.62180  0.99530  Biso   1.000  O
  O48      1.0000 0.09330  0.44990  0.07380  Biso   1.000  O
  O49      1.0000 0.01150  0.70240  0.13470  Biso   1.000  O
  O50      1.0000 0.90840  0.05520  0.48460  Biso   1.000  O
  O51      1.0000 0.87790  0.36430  0.37680  Biso   1.000  O
  O52      1.0000 0.90510  0.85320  0.41770  Biso   1.000  O
  O53      1.0000 0.89400  0.92100  0.53560  Biso   1.000  O
  O54      1.0000 0.51050  0.50580  0.13230  Biso   1.000  O
  O55      1.0000 0.90670  0.98050  0.35660  Biso   1.000  O
  O56      1.0000 0.98850  0.12320  0.69090  Biso   1.000  O
  O57      1.0000 0.17320  0.50000  0.67320  Biso   1.000  O
  O58      1.0000 0.82680  0.50000  0.32680  Biso   1.000  O
