data_image0
_cell_length_a       7.8292
_cell_length_b       9.3621
_cell_length_c       15.1467
_cell_angle_alpha    94.703
_cell_angle_beta     102.889
_cell_angle_gamma    101.231

_symmetry_space_group_name_H-M    "P 1"
_symmetry_int_tables_number       1

loop_
  _symmetry_equiv_pos_as_xyz
  'x, y, z'

loop_
  _atom_site_label
  _atom_site_occupancy
  _atom_site_fract_x
  _atom_site_fract_y
  _atom_site_fract_z
  _atom_site_thermal_displace_type
  _atom_site_B_iso_or_equiv
  _atom_site_type_symbol
  C1       1.0000 0.67470  0.57090  0.89570  Biso   1.000  C
  C2       1.0000 0.52130  0.53910  0.81130  Biso   1.000  C
  C3       1.0000 0.42540  0.64800  0.78840  Biso   1.000  C
  H1       1.0000 0.46060  0.74190  0.82410  Biso   1.000  H
  C4       1.0000 0.27900  0.61820  0.71350  Biso   1.000  C
  C5       1.0000 0.22170  0.48110  0.66090  Biso   1.000  C
  H2       1.0000 0.11710  0.46110  0.61190  Biso   1.000  H
  C6       1.0000 0.31930  0.37330  0.68080  Biso   1.000  C
  C7       1.0000 0.46980  0.40280  0.75560  Biso   1.000  C
  H3       1.0000 0.53740  0.32980  0.76860  Biso   1.000  H
  C8       1.0000 0.26520  0.22600  0.62180  Biso   1.000  C
  C9       1.0000 0.14080  0.77190  0.60180  Biso   1.000  C
  H4       1.0000 0.15630  0.72080  0.54840  Biso   1.000  H
  C10      1.0000 0.13880  0.83710  0.74310  Biso   1.000  C
  C11      1.0000 0.15340  0.83620  0.84150  Biso   1.000  C
  C12      1.0000 0.22750  0.96350  0.90390  Biso   1.000  C
  H5       1.0000 0.26900  0.05430  0.88360  Biso   1.000  H
  C13      1.0000 0.23960  0.95500  0.99650  Biso   1.000  C
  H6       1.0000 0.28790  0.03990  0.04050  Biso   1.000  H
  C14      1.0000 0.17860  0.81810  0.02300  Biso   1.000  C
  H7       1.0000 0.19020  0.81110  0.08620  Biso   1.000  H
  C15      1.0000 0.09220  0.70590  0.87390  Biso   1.000  C
  H8       1.0000 0.03950  0.61990  0.83120  Biso   1.000  H
  N1       1.0000 0.18540  0.73470  0.68710  Biso   1.000  N
  N2       1.0000 0.07320  0.88890  0.60420  Biso   1.000  N
  N3       1.0000 0.07160  0.93230  0.69360  Biso   1.000  N
  N4       1.0000 0.10450  0.69650  0.96280  Biso   1.000  N
  O1       1.0000 0.69300  0.68330  0.95030  Biso   1.000  O
  O2       1.0000 0.77700  0.47810  0.90294  Biso   1.000  O
  O3       1.0000 0.38040  0.15000  0.61960  Biso   1.000  O
  O4       1.0000 0.10030  0.18970  0.57684  Biso   1.000  O
  C16      1.0000 0.32530  0.42910  0.10430  Biso   1.000  C
  C17      1.0000 0.47870  0.46090  0.18870  Biso   1.000  C
  C18      1.0000 0.57460  0.35200  0.21160  Biso   1.000  C
  H9       1.0000 0.53940  0.25810  0.17590  Biso   1.000  H
  C19      1.0000 0.72100  0.38180  0.28650  Biso   1.000  C
  C20      1.0000 0.77830  0.51890  0.33910  Biso   1.000  C
  H10      1.0000 0.88290  0.53890  0.38810  Biso   1.000  H
  C21      1.0000 0.68070  0.62670  0.31920  Biso   1.000  C
  C22      1.0000 0.53020  0.59720  0.24440  Biso   1.000  C
  H11      1.0000 0.46260  0.67020  0.23140  Biso   1.000  H
  C23      1.0000 0.73480  0.77400  0.37820  Biso   1.000  C
  C24      1.0000 0.85920  0.22810  0.39820  Biso   1.000  C
  H12      1.0000 0.84370  0.27920  0.45160  Biso   1.000  H
  C25      1.0000 0.86120  0.16290  0.25690  Biso   1.000  C
  C26      1.0000 0.84660  0.16380  0.15850  Biso   1.000  C
  C27      1.0000 0.77250  0.03650  0.09610  Biso   1.000  C
  H13      1.0000 0.73100  0.94570  0.11640  Biso   1.000  H
  C28      1.0000 0.76040  0.04500  0.00350  Biso   1.000  C
  H14      1.0000 0.71210  0.96010  0.95950  Biso   1.000  H
  C29      1.0000 0.82140  0.18190  0.97700  Biso   1.000  C
  H15      1.0000 0.80980  0.18890  0.91380  Biso   1.000  H
  C30      1.0000 0.90780  0.29410  0.12610  Biso   1.000  C
  H16      1.0000 0.96050  0.38010  0.16880  Biso   1.000  H
  N5       1.0000 0.81460  0.26530  0.31290  Biso   1.000  N
  N6       1.0000 0.92680  0.11110  0.39580  Biso   1.000  N
  N7       1.0000 0.92840  0.06770  0.30640  Biso   1.000  N
  N8       1.0000 0.89550  0.30350  0.03720  Biso   1.000  N
  O5       1.0000 0.30700  0.31670  0.04970  Biso   1.000  O
  O6       1.0000 0.22300  0.52190  0.09706  Biso   1.000  O
  O7       1.0000 0.61960  0.85000  0.38040  Biso   1.000  O
  O8       1.0000 0.89970  0.81030  0.42316  Biso   1.000  O
  Cu1      1.0000 0.00000  0.50000  0.00000  Biso   1.000  Cu
  Cu2      1.0000 0.00000  0.00000  0.50000  Biso   1.000  Cu
