data_image0
_cell_length_a       15.325
_cell_length_b       16.472
_cell_length_c       17.072
_cell_angle_alpha    70.144
_cell_angle_beta     64.567
_cell_angle_gamma    67.516

_symmetry_space_group_name_H-M    P 1
_symmetry_int_tables_number       1

loop_
  _symmetry_equiv_pos_as_xyz
  'x, y, z'

loop_
  _atom_site_label
  _atom_site_occupancy
  _atom_site_fract_x
  _atom_site_fract_y
  _atom_site_fract_z
  _atom_site_thermal_displace_type
  _atom_site_B_iso_or_equiv
  _atom_site_type_symbol
  Cu1      1.0000 0.43081  0.31558  0.12237  Biso   1.000  Cu
  Cu2      1.0000 0.14128  0.12045  0.33330  Biso   1.000  Cu
  Cu3      1.0000 0.87295  0.06977  0.68996  Biso   1.000  Cu
  Cu4      1.0000 0.78916  0.08210  0.91655  Biso   1.000  Cu
  Cu5      1.0000 0.64414  0.30704  0.93371  Biso   1.000  Cu
  Cu6      1.0000 0.56919  0.68442  0.87763  Biso   1.000  Cu
  Cu7      1.0000 0.85872  0.87955  0.66670  Biso   1.000  Cu
  Cu8      1.0000 0.12705  0.93023  0.31004  Biso   1.000  Cu
  Cu9      1.0000 0.21084  0.91790  0.08345  Biso   1.000  Cu
  Cu10     1.0000 0.35586  0.69296  0.06629  Biso   1.000  Cu
  Cu11     1.0000 0.50000  0.50000  0.00000  Biso   1.000  Cu
  Cu12     1.0000 0.00000  0.00000  0.00000  Biso   1.000  Cu
  Cu13     1.0000 0.00000  0.00000  0.50000  Biso   1.000  Cu
  H1       1.0000 0.99760  0.07360  0.34880  Biso   1.000  H
  H2       1.0000 0.58420  0.35770  0.06990  Biso   1.000  H
  H3       1.0000 0.40360  0.22720  0.33550  Biso   1.000  H
  H4       1.0000 0.27950  0.13620  0.42360  Biso   1.000  H
  H5       1.0000 0.07150  0.27800  0.45090  Biso   1.000  H
  H6       1.0000 0.94690  0.26200  0.60320  Biso   1.000  H
  H7       1.0000 0.26450  0.18480  0.12210  Biso   1.000  H
  H8       1.0000 0.70290  0.90430  0.98480  Biso   1.000  H
  H9       1.0000 0.16510  0.98230  0.80840  Biso   1.000  H
  H10      1.0000 0.11620  0.02090  0.67650  Biso   1.000  H
  H11      1.0000 0.81070  0.32210  0.01610  Biso   1.000  H
  H12      1.0000 0.94750  0.18500  0.05180  Biso   1.000  H
  H13      1.0000 0.71660  0.26930  0.63090  Biso   1.000  H
  H14      1.0000 0.62490  0.37300  0.73480  Biso   1.000  H
  H15      1.0000 0.59850  0.00140  0.07390  Biso   1.000  H
  H16      1.0000 0.44930  0.09990  0.16170  Biso   1.000  H
  H17      1.0000 0.23790  0.42430  0.27740  Biso   1.000  H
  H18      1.0000 0.20220  0.58960  0.24900  Biso   1.000  H
  H19      1.0000 0.00240  0.92640  0.65120  Biso   1.000  H
  H20      1.0000 0.41580  0.64230  0.93010  Biso   1.000  H
  H21      1.0000 0.59640  0.77280  0.66450  Biso   1.000  H
  H22      1.0000 0.72050  0.86380  0.57640  Biso   1.000  H
  H23      1.0000 0.92850  0.72200  0.54910  Biso   1.000  H
  H24      1.0000 0.05310  0.73800  0.39680  Biso   1.000  H
  H25      1.0000 0.73550  0.81520  0.87790  Biso   1.000  H
  H26      1.0000 0.29710  0.09570  0.01520  Biso   1.000  H
  H27      1.0000 0.83490  0.01770  0.19160  Biso   1.000  H
  H28      1.0000 0.88380  0.97910  0.32350  Biso   1.000  H
  H29      1.0000 0.18930  0.67790  0.98390  Biso   1.000  H
  H30      1.0000 0.05250  0.81500  0.94820  Biso   1.000  H
  H31      1.0000 0.28340  0.73070  0.36910  Biso   1.000  H
  H32      1.0000 0.37510  0.62700  0.26520  Biso   1.000  H
  H33      1.0000 0.40150  0.99860  0.92610  Biso   1.000  H
  H34      1.0000 0.55070  0.90010  0.83830  Biso   1.000  H
  H35      1.0000 0.76210  0.57570  0.72260  Biso   1.000  H
  H36      1.0000 0.79780  0.41040  0.75100  Biso   1.000  H
  C1       1.0000 0.35830  0.21890  0.31650  Biso   1.000  C
  C2       1.0000 0.29030  0.17000  0.36440  Biso   1.000  C
  C3       1.0000 0.04220  0.22950  0.48140  Biso   1.000  C
  C4       1.0000 0.97400  0.22110  0.56500  Biso   1.000  C
  C5       1.0000 0.24960  0.12960  0.13590  Biso   1.000  C
  C6       1.0000 0.73330  0.91940  0.92220  Biso   1.000  C
  C7       1.0000 0.09850  0.00080  0.80790  Biso   1.000  C
  C8       1.0000 0.07130  0.02230  0.73570  Biso   1.000  C
  C9       1.0000 0.82590  0.26340  0.00760  Biso   1.000  C
  C10      1.0000 0.90210  0.18800  0.02600  Biso   1.000  C
  C11      1.0000 0.71690  0.25720  0.68930  Biso   1.000  C
  C12      1.0000 0.66660  0.31350  0.74580  Biso   1.000  C
  C13      1.0000 0.58440  0.06470  0.06430  Biso   1.000  C
  C14      1.0000 0.50280  0.11810  0.11180  Biso   1.000  C
  C15      1.0000 0.27340  0.46090  0.22660  Biso   1.000  C
  C16      1.0000 0.25510  0.55140  0.21130  Biso   1.000  C
  C17      1.0000 0.64170  0.78110  0.68350  Biso   1.000  C
  C18      1.0000 0.70970  0.83000  0.63560  Biso   1.000  C
  C19      1.0000 0.95780  0.77050  0.51860  Biso   1.000  C
  C20      1.0000 0.02600  0.77890  0.43500  Biso   1.000  C
  C21      1.0000 0.75040  0.87040  0.86410  Biso   1.000  C
  C22      1.0000 0.26670  0.08060  0.07780  Biso   1.000  C
  C23      1.0000 0.90150  0.99920  0.19210  Biso   1.000  C
  C24      1.0000 0.92870  0.97770  0.26430  Biso   1.000  C
  C25      1.0000 0.17410  0.73660  0.99240  Biso   1.000  C
  C26      1.0000 0.09790  0.81200  0.97400  Biso   1.000  C
  C27      1.0000 0.28310  0.74280  0.31070  Biso   1.000  C
  C28      1.0000 0.33340  0.68650  0.25420  Biso   1.000  C
  C29      1.0000 0.41560  0.93530  0.93570  Biso   1.000  C
  C30      1.0000 0.49720  0.88190  0.88820  Biso   1.000  C
  C31      1.0000 0.72660  0.53910  0.77340  Biso   1.000  C
  C32      1.0000 0.74490  0.44860  0.78870  Biso   1.000  C
  N1       1.0000 0.24220  0.17920  0.31190  Biso   1.000  N
  N2       1.0000 0.28030  0.22890  0.23230  Biso   1.000  N
  N3       1.0000 0.34730  0.25290  0.23610  Biso   1.000  N
  N4       1.0000 0.95200  0.14230  0.58330  Biso   1.000  N
  N5       1.0000 0.00450  0.10680  0.51130  Biso   1.000  N
  N6       1.0000 0.06140  0.15950  0.44930  Biso   1.000  N
  N7       1.0000 0.20770  0.08380  0.21560  Biso   1.000  N
  N8       1.0000 0.80150  0.98810  0.79340  Biso   1.000  N
  N9       1.0000 0.76660  0.99260  0.87610  Biso   1.000  N
  N10      1.0000 0.97260  0.04530  0.76140  Biso   1.000  N
  N11      1.0000 0.93820  0.03820  0.84830  Biso   1.000  N
  N12      1.0000 0.01530  0.01050  0.87670  Biso   1.000  N
  N13      1.0000 0.89970  0.12130  0.00100  Biso   1.000  N
  N14      1.0000 0.82570  0.15030  0.97000  Biso   1.000  N
  N15      1.0000 0.77830  0.23550  0.97510  Biso   1.000  N
  N16      1.0000 0.76840  0.17950  0.73100  Biso   1.000  N
  N17      1.0000 0.74740  0.19020  0.81090  Biso   1.000  N
  N18      1.0000 0.68710  0.26860  0.82210  Biso   1.000  N
  N19      1.0000 0.64380  0.11500  0.00010  Biso   1.000  N
  N20      1.0000 0.59440  0.19890  0.00990  Biso   1.000  N
  N21      1.0000 0.51000  0.20360  0.07600  Biso   1.000  N
  N22      1.0000 0.35020  0.43370  0.15710  Biso   1.000  N
  N23      1.0000 0.37980  0.50500  0.10130  Biso   1.000  N
  N24      1.0000 0.32240  0.57790  0.13570  Biso   1.000  N
  N25      1.0000 0.75780  0.82080  0.68810  Biso   1.000  N
  N26      1.0000 0.71970  0.77110  0.76770  Biso   1.000  N
  N27      1.0000 0.65270  0.74710  0.76390  Biso   1.000  N
  N28      1.0000 0.04800  0.85770  0.41670  Biso   1.000  N
  N29      1.0000 0.99550  0.89320  0.48870  Biso   1.000  N
  N30      1.0000 0.93860  0.84050  0.55070  Biso   1.000  N
  N31      1.0000 0.79230  0.91620  0.78440  Biso   1.000  N
  N32      1.0000 0.19850  0.01190  0.20660  Biso   1.000  N
  N33      1.0000 0.23340  0.00740  0.12390  Biso   1.000  N
  N34      1.0000 0.02740  0.95470  0.23860  Biso   1.000  N
  N35      1.0000 0.06180  0.96180  0.15170  Biso   1.000  N
  N36      1.0000 0.98470  0.98950  0.12330  Biso   1.000  N
  N37      1.0000 0.10030  0.87870  0.99900  Biso   1.000  N
  N38      1.0000 0.17430  0.84970  0.03000  Biso   1.000  N
  N39      1.0000 0.22170  0.76450  0.02490  Biso   1.000  N
  N40      1.0000 0.23160  0.82050  0.26900  Biso   1.000  N
  N41      1.0000 0.25260  0.80980  0.18910  Biso   1.000  N
  N42      1.0000 0.31290  0.73140  0.17790  Biso   1.000  N
  N43      1.0000 0.35620  0.88500  0.99990  Biso   1.000  N
  N44      1.0000 0.40560  0.80110  0.99010  Biso   1.000  N
  N45      1.0000 0.49000  0.79640  0.92400  Biso   1.000  N
  N46      1.0000 0.64980  0.56630  0.84290  Biso   1.000  N
  N47      1.0000 0.62020  0.49500  0.89870  Biso   1.000  N
  N48      1.0000 0.67760  0.42210  0.86430  Biso   1.000  N
  O1       1.0000 0.05620  0.03790  0.36920  Biso   1.000  O
  O2       1.0000 0.54290  0.36790  0.03350  Biso   1.000  O
  O3       1.0000 0.94380  0.96210  0.63080  Biso   1.000  O
  O4       1.0000 0.45710  0.63210  0.96650  Biso   1.000  O
