data_image0
_cell_length_a       17.2
_cell_length_b       21.1459
_cell_length_c       21.1459
_cell_angle_alpha    80.4793
_cell_angle_beta     66.0024
_cell_angle_gamma    66.0024

_symmetry_space_group_name_H-M    P 1
_symmetry_int_tables_number       1

loop_
  _symmetry_equiv_pos_as_xyz
  'x, y, z'

loop_
  _atom_site_label
  _atom_site_occupancy
  _atom_site_fract_x
  _atom_site_fract_y
  _atom_site_fract_z
  _atom_site_thermal_displace_type
  _atom_site_B_iso_or_equiv
  _atom_site_type_symbol
  Zn1      1.0000 0.39749  0.96431  0.24599  Biso   1.000  Zn
  Zn2      1.0000 0.10779  0.53569  0.25401  Biso   1.000  Zn
  Zn3      1.0000 0.64348  0.75401  0.46431  Biso   1.000  Zn
  Zn4      1.0000 0.36180  0.74599  0.03569  Biso   1.000  Zn
  H1       1.0000 0.64360  0.00010  0.28850  Biso   1.000  H
  H2       1.0000 0.77430  0.02850  0.24050  Biso   1.000  H
  H3       1.0000 0.77410  0.03190  0.05730  Biso   1.000  H
  H4       1.0000 0.64260  0.00420  0.10140  Biso   1.000  H
  H5       1.0000 0.91610  0.92000  0.10560  Biso   1.000  H
  H6       1.0000 0.06680  0.84600  0.07580  Biso   1.000  H
  H7       1.0000 0.13900  0.00120  0.07000  Biso   1.000  H
  H8       1.0000 0.99160  0.07700  0.09600  Biso   1.000  H
  H9       1.0000 0.47360  0.84430  0.33290  Biso   1.000  H
  H10      1.0000 0.55850  0.73030  0.32270  Biso   1.000  H
  H11      1.0000 0.56000  0.74030  0.13190  Biso   1.000  H
  H12      1.0000 0.47840  0.85390  0.14670  Biso   1.000  H
  H13      1.0000 0.69160  0.63410  0.27630  Biso   1.000  H
  H14      1.0000 0.77680  0.51820  0.25700  Biso   1.000  H
  H15      1.0000 0.66240  0.51050  0.14030  Biso   1.000  H
  H16      1.0000 0.57040  0.62970  0.15570  Biso   1.000  H
  H17      1.0000 0.31300  0.07850  0.34250  Biso   1.000  H
  H18      1.0000 0.24830  0.19460  0.34940  Biso   1.000  H
  H19      1.0000 0.30290  0.19660  0.14860  Biso   1.000  H
  H20      1.0000 0.36030  0.08140  0.15160  Biso   1.000  H
  H21      1.0000 0.43220  0.49990  0.21150  Biso   1.000  H
  H22      1.0000 0.54330  0.47150  0.25950  Biso   1.000  H
  H23      1.0000 0.36330  0.46810  0.44270  Biso   1.000  H
  H24      1.0000 0.24820  0.49580  0.39860  Biso   1.000  H
  H25      1.0000 0.44170  0.58000  0.39440  Biso   1.000  H
  H26      1.0000 0.48860  0.65400  0.42420  Biso   1.000  H
  H27      1.0000 0.71020  0.49880  0.43000  Biso   1.000  H
  H28      1.0000 0.66460  0.42300  0.40400  Biso   1.000  H
  H29      1.0000 0.15080  0.65570  0.16710  Biso   1.000  H
  H30      1.0000 0.11150  0.76970  0.17730  Biso   1.000  H
  H31      1.0000 0.93220  0.75970  0.36810  Biso   1.000  H
  H32      1.0000 0.97900  0.64610  0.35330  Biso   1.000  H
  H33      1.0000 0.10200  0.86590  0.22370  Biso   1.000  H
  H34      1.0000 0.05200  0.98180  0.24300  Biso   1.000  H
  H35      1.0000 0.81320  0.98950  0.35970  Biso   1.000  H
  H36      1.0000 0.85580  0.87030  0.34430  Biso   1.000  H
  H37      1.0000 0.23400  0.42150  0.15750  Biso   1.000  H
  H38      1.0000 0.29230  0.30540  0.15060  Biso   1.000  H
  H39      1.0000 0.14810  0.30340  0.35140  Biso   1.000  H
  H40      1.0000 0.09330  0.41860  0.34840  Biso   1.000  H
  H41      1.0000 0.93210  0.71150  0.50010  Biso   1.000  H
  H42      1.0000 0.01480  0.75950  0.52850  Biso   1.000  H
  H43      1.0000 0.83140  0.94270  0.53190  Biso   1.000  H
  H44      1.0000 0.74400  0.89860  0.50420  Biso   1.000  H
  H45      1.0000 0.02170  0.89440  0.42000  Biso   1.000  H
  H46      1.0000 0.14260  0.92420  0.34600  Biso   1.000  H
  H47      1.0000 0.20900  0.93000  0.50120  Biso   1.000  H
  H48      1.0000 0.08760  0.90400  0.57700  Biso   1.000  H
  H49      1.0000 0.80650  0.66710  0.34430  Biso   1.000  H
  H50      1.0000 0.88120  0.67730  0.23030  Biso   1.000  H
  H51      1.0000 0.69190  0.86810  0.24030  Biso   1.000  H
  H52      1.0000 0.62510  0.85330  0.35390  Biso   1.000  H
  H53      1.0000 0.96790  0.72370  0.13410  Biso   1.000  H
  H54      1.0000 0.03380  0.74300  0.01820  Biso   1.000  H
  H55      1.0000 0.80270  0.85970  0.01050  Biso   1.000  H
  H56      1.0000 0.72610  0.84430  0.12970  Biso   1.000  H
  H57      1.0000 0.65550  0.65750  0.57850  Biso   1.000  H
  H58      1.0000 0.59770  0.65060  0.69460  Biso   1.000  H
  H59      1.0000 0.45150  0.85140  0.69660  Biso   1.000  H
  H60      1.0000 0.51190  0.84840  0.58140  Biso   1.000  H
  H61      1.0000 0.64370  0.78850  0.99990  Biso   1.000  H
  H62      1.0000 0.80280  0.74050  0.97150  Biso   1.000  H
  H63      1.0000 0.80600  0.55730  0.96810  Biso   1.000  H
  H64      1.0000 0.64680  0.60140  0.99580  Biso   1.000  H
  H65      1.0000 0.83610  0.60560  0.08000  Biso   1.000  H
  H66      1.0000 0.91280  0.57580  0.15400  Biso   1.000  H
  H67      1.0000 0.14020  0.57000  0.99880  Biso   1.000  H
  H68      1.0000 0.06860  0.59600  0.92300  Biso   1.000  H
  H69      1.0000 0.31790  0.83290  0.15570  Biso   1.000  H
  H70      1.0000 0.28880  0.82270  0.26970  Biso   1.000  H
  H71      1.0000 0.30030  0.63190  0.25970  Biso   1.000  H
  H72      1.0000 0.33230  0.64670  0.14610  Biso   1.000  H
  H73      1.0000 0.32570  0.77630  0.36590  Biso   1.000  H
  H74      1.0000 0.29500  0.75700  0.48180  Biso   1.000  H
  H75      1.0000 0.17290  0.64030  0.48950  Biso   1.000  H
  H76      1.0000 0.20010  0.65570  0.37030  Biso   1.000  H
  H77      1.0000 0.39150  0.84250  0.92150  Biso   1.000  H
  H78      1.0000 0.44290  0.84940  0.80540  Biso   1.000  H
  H79      1.0000 0.49950  0.64860  0.80340  Biso   1.000  H
  H80      1.0000 0.44170  0.65160  0.91860  Biso   1.000  H
  C1       1.0000 0.54360  0.98370  0.22850  Biso   1.000  C
  C2       1.0000 0.62830  0.00300  0.19900  Biso   1.000  C
  C3       1.0000 0.66830  0.00760  0.24120  Biso   1.000  C
  C4       1.0000 0.74740  0.02400  0.21200  Biso   1.000  C
  C5       1.0000 0.78190  0.03260  0.14740  Biso   1.000  C
  C6       1.0000 0.74650  0.02590  0.10470  Biso   1.000  C
  C7       1.0000 0.66720  0.00980  0.13100  Biso   1.000  C
  C8       1.0000 0.94420  0.00420  0.10220  Biso   1.000  C
  C9       1.0000 0.96220  0.93620  0.09740  Biso   1.000  C
  C10      1.0000 0.05160  0.89300  0.08020  Biso   1.000  C
  C11      1.0000 0.11900  0.91500  0.06920  Biso   1.000  C
  C12      1.0000 0.09380  0.98460  0.07640  Biso   1.000  C
  C13      1.0000 0.00710  0.02980  0.09220  Biso   1.000  C
  C14      1.0000 0.21430  0.86790  0.05290  Biso   1.000  C
  C15      1.0000 0.49270  0.82290  0.29130  Biso   1.000  C
  C16      1.0000 0.54290  0.75410  0.28590  Biso   1.000  C
  C17      1.0000 0.57080  0.71940  0.22640  Biso   1.000  C
  C18      1.0000 0.54380  0.76060  0.17340  Biso   1.000  C
  C19      1.0000 0.49480  0.82880  0.18280  Biso   1.000  C
  C20      1.0000 0.62280  0.64580  0.21700  Biso   1.000  C
  C21      1.0000 0.68360  0.61080  0.24720  Biso   1.000  C
  C22      1.0000 0.73480  0.54030  0.23570  Biso   1.000  C
  C23      1.0000 0.66910  0.53570  0.16850  Biso   1.000  C
  C24      1.0000 0.61260  0.60890  0.17710  Biso   1.000  C
  C25      1.0000 0.30860  0.10300  0.30260  Biso   1.000  C
  C26      1.0000 0.27190  0.17310  0.30710  Biso   1.000  C
  C27      1.0000 0.26990  0.21180  0.24860  Biso   1.000  C
  C28      1.0000 0.30320  0.17410  0.19030  Biso   1.000  C
  C29      1.0000 0.33620  0.10520  0.19280  Biso   1.000  C
  C30      1.0000 0.25580  0.51630  0.27150  Biso   1.000  C
  C31      1.0000 0.33030  0.49700  0.30100  Biso   1.000  C
  C32      1.0000 0.41710  0.49240  0.25880  Biso   1.000  C
  C33      1.0000 0.48340  0.47600  0.28800  Biso   1.000  C
  C34      1.0000 0.46190  0.46740  0.35260  Biso   1.000  C
  C35      1.0000 0.37710  0.47410  0.39530  Biso   1.000  C
  C36      1.0000 0.30800  0.49020  0.36900  Biso   1.000  C
  C37      1.0000 0.55060  0.49580  0.39780  Biso   1.000  C
  C38      1.0000 0.49580  0.56380  0.40260  Biso   1.000  C
  C39      1.0000 0.52480  0.60700  0.41980  Biso   1.000  C
  C40      1.0000 0.60320  0.58500  0.43080  Biso   1.000  C
  C41      1.0000 0.65480  0.51540  0.42360  Biso   1.000  C
  C42      1.0000 0.62910  0.47020  0.40780  Biso   1.000  C
  C43      1.0000 0.63510  0.63210  0.44710  Biso   1.000  C
  C44      1.0000 0.10690  0.67710  0.20870  Biso   1.000  C
  C45      1.0000 0.08290  0.74590  0.21410  Biso   1.000  C
  C46      1.0000 0.01660  0.78060  0.27360  Biso   1.000  C
  C47      1.0000 0.97780  0.73940  0.32660  Biso   1.000  C
  C48      1.0000 0.00640  0.67120  0.31720  Biso   1.000  C
  C49      1.0000 0.98560  0.85420  0.28300  Biso   1.000  C
  C50      1.0000 0.04160  0.88920  0.25280  Biso   1.000  C
  C51      1.0000 0.01080  0.95970  0.26430  Biso   1.000  C
  C52      1.0000 0.87330  0.96430  0.33150  Biso   1.000  C
  C53      1.0000 0.89860  0.89110  0.32290  Biso   1.000  C
  C54      1.0000 0.21420  0.39700  0.19740  Biso   1.000  C
  C55      1.0000 0.25210  0.32690  0.19290  Biso   1.000  C
  C56      1.0000 0.23030  0.28820  0.25140  Biso   1.000  C
  C57      1.0000 0.16760  0.32590  0.30970  Biso   1.000  C
  C58      1.0000 0.13420  0.39480  0.30720  Biso   1.000  C
  C59      1.0000 0.77210  0.77150  0.48370  Biso   1.000  C
  C60      1.0000 0.82730  0.80100  0.50300  Biso   1.000  C
  C61      1.0000 0.90950  0.75880  0.50760  Biso   1.000  C
  C62      1.0000 0.95940  0.78800  0.52400  Biso   1.000  C
  C63      1.0000 0.92930  0.85260  0.53260  Biso   1.000  C
  C64      1.0000 0.85120  0.89530  0.52590  Biso   1.000  C
  C65      1.0000 0.79820  0.86900  0.50980  Biso   1.000  C
  C66      1.0000 0.04640  0.89780  0.50420  Biso   1.000  C
  C67      1.0000 0.05960  0.90260  0.43620  Biso   1.000  C
  C68      1.0000 0.13180  0.91980  0.39300  Biso   1.000  C
  C69      1.0000 0.18820  0.93080  0.41500  Biso   1.000  C
  C70      1.0000 0.17020  0.92360  0.48460  Biso   1.000  C
  C71      1.0000 0.09930  0.90780  0.52980  Biso   1.000  C
  C72      1.0000 0.26720  0.94710  0.36790  Biso   1.000  C
  C73      1.0000 0.78400  0.70870  0.32290  Biso   1.000  C
  C74      1.0000 0.82880  0.71410  0.25410  Biso   1.000  C
  C75      1.0000 0.79720  0.77360  0.21940  Biso   1.000  C
  C76      1.0000 0.71720  0.82660  0.26060  Biso   1.000  C
  C77      1.0000 0.67760  0.81720  0.32880  Biso   1.000  C
  C78      1.0000 0.83980  0.78300  0.14580  Biso   1.000  C
  C79      1.0000 0.93080  0.75280  0.11080  Biso   1.000  C
  C80      1.0000 0.97050  0.76430  0.04030  Biso   1.000  C
  C81      1.0000 0.83760  0.83150  0.03570  Biso   1.000  C
  C82      1.0000 0.78970  0.82290  0.10890  Biso   1.000  C
  C83      1.0000 0.61120  0.69740  0.60300  Biso   1.000  C
  C84      1.0000 0.57900  0.69290  0.67310  Biso   1.000  C
  C85      1.0000 0.51850  0.75140  0.71180  Biso   1.000  C
  C86      1.0000 0.49350  0.80970  0.67410  Biso   1.000  C
  C87      1.0000 0.52900  0.80720  0.60520  Biso   1.000  C
  C88      1.0000 0.52730  0.72850  0.01630  Biso   1.000  C
  C89      1.0000 0.63130  0.69900  0.99700  Biso   1.000  C
  C90      1.0000 0.67590  0.74120  0.99240  Biso   1.000  C
  C91      1.0000 0.77140  0.71200  0.97600  Biso   1.000  C
  C92      1.0000 0.81450  0.64740  0.96740  Biso   1.000  C
  C93      1.0000 0.77240  0.60470  0.97410  Biso   1.000  C
  C94      1.0000 0.67700  0.63100  0.99020  Biso   1.000  C
  C95      1.0000 0.94840  0.60220  0.99580  Biso   1.000  C
  C96      1.0000 0.89840  0.59740  0.06380  Biso   1.000  C
  C97      1.0000 0.94460  0.58020  0.10700  Biso   1.000  C
  C98      1.0000 0.03400  0.56920  0.08500  Biso   1.000  C
  C99      1.0000 0.07840  0.57640  0.01540  Biso   1.000  C
  C100     1.0000 0.03690  0.59220  0.97020  Biso   1.000  C
  C101     1.0000 0.08220  0.55290  0.13210  Biso   1.000  C
  C102     1.0000 0.31560  0.79130  0.17710  Biso   1.000  C
  C103     1.0000 0.29700  0.78590  0.24590  Biso   1.000  C
  C104     1.0000 0.29020  0.72640  0.28060  Biso   1.000  C
  C105     1.0000 0.30440  0.67340  0.23940  Biso   1.000  C
  C106     1.0000 0.32360  0.68280  0.17120  Biso   1.000  C
  C107     1.0000 0.26860  0.71700  0.35420  Biso   1.000  C
  C108     1.0000 0.29440  0.74720  0.38920  Biso   1.000  C
  C109     1.0000 0.27510  0.73570  0.45970  Biso   1.000  C
  C110     1.0000 0.20480  0.66850  0.46430  Biso   1.000  C
  C111     1.0000 0.22150  0.67710  0.39110  Biso   1.000  C
  C112     1.0000 0.41160  0.80260  0.89700  Biso   1.000  C
  C113     1.0000 0.44500  0.80710  0.82690  Biso   1.000  C
  C114     1.0000 0.48170  0.74860  0.78820  Biso   1.000  C
  C115     1.0000 0.47730  0.69030  0.82590  Biso   1.000  C
  C116     1.0000 0.44140  0.69280  0.89480  Biso   1.000  C
  N1       1.0000 0.46810  0.86310  0.23990  Biso   1.000  N
  N2       1.0000 0.72650  0.50400  0.19660  Biso   1.000  N
  N3       1.0000 0.33730  0.06840  0.24920  Biso   1.000  N
  N4       1.0000 0.07110  0.63690  0.26010  Biso   1.000  N
  N5       1.0000 0.92710  0.99600  0.30340  Biso   1.000  N
  N6       1.0000 0.15490  0.43160  0.25080  Biso   1.000  N
  N7       1.0000 0.70800  0.76010  0.36310  Biso   1.000  N
  N8       1.0000 0.92310  0.80340  0.00400  Biso   1.000  N
  N9       1.0000 0.58650  0.75080  0.56840  Biso   1.000  N
  N10      1.0000 0.33120  0.73990  0.13690  Biso   1.000  N
  N11      1.0000 0.23050  0.69660  0.49600  Biso   1.000  N
  N12      1.0000 0.40570  0.74920  0.93160  Biso   1.000  N
  O1       1.0000 0.51330  0.97590  0.18990  Biso   1.000  O
  O2       1.0000 0.51020  0.97860  0.29120  Biso   1.000  O
  O3       1.0000 0.85460  0.05370  0.12050  Biso   1.000  O
  O4       1.0000 0.23430  0.80470  0.04810  Biso   1.000  O
  O5       1.0000 0.27650  0.88950  0.04510  Biso   1.000  O
  O6       1.0000 0.17910  0.52410  0.31010  Biso   1.000  O
  O7       1.0000 0.28000  0.52140  0.20880  Biso   1.000  O
  O8       1.0000 0.52880  0.44630  0.37950  Biso   1.000  O
  O9       1.0000 0.58710  0.69530  0.45190  Biso   1.000  O
  O10      1.0000 0.71110  0.61050  0.45490  Biso   1.000  O
  O11      1.0000 0.70320  0.81010  0.47590  Biso   1.000  O
  O12      1.0000 0.80140  0.70880  0.47860  Biso   1.000  O
  O13      1.0000 0.97510  0.87950  0.55370  Biso   1.000  O
  O14      1.0000 0.28240  0.95190  0.30470  Biso   1.000  O
  O15      1.0000 0.32160  0.95490  0.38950  Biso   1.000  O
  O16      1.0000 0.48920  0.68990  0.02410  Biso   1.000  O
  O17      1.0000 0.48880  0.79120  0.02140  Biso   1.000  O
  O18      1.0000 0.90830  0.62050  0.94630  Biso   1.000  O
  O19      1.0000 0.03900  0.54810  0.19530  Biso   1.000  O
  O20      1.0000 0.16600  0.54510  0.11050  Biso   1.000  O
  Zn5      1.0000 0.60251  0.03569  0.75401  Biso   1.000  Zn
  Zn6      1.0000 0.89221  0.46431  0.74599  Biso   1.000  Zn
  Zn7      1.0000 0.35652  0.24599  0.53569  Biso   1.000  Zn
  Zn8      1.0000 0.63820  0.25401  0.96431  Biso   1.000  Zn
  H81      1.0000 0.35640  0.99990  0.71150  Biso   1.000  H
  H82      1.0000 0.22570  0.97150  0.75950  Biso   1.000  H
  H83      1.0000 0.22590  0.96810  0.94270  Biso   1.000  H
  H84      1.0000 0.35740  0.99580  0.89860  Biso   1.000  H
  H85      1.0000 0.08390  0.08000  0.89440  Biso   1.000  H
  H86      1.0000 0.93320  0.15400  0.92420  Biso   1.000  H
  H87      1.0000 0.86100  0.99880  0.93000  Biso   1.000  H
  H88      1.0000 0.00840  0.92300  0.90400  Biso   1.000  H
  H89      1.0000 0.52640  0.15570  0.66710  Biso   1.000  H
  H90      1.0000 0.44150  0.26970  0.67730  Biso   1.000  H
  H91      1.0000 0.44000  0.25970  0.86810  Biso   1.000  H
  H92      1.0000 0.52160  0.14610  0.85330  Biso   1.000  H
  H93      1.0000 0.30840  0.36590  0.72370  Biso   1.000  H
  H94      1.0000 0.22320  0.48180  0.74300  Biso   1.000  H
  H95      1.0000 0.33760  0.48950  0.85970  Biso   1.000  H
  H96      1.0000 0.42960  0.37030  0.84430  Biso   1.000  H
  H97      1.0000 0.68700  0.92150  0.65750  Biso   1.000  H
  H98      1.0000 0.75170  0.80540  0.65060  Biso   1.000  H
  H99      1.0000 0.69710  0.80340  0.85140  Biso   1.000  H
  H100     1.0000 0.63970  0.91860  0.84840  Biso   1.000  H
  H101     1.0000 0.56780  0.50010  0.78850  Biso   1.000  H
  H102     1.0000 0.45670  0.52850  0.74050  Biso   1.000  H
  H103     1.0000 0.63670  0.53190  0.55730  Biso   1.000  H
  H104     1.0000 0.75180  0.50420  0.60140  Biso   1.000  H
  H105     1.0000 0.55830  0.42000  0.60560  Biso   1.000  H
  H106     1.0000 0.51140  0.34600  0.57580  Biso   1.000  H
  H107     1.0000 0.28980  0.50120  0.57000  Biso   1.000  H
  H108     1.0000 0.33540  0.57700  0.59600  Biso   1.000  H
  H109     1.0000 0.84920  0.34430  0.83290  Biso   1.000  H
  H110     1.0000 0.88850  0.23030  0.82270  Biso   1.000  H
  H111     1.0000 0.06780  0.24030  0.63190  Biso   1.000  H
  H112     1.0000 0.02100  0.35390  0.64670  Biso   1.000  H
  H113     1.0000 0.89800  0.13410  0.77630  Biso   1.000  H
  H114     1.0000 0.94800  0.01820  0.75700  Biso   1.000  H
  H115     1.0000 0.18680  0.01050  0.64030  Biso   1.000  H
  H116     1.0000 0.14420  0.12970  0.65570  Biso   1.000  H
  H117     1.0000 0.76600  0.57850  0.84250  Biso   1.000  H
  H118     1.0000 0.70770  0.69460  0.84940  Biso   1.000  H
  H119     1.0000 0.85190  0.69660  0.64860  Biso   1.000  H
  H120     1.0000 0.90670  0.58140  0.65160  Biso   1.000  H
  H121     1.0000 0.06790  0.28850  0.49990  Biso   1.000  H
  H122     1.0000 0.98520  0.24050  0.47150  Biso   1.000  H
  H123     1.0000 0.16860  0.05730  0.46810  Biso   1.000  H
  H124     1.0000 0.25600  0.10140  0.49580  Biso   1.000  H
  H125     1.0000 0.97830  0.10560  0.58000  Biso   1.000  H
  H126     1.0000 0.85740  0.07580  0.65400  Biso   1.000  H
  H127     1.0000 0.79100  0.07000  0.49880  Biso   1.000  H
  H128     1.0000 0.91240  0.09600  0.42300  Biso   1.000  H
  H129     1.0000 0.19350  0.33290  0.65570  Biso   1.000  H
  H130     1.0000 0.11880  0.32270  0.76970  Biso   1.000  H
  H131     1.0000 0.30810  0.13190  0.75970  Biso   1.000  H
  H132     1.0000 0.37490  0.14670  0.64610  Biso   1.000  H
  H133     1.0000 0.03210  0.27630  0.86590  Biso   1.000  H
  H134     1.0000 0.96620  0.25700  0.98180  Biso   1.000  H
  H135     1.0000 0.19730  0.14030  0.98950  Biso   1.000  H
  H136     1.0000 0.27390  0.15570  0.87030  Biso   1.000  H
  H137     1.0000 0.34450  0.34250  0.42150  Biso   1.000  H
  H138     1.0000 0.40230  0.34940  0.30540  Biso   1.000  H
  H139     1.0000 0.54850  0.14860  0.30340  Biso   1.000  H
  H140     1.0000 0.48810  0.15160  0.41860  Biso   1.000  H
  H141     1.0000 0.35630  0.21150  0.00010  Biso   1.000  H
  H142     1.0000 0.19720  0.25950  0.02850  Biso   1.000  H
  H143     1.0000 0.19400  0.44270  0.03190  Biso   1.000  H
  H144     1.0000 0.35320  0.39860  0.00420  Biso   1.000  H
  H145     1.0000 0.16390  0.39440  0.92000  Biso   1.000  H
  H146     1.0000 0.08720  0.42420  0.84600  Biso   1.000  H
  H147     1.0000 0.85980  0.43000  0.00120  Biso   1.000  H
  H148     1.0000 0.93140  0.40400  0.07700  Biso   1.000  H
  H149     1.0000 0.68210  0.16710  0.84430  Biso   1.000  H
  H150     1.0000 0.71120  0.17730  0.73030  Biso   1.000  H
  H151     1.0000 0.69970  0.36810  0.74030  Biso   1.000  H
  H152     1.0000 0.66770  0.35330  0.85390  Biso   1.000  H
  H153     1.0000 0.67430  0.22370  0.63410  Biso   1.000  H
  H154     1.0000 0.70500  0.24300  0.51820  Biso   1.000  H
  H155     1.0000 0.82710  0.35970  0.51050  Biso   1.000  H
  H156     1.0000 0.79990  0.34430  0.62970  Biso   1.000  H
  H157     1.0000 0.60850  0.15750  0.07850  Biso   1.000  H
  H158     1.0000 0.55710  0.15060  0.19460  Biso   1.000  H
  H159     1.0000 0.50050  0.35140  0.19660  Biso   1.000  H
  H160     1.0000 0.55830  0.34840  0.08140  Biso   1.000  H
  C117     1.0000 0.45640  0.01630  0.77150  Biso   1.000  C
  C118     1.0000 0.37170  0.99700  0.80100  Biso   1.000  C
  C119     1.0000 0.33170  0.99240  0.75880  Biso   1.000  C
  C120     1.0000 0.25260  0.97600  0.78800  Biso   1.000  C
  C121     1.0000 0.21810  0.96740  0.85260  Biso   1.000  C
  C122     1.0000 0.25350  0.97410  0.89530  Biso   1.000  C
  C123     1.0000 0.33280  0.99020  0.86900  Biso   1.000  C
  C124     1.0000 0.05580  0.99580  0.89780  Biso   1.000  C
  C125     1.0000 0.03780  0.06380  0.90260  Biso   1.000  C
  C126     1.0000 0.94840  0.10700  0.91980  Biso   1.000  C
  C127     1.0000 0.88100  0.08500  0.93080  Biso   1.000  C
  C128     1.0000 0.90620  0.01540  0.92360  Biso   1.000  C
  C129     1.0000 0.99290  0.97020  0.90780  Biso   1.000  C
  C130     1.0000 0.78570  0.13210  0.94710  Biso   1.000  C
  C131     1.0000 0.50730  0.17710  0.70870  Biso   1.000  C
  C132     1.0000 0.45710  0.24590  0.71410  Biso   1.000  C
  C133     1.0000 0.42920  0.28060  0.77360  Biso   1.000  C
  C134     1.0000 0.45620  0.23940  0.82660  Biso   1.000  C
  C135     1.0000 0.50520  0.17120  0.81720  Biso   1.000  C
  C136     1.0000 0.37720  0.35420  0.78300  Biso   1.000  C
  C137     1.0000 0.31640  0.38920  0.75280  Biso   1.000  C
  C138     1.0000 0.26520  0.45970  0.76430  Biso   1.000  C
  C139     1.0000 0.33090  0.46430  0.83150  Biso   1.000  C
  C140     1.0000 0.38740  0.39110  0.82290  Biso   1.000  C
  C141     1.0000 0.69140  0.89700  0.69740  Biso   1.000  C
  C142     1.0000 0.72810  0.82690  0.69290  Biso   1.000  C
  C143     1.0000 0.73010  0.78820  0.75140  Biso   1.000  C
  C144     1.0000 0.69680  0.82590  0.80970  Biso   1.000  C
  C145     1.0000 0.66380  0.89480  0.80720  Biso   1.000  C
  C146     1.0000 0.74420  0.48370  0.72850  Biso   1.000  C
  C147     1.0000 0.66970  0.50300  0.69900  Biso   1.000  C
  C148     1.0000 0.58290  0.50760  0.74120  Biso   1.000  C
  C149     1.0000 0.51660  0.52400  0.71200  Biso   1.000  C
  C150     1.0000 0.53810  0.53260  0.64740  Biso   1.000  C
  C151     1.0000 0.62290  0.52590  0.60470  Biso   1.000  C
  C152     1.0000 0.69200  0.50980  0.63100  Biso   1.000  C
  C153     1.0000 0.44940  0.50420  0.60220  Biso   1.000  C
  C154     1.0000 0.50420  0.43620  0.59740  Biso   1.000  C
  C155     1.0000 0.47520  0.39300  0.58020  Biso   1.000  C
  C156     1.0000 0.39680  0.41500  0.56920  Biso   1.000  C
  C157     1.0000 0.34520  0.48460  0.57640  Biso   1.000  C
  C158     1.0000 0.37090  0.52980  0.59220  Biso   1.000  C
  C159     1.0000 0.36490  0.36790  0.55290  Biso   1.000  C
  C160     1.0000 0.89310  0.32290  0.79130  Biso   1.000  C
  C161     1.0000 0.91710  0.25410  0.78590  Biso   1.000  C
  C162     1.0000 0.98340  0.21940  0.72640  Biso   1.000  C
  C163     1.0000 0.02220  0.26060  0.67340  Biso   1.000  C
  C164     1.0000 0.99360  0.32880  0.68280  Biso   1.000  C
  C165     1.0000 0.01440  0.14580  0.71700  Biso   1.000  C
  C166     1.0000 0.95840  0.11080  0.74720  Biso   1.000  C
  C167     1.0000 0.98920  0.04030  0.73570  Biso   1.000  C
  C168     1.0000 0.12670  0.03570  0.66850  Biso   1.000  C
  C169     1.0000 0.10140  0.10890  0.67710  Biso   1.000  C
  C170     1.0000 0.78580  0.60300  0.80260  Biso   1.000  C
  C171     1.0000 0.74790  0.67310  0.80710  Biso   1.000  C
  C172     1.0000 0.76970  0.71180  0.74860  Biso   1.000  C
  C173     1.0000 0.83240  0.67410  0.69030  Biso   1.000  C
  C174     1.0000 0.86580  0.60520  0.69280  Biso   1.000  C
  C175     1.0000 0.22790  0.22850  0.51630  Biso   1.000  C
  C176     1.0000 0.17270  0.19900  0.49700  Biso   1.000  C
  C177     1.0000 0.09050  0.24120  0.49240  Biso   1.000  C
  C178     1.0000 0.04060  0.21200  0.47600  Biso   1.000  C
  C179     1.0000 0.07070  0.14740  0.46740  Biso   1.000  C
  C180     1.0000 0.14880  0.10470  0.47410  Biso   1.000  C
  C181     1.0000 0.20180  0.13100  0.49020  Biso   1.000  C
  C182     1.0000 0.95360  0.10220  0.49580  Biso   1.000  C
  C183     1.0000 0.94040  0.09740  0.56380  Biso   1.000  C
  C184     1.0000 0.86820  0.08020  0.60700  Biso   1.000  C
  C185     1.0000 0.81180  0.06920  0.58500  Biso   1.000  C
  C186     1.0000 0.82980  0.07640  0.51540  Biso   1.000  C
  C187     1.0000 0.90070  0.09220  0.47020  Biso   1.000  C
  C188     1.0000 0.73280  0.05290  0.63210  Biso   1.000  C
  C189     1.0000 0.21600  0.29130  0.67710  Biso   1.000  C
  C190     1.0000 0.17120  0.28590  0.74590  Biso   1.000  C
  C191     1.0000 0.20280  0.22640  0.78060  Biso   1.000  C
  C192     1.0000 0.28280  0.17340  0.73940  Biso   1.000  C
  C193     1.0000 0.32240  0.18280  0.67120  Biso   1.000  C
  C194     1.0000 0.16020  0.21700  0.85420  Biso   1.000  C
  C195     1.0000 0.06920  0.24720  0.88920  Biso   1.000  C
  C196     1.0000 0.02950  0.23570  0.95970  Biso   1.000  C
  C197     1.0000 0.16240  0.16850  0.96430  Biso   1.000  C
  C198     1.0000 0.21030  0.17710  0.89110  Biso   1.000  C
  C199     1.0000 0.38880  0.30260  0.39700  Biso   1.000  C
  C200     1.0000 0.42100  0.30710  0.32690  Biso   1.000  C
  C201     1.0000 0.48150  0.24860  0.28820  Biso   1.000  C
  C202     1.0000 0.50650  0.19030  0.32590  Biso   1.000  C
  C203     1.0000 0.47100  0.19280  0.39480  Biso   1.000  C
  C204     1.0000 0.47270  0.27150  0.98370  Biso   1.000  C
  C205     1.0000 0.36870  0.30100  0.00300  Biso   1.000  C
  C206     1.0000 0.32410  0.25880  0.00760  Biso   1.000  C
  C207     1.0000 0.22860  0.28800  0.02400  Biso   1.000  C
  C208     1.0000 0.18550  0.35260  0.03260  Biso   1.000  C
  C209     1.0000 0.22760  0.39530  0.02590  Biso   1.000  C
  C210     1.0000 0.32300  0.36900  0.00980  Biso   1.000  C
  C211     1.0000 0.05160  0.39780  0.00420  Biso   1.000  C
  C212     1.0000 0.10160  0.40260  0.93620  Biso   1.000  C
  C213     1.0000 0.05540  0.41980  0.89300  Biso   1.000  C
  C214     1.0000 0.96600  0.43080  0.91500  Biso   1.000  C
  C215     1.0000 0.92160  0.42360  0.98460  Biso   1.000  C
  C216     1.0000 0.96310  0.40780  0.02980  Biso   1.000  C
  C217     1.0000 0.91780  0.44710  0.86790  Biso   1.000  C
  C218     1.0000 0.68440  0.20870  0.82290  Biso   1.000  C
  C219     1.0000 0.70300  0.21410  0.75410  Biso   1.000  C
  C220     1.0000 0.70980  0.27360  0.71940  Biso   1.000  C
  C221     1.0000 0.69560  0.32660  0.76060  Biso   1.000  C
  C222     1.0000 0.67640  0.31720  0.82880  Biso   1.000  C
  C223     1.0000 0.73140  0.28300  0.64580  Biso   1.000  C
  C224     1.0000 0.70560  0.25280  0.61080  Biso   1.000  C
  C225     1.0000 0.72490  0.26430  0.54030  Biso   1.000  C
  C226     1.0000 0.79520  0.33150  0.53570  Biso   1.000  C
  C227     1.0000 0.77850  0.32290  0.60890  Biso   1.000  C
  C228     1.0000 0.58840  0.19740  0.10300  Biso   1.000  C
  C229     1.0000 0.55500  0.19290  0.17310  Biso   1.000  C
  C230     1.0000 0.51830  0.25140  0.21180  Biso   1.000  C
  C231     1.0000 0.52270  0.30970  0.17410  Biso   1.000  C
  C232     1.0000 0.55860  0.30720  0.10520  Biso   1.000  C
  N13      1.0000 0.53190  0.13690  0.76010  Biso   1.000  N
  N14      1.0000 0.27350  0.49600  0.80340  Biso   1.000  N
  N15      1.0000 0.66270  0.93160  0.75080  Biso   1.000  N
  N16      1.0000 0.92890  0.36310  0.73990  Biso   1.000  N
  N17      1.0000 0.07290  0.00400  0.69660  Biso   1.000  N
  N18      1.0000 0.84510  0.56840  0.74920  Biso   1.000  N
  N19      1.0000 0.29200  0.23990  0.63690  Biso   1.000  N
  N20      1.0000 0.07690  0.19660  0.99600  Biso   1.000  N
  N21      1.0000 0.41350  0.24920  0.43160  Biso   1.000  N
  N22      1.0000 0.66880  0.26010  0.86310  Biso   1.000  N
  N23      1.0000 0.76950  0.30340  0.50400  Biso   1.000  N
  N24      1.0000 0.59430  0.25080  0.06840  Biso   1.000  N
  O21      1.0000 0.48670  0.02410  0.81010  Biso   1.000  O
  O22      1.0000 0.48980  0.02140  0.70880  Biso   1.000  O
  O23      1.0000 0.14540  0.94630  0.87950  Biso   1.000  O
  O24      1.0000 0.76570  0.19530  0.95190  Biso   1.000  O
  O25      1.0000 0.72350  0.11050  0.95490  Biso   1.000  O
  O26      1.0000 0.82090  0.47590  0.68990  Biso   1.000  O
  O27      1.0000 0.72000  0.47860  0.79120  Biso   1.000  O
  O28      1.0000 0.47120  0.55370  0.62050  Biso   1.000  O
  O29      1.0000 0.41290  0.30470  0.54810  Biso   1.000  O
  O30      1.0000 0.28890  0.38950  0.54510  Biso   1.000  O
  O31      1.0000 0.29680  0.18990  0.52410  Biso   1.000  O
  O32      1.0000 0.19860  0.29120  0.52140  Biso   1.000  O
  O33      1.0000 0.02490  0.12050  0.44630  Biso   1.000  O
  O34      1.0000 0.71760  0.04810  0.69530  Biso   1.000  O
  O35      1.0000 0.67840  0.04510  0.61050  Biso   1.000  O
  O36      1.0000 0.51080  0.31010  0.97590  Biso   1.000  O
  O37      1.0000 0.51120  0.20880  0.97860  Biso   1.000  O
  O38      1.0000 0.09170  0.37950  0.05370  Biso   1.000  O
  O39      1.0000 0.96100  0.45190  0.80470  Biso   1.000  O
  O40      1.0000 0.83400  0.45490  0.88950  Biso   1.000  O
