data_image0
_cell_length_a       15.868
_cell_length_b       15.868
_cell_length_c       21.28
_cell_angle_alpha    85.2714
_cell_angle_beta     85.2714
_cell_angle_gamma    60.6054

_symmetry_space_group_name_H-M    P 1
_symmetry_int_tables_number       1

loop_
  _symmetry_equiv_pos_as_xyz
  'x, y, z'

loop_
  _atom_site_label
  _atom_site_occupancy
  _atom_site_fract_x
  _atom_site_fract_y
  _atom_site_fract_z
  _atom_site_thermal_displace_type
  _atom_site_B_iso_or_equiv
  _atom_site_type_symbol
  Cu1      1.0000 0.49006  0.49676  0.31307  Biso   1.000  Cu
  Cu2      1.0000 0.94168  0.46144  0.00587  Biso   1.000  Cu
  Cu3      1.0000 0.50324  0.50994  0.18693  Biso   1.000  Cu
  Cu4      1.0000 0.53856  0.05832  0.49413  Biso   1.000  Cu
  Cu5      1.0000 0.50994  0.50324  0.68693  Biso   1.000  Cu
  Cu6      1.0000 0.05832  0.53856  0.99413  Biso   1.000  Cu
  Cu7      1.0000 0.49676  0.49006  0.81307  Biso   1.000  Cu
  Cu8      1.0000 0.46144  0.94168  0.50587  Biso   1.000  Cu
  H1       1.0000 0.40090  0.81350  0.15950  Biso   1.000  H
  H2       1.0000 0.35890  0.97450  0.15450  Biso   1.000  H
  H3       1.0000 0.41420  0.95420  0.33770  Biso   1.000  H
  H4       1.0000 0.45260  0.79300  0.34420  Biso   1.000  H
  H5       1.0000 0.09330  0.23390  0.14630  Biso   1.000  H
  H6       1.0000 0.20210  0.10170  0.20760  Biso   1.000  H
  H7       1.0000 0.38150  0.21630  0.19690  Biso   1.000  H
  H8       1.0000 0.27160  0.34660  0.13270  Biso   1.000  H
  H9       1.0000 0.71650  0.66450  0.13490  Biso   1.000  H
  H10      1.0000 0.60170  0.79550  0.19030  Biso   1.000  H
  H11      1.0000 0.77370  0.91810  0.16580  Biso   1.000  H
  H12      1.0000 0.88810  0.78510  0.10930  Biso   1.000  H
  H13      1.0000 0.59620  0.21260  0.13520  Biso   1.000  H
  H14      1.0000 0.61820  0.06000  0.12690  Biso   1.000  H
  H15      1.0000 0.56290  0.04110  0.31400  Biso   1.000  H
  H16      1.0000 0.53600  0.19900  0.32190  Biso   1.000  H
  H17      1.0000 0.85560  0.36100  0.94110  Biso   1.000  H
  H18      1.0000 0.78410  0.28290  0.08820  Biso   1.000  H
  H19      1.0000 0.70480  0.27020  0.05750  Biso   1.000  H
  H20      1.0000 0.68590  0.37410  0.07050  Biso   1.000  H
  H21      1.0000 0.70780  0.32220  0.91870  Biso   1.000  H
  H22      1.0000 0.73540  0.22840  0.96200  Biso   1.000  H
  H23      1.0000 0.81540  0.23820  0.91870  Biso   1.000  H
  H24      1.0000 0.18650  0.59910  0.34050  Biso   1.000  H
  H25      1.0000 0.02550  0.64110  0.34550  Biso   1.000  H
  H26      1.0000 0.04580  0.58580  0.16230  Biso   1.000  H
  H27      1.0000 0.20700  0.54740  0.15580  Biso   1.000  H
  H28      1.0000 0.76610  0.90670  0.35370  Biso   1.000  H
  H29      1.0000 0.89830  0.79790  0.29240  Biso   1.000  H
  H30      1.0000 0.78370  0.61850  0.30310  Biso   1.000  H
  H31      1.0000 0.65340  0.72840  0.36730  Biso   1.000  H
  H32      1.0000 0.33550  0.28350  0.36510  Biso   1.000  H
  H33      1.0000 0.20450  0.39830  0.30970  Biso   1.000  H
  H34      1.0000 0.08190  0.22630  0.33420  Biso   1.000  H
  H35      1.0000 0.21490  0.11190  0.39070  Biso   1.000  H
  H36      1.0000 0.78740  0.40380  0.36480  Biso   1.000  H
  H37      1.0000 0.94000  0.38180  0.37310  Biso   1.000  H
  H38      1.0000 0.95890  0.43710  0.18600  Biso   1.000  H
  H39      1.0000 0.80100  0.46400  0.17810  Biso   1.000  H
  H40      1.0000 0.63900  0.14440  0.55890  Biso   1.000  H
  H41      1.0000 0.71710  0.21590  0.41180  Biso   1.000  H
  H42      1.0000 0.72980  0.29520  0.44250  Biso   1.000  H
  H43      1.0000 0.62590  0.31410  0.42950  Biso   1.000  H
  H44      1.0000 0.67780  0.29220  0.58130  Biso   1.000  H
  H45      1.0000 0.77160  0.26460  0.53800  Biso   1.000  H
  H46      1.0000 0.76180  0.18460  0.58130  Biso   1.000  H
  H47      1.0000 0.59910  0.18650  0.84050  Biso   1.000  H
  H48      1.0000 0.64110  0.02550  0.84550  Biso   1.000  H
  H49      1.0000 0.58580  0.04580  0.66230  Biso   1.000  H
  H50      1.0000 0.54740  0.20700  0.65580  Biso   1.000  H
  H51      1.0000 0.90670  0.76610  0.85370  Biso   1.000  H
  H52      1.0000 0.79790  0.89830  0.79240  Biso   1.000  H
  H53      1.0000 0.61850  0.78370  0.80310  Biso   1.000  H
  H54      1.0000 0.72840  0.65340  0.86730  Biso   1.000  H
  H55      1.0000 0.28350  0.33550  0.86510  Biso   1.000  H
  H56      1.0000 0.39830  0.20450  0.80970  Biso   1.000  H
  H57      1.0000 0.22630  0.08190  0.83420  Biso   1.000  H
  H58      1.0000 0.11190  0.21490  0.89070  Biso   1.000  H
  H59      1.0000 0.40380  0.78740  0.86480  Biso   1.000  H
  H60      1.0000 0.38180  0.94000  0.87310  Biso   1.000  H
  H61      1.0000 0.43710  0.95890  0.68600  Biso   1.000  H
  H62      1.0000 0.46400  0.80100  0.67810  Biso   1.000  H
  H63      1.0000 0.14440  0.63900  0.05890  Biso   1.000  H
  H64      1.0000 0.21590  0.71710  0.91180  Biso   1.000  H
  H65      1.0000 0.29520  0.72980  0.94250  Biso   1.000  H
  H66      1.0000 0.31410  0.62590  0.92950  Biso   1.000  H
  H67      1.0000 0.29220  0.67780  0.08130  Biso   1.000  H
  H68      1.0000 0.26460  0.77160  0.03800  Biso   1.000  H
  H69      1.0000 0.18460  0.76180  0.08130  Biso   1.000  H
  H70      1.0000 0.81350  0.40090  0.65950  Biso   1.000  H
  H71      1.0000 0.97450  0.35890  0.65450  Biso   1.000  H
  H72      1.0000 0.95420  0.41420  0.83770  Biso   1.000  H
  H73      1.0000 0.79300  0.45260  0.84420  Biso   1.000  H
  H74      1.0000 0.23390  0.09330  0.64630  Biso   1.000  H
  H75      1.0000 0.10170  0.20210  0.70760  Biso   1.000  H
  H76      1.0000 0.21630  0.38150  0.69690  Biso   1.000  H
  H77      1.0000 0.34660  0.27160  0.63270  Biso   1.000  H
  H78      1.0000 0.66450  0.71650  0.63490  Biso   1.000  H
  H79      1.0000 0.79550  0.60170  0.69030  Biso   1.000  H
  H80      1.0000 0.91810  0.77370  0.66580  Biso   1.000  H
  H81      1.0000 0.78510  0.88810  0.60930  Biso   1.000  H
  H82      1.0000 0.21260  0.59620  0.63520  Biso   1.000  H
  H83      1.0000 0.06000  0.61820  0.62690  Biso   1.000  H
  H84      1.0000 0.04110  0.56290  0.81400  Biso   1.000  H
  H85      1.0000 0.19900  0.53600  0.82190  Biso   1.000  H
  H86      1.0000 0.36100  0.85560  0.44110  Biso   1.000  H
  H87      1.0000 0.28290  0.78410  0.58820  Biso   1.000  H
  H88      1.0000 0.27020  0.70480  0.55750  Biso   1.000  H
  H89      1.0000 0.37410  0.68590  0.57050  Biso   1.000  H
  H90      1.0000 0.32220  0.70780  0.41870  Biso   1.000  H
  H91      1.0000 0.22840  0.73540  0.46200  Biso   1.000  H
  H92      1.0000 0.23820  0.81540  0.41870  Biso   1.000  H
  C1       1.0000 0.45030  0.68190  0.25490  Biso   1.000  C
  C2       1.0000 0.42710  0.78470  0.25200  Biso   1.000  C
  C3       1.0000 0.40180  0.84160  0.19590  Biso   1.000  C
  C4       1.0000 0.37810  0.93770  0.19220  Biso   1.000  C
  C5       1.0000 0.38340  0.97940  0.24700  Biso   1.000  C
  C6       1.0000 0.41070  0.92590  0.30220  Biso   1.000  C
  C7       1.0000 0.43340  0.82900  0.30630  Biso   1.000  C
  C8       1.0000 0.10670  0.38110  0.08550  Biso   1.000  C
  C9       1.0000 0.17330  0.30350  0.12960  Biso   1.000  C
  C10      1.0000 0.15190  0.22950  0.15510  Biso   1.000  C
  C11      1.0000 0.21600  0.15060  0.19280  Biso   1.000  C
  C12      1.0000 0.30050  0.14790  0.20740  Biso   1.000  C
  C13      1.0000 0.32430  0.21950  0.18610  Biso   1.000  C
  C14      1.0000 0.25750  0.29770  0.14700  Biso   1.000  C
  C15      1.0000 0.88670  0.62890  0.07640  Biso   1.000  C
  C16      1.0000 0.81440  0.71300  0.11630  Biso   1.000  C
  C17      1.0000 0.72750  0.71570  0.14100  Biso   1.000  C
  C18      1.0000 0.65860  0.79400  0.17410  Biso   1.000  C
  C19      1.0000 0.67560  0.87060  0.18300  Biso   1.000  C
  C20      1.0000 0.76190  0.86770  0.15930  Biso   1.000  C
  C21      1.0000 0.83080  0.78720  0.12540  Biso   1.000  C
  C22      1.0000 0.54130  0.32710  0.23300  Biso   1.000  C
  C23      1.0000 0.56050  0.22410  0.22880  Biso   1.000  C
  C24      1.0000 0.58800  0.17920  0.17100  Biso   1.000  C
  C25      1.0000 0.60330  0.08750  0.16600  Biso   1.000  C
  C26      1.0000 0.59600  0.03540  0.22060  Biso   1.000  C
  C27      1.0000 0.56950  0.07590  0.27840  Biso   1.000  C
  C28      1.0000 0.55260  0.17120  0.28280  Biso   1.000  C
  C29      1.0000 0.83100  0.35900  0.98200  Biso   1.000  C
  C30      1.0000 0.73400  0.31000  0.05800  Biso   1.000  C
  C31      1.0000 0.75700  0.27300  0.94400  Biso   1.000  C
  C32      1.0000 0.31810  0.54970  0.24510  Biso   1.000  C
  C33      1.0000 0.21530  0.57290  0.24800  Biso   1.000  C
  C34      1.0000 0.15840  0.59820  0.30410  Biso   1.000  C
  C35      1.0000 0.06230  0.62190  0.30780  Biso   1.000  C
  C36      1.0000 0.02060  0.61660  0.25300  Biso   1.000  C
  C37      1.0000 0.07410  0.58930  0.19780  Biso   1.000  C
  C38      1.0000 0.17100  0.56660  0.19370  Biso   1.000  C
  C39      1.0000 0.61890  0.89330  0.41450  Biso   1.000  C
  C40      1.0000 0.69650  0.82670  0.37040  Biso   1.000  C
  C41      1.0000 0.77050  0.84810  0.34490  Biso   1.000  C
  C42      1.0000 0.84940  0.78400  0.30720  Biso   1.000  C
  C43      1.0000 0.85210  0.69950  0.29260  Biso   1.000  C
  C44      1.0000 0.78050  0.67570  0.31390  Biso   1.000  C
  C45      1.0000 0.70230  0.74250  0.35300  Biso   1.000  C
  C46      1.0000 0.37110  0.11330  0.42360  Biso   1.000  C
  C47      1.0000 0.28700  0.18560  0.38370  Biso   1.000  C
  C48      1.0000 0.28430  0.27250  0.35900  Biso   1.000  C
  C49      1.0000 0.20600  0.34140  0.32590  Biso   1.000  C
  C50      1.0000 0.12940  0.32440  0.31700  Biso   1.000  C
  C51      1.0000 0.13230  0.23810  0.34070  Biso   1.000  C
  C52      1.0000 0.21280  0.16920  0.37460  Biso   1.000  C
  C53      1.0000 0.67290  0.45870  0.26700  Biso   1.000  C
  C54      1.0000 0.77590  0.43950  0.27120  Biso   1.000  C
  C55      1.0000 0.82080  0.41200  0.32900  Biso   1.000  C
  C56      1.0000 0.91250  0.39670  0.33400  Biso   1.000  C
  C57      1.0000 0.96460  0.40400  0.27940  Biso   1.000  C
  C58      1.0000 0.92410  0.43050  0.22160  Biso   1.000  C
  C59      1.0000 0.82880  0.44740  0.21720  Biso   1.000  C
  C60      1.0000 0.64100  0.16900  0.51800  Biso   1.000  C
  C61      1.0000 0.69000  0.26600  0.44200  Biso   1.000  C
  C62      1.0000 0.72700  0.24300  0.55600  Biso   1.000  C
  C63      1.0000 0.54970  0.31810  0.74510  Biso   1.000  C
  C64      1.0000 0.57290  0.21530  0.74800  Biso   1.000  C
  C65      1.0000 0.59820  0.15840  0.80410  Biso   1.000  C
  C66      1.0000 0.62190  0.06230  0.80780  Biso   1.000  C
  C67      1.0000 0.61660  0.02060  0.75300  Biso   1.000  C
  C68      1.0000 0.58930  0.07410  0.69780  Biso   1.000  C
  C69      1.0000 0.56660  0.17100  0.69370  Biso   1.000  C
  C70      1.0000 0.89330  0.61890  0.91450  Biso   1.000  C
  C71      1.0000 0.82670  0.69650  0.87040  Biso   1.000  C
  C72      1.0000 0.84810  0.77050  0.84490  Biso   1.000  C
  C73      1.0000 0.78400  0.84940  0.80720  Biso   1.000  C
  C74      1.0000 0.69950  0.85210  0.79260  Biso   1.000  C
  C75      1.0000 0.67570  0.78050  0.81390  Biso   1.000  C
  C76      1.0000 0.74250  0.70230  0.85300  Biso   1.000  C
  C77      1.0000 0.11330  0.37110  0.92360  Biso   1.000  C
  C78      1.0000 0.18560  0.28700  0.88370  Biso   1.000  C
  C79      1.0000 0.27250  0.28430  0.85900  Biso   1.000  C
  C80      1.0000 0.34140  0.20600  0.82590  Biso   1.000  C
  C81      1.0000 0.32440  0.12940  0.81700  Biso   1.000  C
  C82      1.0000 0.23810  0.13230  0.84070  Biso   1.000  C
  C83      1.0000 0.16920  0.21280  0.87460  Biso   1.000  C
  C84      1.0000 0.45870  0.67290  0.76700  Biso   1.000  C
  C85      1.0000 0.43950  0.77590  0.77120  Biso   1.000  C
  C86      1.0000 0.41200  0.82080  0.82900  Biso   1.000  C
  C87      1.0000 0.39670  0.91250  0.83400  Biso   1.000  C
  C88      1.0000 0.40400  0.96460  0.77940  Biso   1.000  C
  C89      1.0000 0.43050  0.92410  0.72160  Biso   1.000  C
  C90      1.0000 0.44740  0.82880  0.71720  Biso   1.000  C
  C91      1.0000 0.16900  0.64100  0.01800  Biso   1.000  C
  C92      1.0000 0.26600  0.69000  0.94200  Biso   1.000  C
  C93      1.0000 0.24300  0.72700  0.05600  Biso   1.000  C
  C94      1.0000 0.68190  0.45030  0.75490  Biso   1.000  C
  C95      1.0000 0.78470  0.42710  0.75200  Biso   1.000  C
  C96      1.0000 0.84160  0.40180  0.69590  Biso   1.000  C
  C97      1.0000 0.93770  0.37810  0.69220  Biso   1.000  C
  C98      1.0000 0.97940  0.38340  0.74700  Biso   1.000  C
  C99      1.0000 0.92590  0.41070  0.80220  Biso   1.000  C
  C100     1.0000 0.82900  0.43340  0.80630  Biso   1.000  C
  C101     1.0000 0.38110  0.10670  0.58550  Biso   1.000  C
  C102     1.0000 0.30350  0.17330  0.62960  Biso   1.000  C
  C103     1.0000 0.22950  0.15190  0.65510  Biso   1.000  C
  C104     1.0000 0.15060  0.21600  0.69280  Biso   1.000  C
  C105     1.0000 0.14790  0.30050  0.70740  Biso   1.000  C
  C106     1.0000 0.21950  0.32430  0.68610  Biso   1.000  C
  C107     1.0000 0.29770  0.25750  0.64700  Biso   1.000  C
  C108     1.0000 0.62890  0.88670  0.57640  Biso   1.000  C
  C109     1.0000 0.71300  0.81440  0.61630  Biso   1.000  C
  C110     1.0000 0.71570  0.72750  0.64100  Biso   1.000  C
  C111     1.0000 0.79400  0.65860  0.67410  Biso   1.000  C
  C112     1.0000 0.87060  0.67560  0.68300  Biso   1.000  C
  C113     1.0000 0.86770  0.76190  0.65930  Biso   1.000  C
  C114     1.0000 0.78720  0.83080  0.62540  Biso   1.000  C
  C115     1.0000 0.32710  0.54130  0.73300  Biso   1.000  C
  C116     1.0000 0.22410  0.56050  0.72880  Biso   1.000  C
  C117     1.0000 0.17920  0.58800  0.67100  Biso   1.000  C
  C118     1.0000 0.08750  0.60330  0.66600  Biso   1.000  C
  C119     1.0000 0.03540  0.59600  0.72060  Biso   1.000  C
  C120     1.0000 0.07590  0.56950  0.77840  Biso   1.000  C
  C121     1.0000 0.17120  0.55260  0.78280  Biso   1.000  C
  C122     1.0000 0.35900  0.83100  0.48200  Biso   1.000  C
  C123     1.0000 0.31000  0.73400  0.55800  Biso   1.000  C
  C124     1.0000 0.27300  0.75700  0.44400  Biso   1.000  C
  N1       1.0000 0.77570  0.31770  0.99600  Biso   1.000  N
  N2       1.0000 0.68230  0.22430  0.50400  Biso   1.000  N
  N3       1.0000 0.22430  0.68230  0.00400  Biso   1.000  N
  N4       1.0000 0.31770  0.77570  0.49600  Biso   1.000  N
  O1       1.0000 0.46520  0.63400  0.30640  Biso   1.000  O
  O2       1.0000 0.45560  0.64740  0.20030  Biso   1.000  O
  O3       1.0000 0.03030  0.37910  0.07170  Biso   1.000  O
  O4       1.0000 0.13050  0.44410  0.06260  Biso   1.000  O
  O5       1.0000 0.36800  0.07120  0.24780  Biso   1.000  O
  O6       1.0000 0.86390  0.56350  0.06710  Biso   1.000  O
  O7       1.0000 0.96330  0.62910  0.05650  Biso   1.000  O
  O8       1.0000 0.51740  0.36220  0.28960  Biso   1.000  O
  O9       1.0000 0.54950  0.37190  0.18600  Biso   1.000  O
  O10      1.0000 0.60510  0.94430  0.22010  Biso   1.000  O
  O11      1.0000 0.84800  0.39200  0.02400  Biso   1.000  O
  O12      1.0000 0.36600  0.53480  0.19360  Biso   1.000  O
  O13      1.0000 0.35260  0.54440  0.29970  Biso   1.000  O
  O14      1.0000 0.62090  0.96970  0.42830  Biso   1.000  O
  O15      1.0000 0.55590  0.86950  0.43740  Biso   1.000  O
  O16      1.0000 0.92880  0.63200  0.25220  Biso   1.000  O
  O17      1.0000 0.43650  0.13610  0.43290  Biso   1.000  O
  O18      1.0000 0.37090  0.03670  0.44350  Biso   1.000  O
  O19      1.0000 0.63780  0.48260  0.21040  Biso   1.000  O
  O20      1.0000 0.62810  0.45050  0.31400  Biso   1.000  O
  O21      1.0000 0.05570  0.39490  0.27990  Biso   1.000  O
  O22      1.0000 0.60800  0.15200  0.47600  Biso   1.000  O
  O23      1.0000 0.53480  0.36600  0.69360  Biso   1.000  O
  O24      1.0000 0.54440  0.35260  0.79970  Biso   1.000  O
  O25      1.0000 0.96970  0.62090  0.92830  Biso   1.000  O
  O26      1.0000 0.86950  0.55590  0.93740  Biso   1.000  O
  O27      1.0000 0.63200  0.92880  0.75220  Biso   1.000  O
  O28      1.0000 0.13610  0.43650  0.93290  Biso   1.000  O
  O29      1.0000 0.03670  0.37090  0.94350  Biso   1.000  O
  O30      1.0000 0.48260  0.63780  0.71040  Biso   1.000  O
  O31      1.0000 0.45050  0.62810  0.81400  Biso   1.000  O
  O32      1.0000 0.39490  0.05570  0.77990  Biso   1.000  O
  O33      1.0000 0.15200  0.60800  0.97600  Biso   1.000  O
  O34      1.0000 0.63400  0.46520  0.80640  Biso   1.000  O
  O35      1.0000 0.64740  0.45560  0.70030  Biso   1.000  O
  O36      1.0000 0.37910  0.03030  0.57170  Biso   1.000  O
  O37      1.0000 0.44410  0.13050  0.56260  Biso   1.000  O
  O38      1.0000 0.07120  0.36800  0.74780  Biso   1.000  O
  O39      1.0000 0.56350  0.86390  0.56710  Biso   1.000  O
  O40      1.0000 0.62910  0.96330  0.55650  Biso   1.000  O
  O41      1.0000 0.36220  0.51740  0.78960  Biso   1.000  O
  O42      1.0000 0.37190  0.54950  0.68600  Biso   1.000  O
  O43      1.0000 0.94430  0.60510  0.72010  Biso   1.000  O
  O44      1.0000 0.39200  0.84800  0.52400  Biso   1.000  O
