data_LEDNEP_charged
_audit_creation_date              2014-07-02
_audit_creation_method            'Materials Studio'
_symmetry_space_group_name_H-M    'P1'
_symmetry_Int_Tables_number       1
_symmetry_cell_setting            triclinic
loop_
_symmetry_equiv_pos_as_xyz
  x,y,z
_cell_length_a                    9.7641
_cell_length_b                    14.0488
_cell_length_c                    14.0488
_cell_angle_alpha                 94.9531
_cell_angle_beta                  104.1960
_cell_angle_gamma                 104.1960
loop_
_atom_site_label
_atom_site_type_symbol
_atom_site_fract_x
_atom_site_fract_y
_atom_site_fract_z
_atom_site_U_iso_or_equiv
_atom_site_adp_type
_atom_site_occupancy
Yb1    Yb    0.84363   0.36907   0.19712   0.01267  Uiso   1.00
Yb2    Yb    0.65637   0.80288   0.63093   0.01267  Uiso   1.00
Yb3    Yb    0.15637   0.63093   0.80288   0.01267  Uiso   1.00
Yb4    Yb    0.34363   0.19712   0.36907   0.01267  Uiso   1.00
Yb5    Yb    0.75000   0.21873   0.78127   0.01267  Uiso   1.00
Yb6    Yb    0.25000   0.78127   0.21873   0.01267  Uiso   1.00
H1     H     0.36640   0.26100   0.85480   0.01267  Uiso   1.00
H2     H     0.19000   0.40570   0.02530   0.01267  Uiso   1.00
H3     H     0.16390   0.31010   0.88050   0.01267  Uiso   1.00
H4     H     0.87300   0.16800   0.93600   0.01267  Uiso   1.00
H5     H     0.89700   0.26100   0.98300   0.01267  Uiso   1.00
H6     H     0.13360   0.14520   0.73900   0.01267  Uiso   1.00
H7     H     0.31000   0.97470   0.59430   0.01267  Uiso   1.00
H8     H     0.33610   0.11950   0.68990   0.01267  Uiso   1.00
H9     H     0.62700   0.06400   0.83200   0.01267  Uiso   1.00
H10    H     0.60300   0.01700   0.73900   0.01267  Uiso   1.00
H11    H     0.63360   0.73900   0.14520   0.01267  Uiso   1.00
H12    H     0.81000   0.59430   0.97470   0.01267  Uiso   1.00
H13    H     0.83610   0.68990   0.11950   0.01267  Uiso   1.00
H14    H     0.12700   0.83200   0.06400   0.01267  Uiso   1.00
H15    H     0.10300   0.73900   0.01700   0.01267  Uiso   1.00
H16    H     0.86640   0.85480   0.26100   0.01267  Uiso   1.00
H17    H     0.69000   0.02530   0.40570   0.01267  Uiso   1.00
H18    H     0.66390   0.88050   0.31010   0.01267  Uiso   1.00
H19    H     0.37300   0.93600   0.16800   0.01267  Uiso   1.00
H20    H     0.39700   0.98300   0.26100   0.01267  Uiso   1.00
C1     C     0.52160   0.38560   0.07700   0.01267  Uiso   1.00
C2     C     0.13780   0.33460   0.32040   0.01267  Uiso   1.00
C3     C     0.62990   0.28780   0.96800   0.01267  Uiso   1.00
C4     C     0.08580   0.25430   0.22870   0.01267  Uiso   1.00
C5     C     0.91630   0.44970   0.83130   0.01267  Uiso   1.00
C6     C     0.50520   0.32380   0.98660   0.01267  Uiso   1.00
C7     C     0.37520   0.29890   0.91490   0.01267  Uiso   1.00
C8     C     0.26940   0.38530   0.01450   0.01267  Uiso   1.00
C9     C     0.25330   0.32900   0.92940   0.01267  Uiso   1.00
C10    C     0.98600   0.40550   0.75670   0.01267  Uiso   1.00
C11    C     0.97840   0.92300   0.61440   0.01267  Uiso   1.00
C12    C     0.36220   0.67960   0.66540   0.01267  Uiso   1.00
C13    C     0.87010   0.03200   0.71220   0.01267  Uiso   1.00
C14    C     0.41420   0.77130   0.74570   0.01267  Uiso   1.00
C15    C     0.58370   0.16870   0.55030   0.01267  Uiso   1.00
C16    C     0.99480   0.01340   0.67620   0.01267  Uiso   1.00
C17    C     0.12480   0.08510   0.70110   0.01267  Uiso   1.00
C18    C     0.23060   0.98550   0.61470   0.01267  Uiso   1.00
C19    C     0.24670   0.07060   0.67100   0.01267  Uiso   1.00
C20    C     0.51400   0.24330   0.59450   0.01267  Uiso   1.00
C21    C     0.47840   0.61440   0.92300   0.01267  Uiso   1.00
C22    C     0.86220   0.66540   0.67960   0.01267  Uiso   1.00
C23    C     0.37010   0.71220   0.03200   0.01267  Uiso   1.00
C24    C     0.91420   0.74570   0.77130   0.01267  Uiso   1.00
C25    C     0.08370   0.55030   0.16870   0.01267  Uiso   1.00
C26    C     0.49480   0.67620   0.01340   0.01267  Uiso   1.00
C27    C     0.62480   0.70110   0.08510   0.01267  Uiso   1.00
C28    C     0.73060   0.61470   0.98550   0.01267  Uiso   1.00
C29    C     0.74670   0.67100   0.07060   0.01267  Uiso   1.00
C30    C     0.01400   0.59450   0.24330   0.01267  Uiso   1.00
C31    C     0.02160   0.07700   0.38560   0.01267  Uiso   1.00
C32    C     0.63780   0.32040   0.33460   0.01267  Uiso   1.00
C33    C     0.12990   0.96800   0.28780   0.01267  Uiso   1.00
C34    C     0.58580   0.22870   0.25430   0.01267  Uiso   1.00
C35    C     0.41630   0.83130   0.44970   0.01267  Uiso   1.00
C36    C     0.00520   0.98660   0.32380   0.01267  Uiso   1.00
C37    C     0.87520   0.91490   0.29890   0.01267  Uiso   1.00
C38    C     0.76940   0.01450   0.38530   0.01267  Uiso   1.00
C39    C     0.75330   0.92940   0.32900   0.01267  Uiso   1.00
C40    C     0.48600   0.75670   0.40550   0.01267  Uiso   1.00
N1     N     0.39960   0.41330   0.08590   0.01267  Uiso   1.00
N2     N     0.10040   0.91410   0.58670   0.01267  Uiso   1.00
N3     N     0.60040   0.58670   0.91410   0.01267  Uiso   1.00
N4     N     0.89960   0.08590   0.41330   0.01267  Uiso   1.00
O1     O     0.63550   0.41780   0.14920   0.01267  Uiso   1.00
O2     O     0.05390   0.38640   0.32920   0.01267  Uiso   1.00
O3     O     0.75170   0.31000   0.03480   0.01267  Uiso   1.00
O4     O     0.81290   0.39050   0.84910   0.01267  Uiso   1.00
O5     O     0.60780   0.23700   0.88500   0.01267  Uiso   1.00
O6     O     0.91210   0.22900   0.93380   0.01267  Uiso   1.00
O7     O     0.96400   0.24950   0.16910   0.01267  Uiso   1.00
O8     O     0.97390   0.53960   0.86640   0.01267  Uiso   1.00
O9     O     0.25980   0.34030   0.37930   0.01267  Uiso   1.00
O10    O     0.16720   0.19950   0.22050   0.01267  Uiso   1.00
O11    O     0.93190   0.31480   0.72200   0.01267  Uiso   1.00
O12    O     0.08910   0.46360   0.73440   0.01267  Uiso   1.00
O13    O     0.86450   0.85080   0.58220   0.01267  Uiso   1.00
O14    O     0.44610   0.67080   0.61360   0.01267  Uiso   1.00
O15    O     0.74830   0.96520   0.69000   0.01267  Uiso   1.00
O16    O     0.68710   0.15090   0.60950   0.01267  Uiso   1.00
O17    O     0.89220   0.11500   0.76300   0.01267  Uiso   1.00
O18    O     0.58790   0.06620   0.77100   0.01267  Uiso   1.00
O19    O     0.53600   0.83090   0.75050   0.01267  Uiso   1.00
O20    O     0.52610   0.13360   0.46040   0.01267  Uiso   1.00
O21    O     0.24020   0.62070   0.65970   0.01267  Uiso   1.00
O22    O     0.33280   0.77950   0.80050   0.01267  Uiso   1.00
O23    O     0.56810   0.27800   0.68520   0.01267  Uiso   1.00
O24    O     0.41090   0.26560   0.53640   0.01267  Uiso   1.00
O25    O     0.36450   0.58220   0.85080   0.01267  Uiso   1.00
O26    O     0.94610   0.61360   0.67080   0.01267  Uiso   1.00
O27    O     0.24830   0.69000   0.96520   0.01267  Uiso   1.00
O28    O     0.18710   0.60950   0.15090   0.01267  Uiso   1.00
O29    O     0.39220   0.76300   0.11500   0.01267  Uiso   1.00
O30    O     0.08790   0.77100   0.06620   0.01267  Uiso   1.00
O31    O     0.03600   0.75050   0.83090   0.01267  Uiso   1.00
O32    O     0.02610   0.46040   0.13360   0.01267  Uiso   1.00
O33    O     0.74020   0.65970   0.62070   0.01267  Uiso   1.00
O34    O     0.83280   0.80050   0.77950   0.01267  Uiso   1.00
O35    O     0.06810   0.68520   0.27800   0.01267  Uiso   1.00
O36    O     0.91090   0.53640   0.26560   0.01267  Uiso   1.00
O37    O     0.13550   0.14920   0.41780   0.01267  Uiso   1.00
O38    O     0.55390   0.32920   0.38640   0.01267  Uiso   1.00
O39    O     0.25170   0.03480   0.31000   0.01267  Uiso   1.00
O40    O     0.31290   0.84910   0.39050   0.01267  Uiso   1.00
O41    O     0.10780   0.88500   0.23700   0.01267  Uiso   1.00
O42    O     0.41210   0.93380   0.22900   0.01267  Uiso   1.00
O43    O     0.46400   0.16910   0.24950   0.01267  Uiso   1.00
O44    O     0.47390   0.86640   0.53960   0.01267  Uiso   1.00
O45    O     0.75980   0.37930   0.34030   0.01267  Uiso   1.00
O46    O     0.66720   0.22050   0.19950   0.01267  Uiso   1.00
O47    O     0.43190   0.72200   0.31480   0.01267  Uiso   1.00
O48    O     0.58910   0.73440   0.46360   0.01267  Uiso   1.00
