data_image0
_cell_length_a       10.185
_cell_length_b       13.8967
_cell_length_c       22.79
_cell_angle_alpha    97.1345
_cell_angle_beta     90
_cell_angle_gamma    111.497

_symmetry_space_group_name_H-M    P 1
_symmetry_int_tables_number       1

loop_
  _symmetry_equiv_pos_as_xyz
  'x, y, z'

loop_
  _atom_site_label
  _atom_site_occupancy
  _atom_site_fract_x
  _atom_site_fract_y
  _atom_site_fract_z
  _atom_site_thermal_displace_type
  _atom_site_B_iso_or_equiv
  _atom_site_type_symbol
  Cu1      1.0000 0.88846  0.59180  0.45879  Biso   1.000  Cu
  Cu2      1.0000 0.29666  0.40820  0.04121  Biso   1.000  Cu
  Cu3      1.0000 0.11154  0.40820  0.54121  Biso   1.000  Cu
  Cu4      1.0000 0.70334  0.59180  0.95879  Biso   1.000  Cu
  Cu5      1.0000 0.63042  0.00000  0.25000  Biso   1.000  Cu
  Cu6      1.0000 0.36958  0.00000  0.75000  Biso   1.000  Cu
  H1       1.0000 0.24350  0.72700  0.37220  Biso   1.000  H
  H2       1.0000 0.44500  0.60360  0.47310  Biso   1.000  H
  H3       1.0000 0.65450  0.78240  0.35190  Biso   1.000  H
  H4       1.0000 0.58470  0.19560  0.32440  Biso   1.000  H
  H5       1.0000 0.71860  0.99140  0.37980  Biso   1.000  H
  H6       1.0000 0.61280  0.23440  0.43200  Biso   1.000  H
  H7       1.0000 0.73910  0.04040  0.48900  Biso   1.000  H
  H8       1.0000 0.75490  0.15580  0.51140  Biso   1.000  H
  H9       1.0000 0.56870  0.04520  0.55610  Biso   1.000  H
  H10      1.0000 0.51230  0.10480  0.51490  Biso   1.000  H
  H11      1.0000 0.98340  0.60480  0.32970  Biso   1.000  H
  H12      1.0000 0.64080  0.39780  0.37950  Biso   1.000  H
  H13      1.0000 0.62990  0.37500  0.27130  Biso   1.000  H
  H14      1.0000 0.95500  0.56280  0.21840  Biso   1.000  H
  H15      1.0000 0.85040  0.44940  0.19520  Biso   1.000  H
  H16      1.0000 0.66530  0.50840  0.18910  Biso   1.000  H
  H17      1.0000 0.78770  0.56880  0.15050  Biso   1.000  H
  H18      1.0000 0.72890  0.65020  0.26200  Biso   1.000  H
  H19      1.0000 0.86010  0.71040  0.22740  Biso   1.000  H
  H20      1.0000 0.68670  0.77620  0.21420  Biso   1.000  H
  H21      1.0000 0.57670  0.66440  0.19140  Biso   1.000  H
  H22      1.0000 0.57640  0.59560  0.08310  Biso   1.000  H
  H23      1.0000 0.89780  0.85520  0.13860  Biso   1.000  H
  H24      1.0000 0.91500  0.80520  0.03200  Biso   1.000  H
  H25      1.0000 0.51650  0.27300  0.12780  Biso   1.000  H
  H26      1.0000 0.84140  0.39640  0.02690  Biso   1.000  H
  H27      1.0000 0.87210  0.21760  0.14810  Biso   1.000  H
  H28      1.0000 0.38910  0.80440  0.17560  Biso   1.000  H
  H29      1.0000 0.72720  0.00860  0.12020  Biso   1.000  H
  H30      1.0000 0.37840  0.76560  0.06800  Biso   1.000  H
  H31      1.0000 0.69870  0.95960  0.01100  Biso   1.000  H
  H32      1.0000 0.59910  0.84420  0.98860  Biso   1.000  H
  H33      1.0000 0.52350  0.95480  0.94390  Biso   1.000  H
  H34      1.0000 0.40750  0.89520  0.98510  Biso   1.000  H
  H35      1.0000 0.37860  0.39520  0.17030  Biso   1.000  H
  H36      1.0000 0.24300  0.60220  0.12050  Biso   1.000  H
  H37      1.0000 0.25490  0.62500  0.22870  Biso   1.000  H
  H38      1.0000 0.39220  0.43720  0.28160  Biso   1.000  H
  H39      1.0000 0.40100  0.55060  0.30480  Biso   1.000  H
  H40      1.0000 0.15690  0.49160  0.31090  Biso   1.000  H
  H41      1.0000 0.21890  0.43120  0.34950  Biso   1.000  H
  H42      1.0000 0.07870  0.34980  0.23800  Biso   1.000  H
  H43      1.0000 0.14970  0.28960  0.27260  Biso   1.000  H
  H44      1.0000 0.91050  0.22380  0.28580  Biso   1.000  H
  H45      1.0000 0.91230  0.33560  0.30860  Biso   1.000  H
  H46      1.0000 0.98080  0.40440  0.41690  Biso   1.000  H
  H47      1.0000 0.04260  0.14480  0.36140  Biso   1.000  H
  H48      1.0000 0.10980  0.19480  0.46800  Biso   1.000  H
  H49      1.0000 0.75650  0.27300  0.62780  Biso   1.000  H
  H50      1.0000 0.55500  0.39640  0.52690  Biso   1.000  H
  H51      1.0000 0.34550  0.21760  0.64810  Biso   1.000  H
  H52      1.0000 0.41530  0.80440  0.67560  Biso   1.000  H
  H53      1.0000 0.28140  0.00860  0.62020  Biso   1.000  H
  H54      1.0000 0.38720  0.76560  0.56800  Biso   1.000  H
  H55      1.0000 0.26090  0.95960  0.51100  Biso   1.000  H
  H56      1.0000 0.24510  0.84420  0.48860  Biso   1.000  H
  H57      1.0000 0.43130  0.95480  0.44390  Biso   1.000  H
  H58      1.0000 0.48770  0.89520  0.48510  Biso   1.000  H
  H59      1.0000 0.01660  0.39520  0.67030  Biso   1.000  H
  H60      1.0000 0.35920  0.60220  0.62050  Biso   1.000  H
  H61      1.0000 0.37010  0.62500  0.72870  Biso   1.000  H
  H62      1.0000 0.04500  0.43720  0.78160  Biso   1.000  H
  H63      1.0000 0.14960  0.55060  0.80480  Biso   1.000  H
  H64      1.0000 0.33470  0.49160  0.81090  Biso   1.000  H
  H65      1.0000 0.21230  0.43120  0.84950  Biso   1.000  H
  H66      1.0000 0.27110  0.34980  0.73800  Biso   1.000  H
  H67      1.0000 0.13990  0.28960  0.77260  Biso   1.000  H
  H68      1.0000 0.31330  0.22380  0.78580  Biso   1.000  H
  H69      1.0000 0.42330  0.33560  0.80860  Biso   1.000  H
  H70      1.0000 0.42360  0.40440  0.91690  Biso   1.000  H
  H71      1.0000 0.10220  0.14480  0.86140  Biso   1.000  H
  H72      1.0000 0.08500  0.19480  0.96800  Biso   1.000  H
  H73      1.0000 0.48350  0.72700  0.87220  Biso   1.000  H
  H74      1.0000 0.15860  0.60360  0.97310  Biso   1.000  H
  H75      1.0000 0.12790  0.78240  0.85190  Biso   1.000  H
  H76      1.0000 0.61090  0.19560  0.82440  Biso   1.000  H
  H77      1.0000 0.27280  0.99140  0.87980  Biso   1.000  H
  H78      1.0000 0.62160  0.23440  0.93200  Biso   1.000  H
  H79      1.0000 0.30130  0.04040  0.98900  Biso   1.000  H
  H80      1.0000 0.40090  0.15580  0.01140  Biso   1.000  H
  H81      1.0000 0.47650  0.04520  0.05610  Biso   1.000  H
  H82      1.0000 0.59250  0.10480  0.01490  Biso   1.000  H
  H83      1.0000 0.62140  0.60480  0.82970  Biso   1.000  H
  H84      1.0000 0.75700  0.39780  0.87950  Biso   1.000  H
  H85      1.0000 0.74510  0.37500  0.77130  Biso   1.000  H
  H86      1.0000 0.60780  0.56280  0.71840  Biso   1.000  H
  H87      1.0000 0.59900  0.44940  0.69520  Biso   1.000  H
  H88      1.0000 0.84310  0.50840  0.68910  Biso   1.000  H
  H89      1.0000 0.78110  0.56880  0.65050  Biso   1.000  H
  H90      1.0000 0.92130  0.65020  0.76200  Biso   1.000  H
  H91      1.0000 0.85030  0.71040  0.72740  Biso   1.000  H
  H92      1.0000 0.08950  0.77620  0.71420  Biso   1.000  H
  H93      1.0000 0.08770  0.66440  0.69140  Biso   1.000  H
  H94      1.0000 0.01920  0.59560  0.58310  Biso   1.000  H
  H95      1.0000 0.95740  0.85520  0.63860  Biso   1.000  H
  H96      1.0000 0.89020  0.80520  0.53200  Biso   1.000  H
  C1       1.0000 0.32627  0.71874  0.38321  Biso   1.000  C
  C2       1.0000 0.32627  0.65834  0.42823  Biso   1.000  C
  C3       1.0000 0.44666  0.64492  0.44373  Biso   1.000  C
  C4       1.0000 0.57290  0.69200  0.41650  Biso   1.000  C
  C5       1.0000 0.57216  0.75192  0.37130  Biso   1.000  C
  C6       1.0000 0.44977  0.76594  0.35530  Biso   1.000  C
  C7       1.0000 0.19100  0.60900  0.45910  Biso   1.000  C
  C8       1.0000 0.70710  0.67680  0.43080  Biso   1.000  C
  C9       1.0000 0.45470  0.83460  0.30850  Biso   1.000  C
  C10      1.0000 0.61470  0.15860  0.34930  Biso   1.000  C
  C11      1.0000 0.68800  0.04680  0.37940  Biso   1.000  C
  C12      1.0000 0.63010  0.18080  0.40860  Biso   1.000  C
  C13      1.0000 0.69440  0.09100  0.48840  Biso   1.000  C
  C14      1.0000 0.55380  0.05220  0.51500  Biso   1.000  C
  C15      1.0000 0.89640  0.55020  0.32900  Biso   1.000  C
  C16      1.0000 0.70920  0.43720  0.35600  Biso   1.000  C
  C17      1.0000 0.70230  0.42380  0.29620  Biso   1.000  C
  C18      1.0000 0.85800  0.51460  0.21860  Biso   1.000  C
  C19      1.0000 0.76120  0.55900  0.19090  Biso   1.000  C
  C20      1.0000 0.76310  0.66120  0.22270  Biso   1.000  C
  C21      1.0000 0.67560  0.70900  0.19220  Biso   1.000  C
  C22      1.0000 0.65940  0.65380  0.08320  Biso   1.000  C
  C23      1.0000 0.83580  0.79700  0.11480  Biso   1.000  C
  C24      1.0000 0.84410  0.76840  0.05550  Biso   1.000  C
  C25      1.0000 0.60753  0.28126  0.11679  Biso   1.000  C
  C26      1.0000 0.66793  0.34166  0.07177  Biso   1.000  C
  C27      1.0000 0.80174  0.35508  0.05627  Biso   1.000  C
  C28      1.0000 0.88090  0.30800  0.08350  Biso   1.000  C
  C29      1.0000 0.82024  0.24808  0.12870  Biso   1.000  C
  C30      1.0000 0.68383  0.23406  0.14470  Biso   1.000  C
  C31      1.0000 0.58200  0.39100  0.04090  Biso   1.000  C
  C32      1.0000 0.03030  0.32320  0.06920  Biso   1.000  C
  C33      1.0000 0.62010  0.16540  0.19150  Biso   1.000  C
  C34      1.0000 0.45610  0.84140  0.15070  Biso   1.000  C
  C35      1.0000 0.64120  0.95320  0.12060  Biso   1.000  C
  C36      1.0000 0.44930  0.81920  0.09140  Biso   1.000  C
  C37      1.0000 0.60340  0.90900  0.01160  Biso   1.000  C
  C38      1.0000 0.50160  0.94780  0.98500  Biso   1.000  C
  C39      1.0000 0.34620  0.44980  0.17100  Biso   1.000  C
  C40      1.0000 0.27200  0.56280  0.14400  Biso   1.000  C
  C41      1.0000 0.27850  0.57620  0.20380  Biso   1.000  C
  C42      1.0000 0.34340  0.48540  0.28140  Biso   1.000  C
  C43      1.0000 0.20220  0.44100  0.30910  Biso   1.000  C
  C44      1.0000 0.10190  0.33880  0.27730  Biso   1.000  C
  C45      1.0000 0.96660  0.29100  0.30780  Biso   1.000  C
  C46      1.0000 0.00560  0.34620  0.41680  Biso   1.000  C
  C47      1.0000 0.03880  0.20300  0.38520  Biso   1.000  C
  C48      1.0000 0.07570  0.23160  0.44450  Biso   1.000  C
  C49      1.0000 0.67373  0.28126  0.61679  Biso   1.000  C
  C50      1.0000 0.67373  0.34166  0.57177  Biso   1.000  C
  C51      1.0000 0.55334  0.35508  0.55627  Biso   1.000  C
  C52      1.0000 0.42710  0.30800  0.58350  Biso   1.000  C
  C53      1.0000 0.42784  0.24808  0.62870  Biso   1.000  C
  C54      1.0000 0.55023  0.23406  0.64470  Biso   1.000  C
  C55      1.0000 0.80900  0.39100  0.54090  Biso   1.000  C
  C56      1.0000 0.29290  0.32320  0.56920  Biso   1.000  C
  C57      1.0000 0.54530  0.16540  0.69150  Biso   1.000  C
  C58      1.0000 0.38530  0.84140  0.65070  Biso   1.000  C
  C59      1.0000 0.31200  0.95320  0.62060  Biso   1.000  C
  C60      1.0000 0.36990  0.81920  0.59140  Biso   1.000  C
  C61      1.0000 0.30560  0.90900  0.51160  Biso   1.000  C
  C62      1.0000 0.44620  0.94780  0.48500  Biso   1.000  C
  C63      1.0000 0.10360  0.44980  0.67100  Biso   1.000  C
  C64      1.0000 0.29080  0.56280  0.64400  Biso   1.000  C
  C65      1.0000 0.29770  0.57620  0.70380  Biso   1.000  C
  C66      1.0000 0.14200  0.48540  0.78140  Biso   1.000  C
  C67      1.0000 0.23880  0.44100  0.80910  Biso   1.000  C
  C68      1.0000 0.23690  0.33880  0.77730  Biso   1.000  C
  C69      1.0000 0.32440  0.29100  0.80780  Biso   1.000  C
  C70      1.0000 0.34060  0.34620  0.91680  Biso   1.000  C
  C71      1.0000 0.16420  0.20300  0.88520  Biso   1.000  C
  C72      1.0000 0.15590  0.23160  0.94450  Biso   1.000  C
  C73      1.0000 0.39247  0.71874  0.88321  Biso   1.000  C
  C74      1.0000 0.33207  0.65834  0.92823  Biso   1.000  C
  C75      1.0000 0.19826  0.64492  0.94373  Biso   1.000  C
  C76      1.0000 0.11910  0.69200  0.91650  Biso   1.000  C
  C77      1.0000 0.17976  0.75192  0.87130  Biso   1.000  C
  C78      1.0000 0.31617  0.76594  0.85530  Biso   1.000  C
  C79      1.0000 0.41800  0.60900  0.95910  Biso   1.000  C
  C80      1.0000 0.96970  0.67680  0.93080  Biso   1.000  C
  C81      1.0000 0.37990  0.83460  0.80850  Biso   1.000  C
  C82      1.0000 0.54390  0.15860  0.84930  Biso   1.000  C
  C83      1.0000 0.35880  0.04680  0.87940  Biso   1.000  C
  C84      1.0000 0.55070  0.18080  0.90860  Biso   1.000  C
  C85      1.0000 0.39660  0.09100  0.98840  Biso   1.000  C
  C86      1.0000 0.49840  0.05220  0.01500  Biso   1.000  C
  C87      1.0000 0.65380  0.55020  0.82900  Biso   1.000  C
  C88      1.0000 0.72800  0.43720  0.85600  Biso   1.000  C
  C89      1.0000 0.72150  0.42380  0.79620  Biso   1.000  C
  C90      1.0000 0.65660  0.51460  0.71860  Biso   1.000  C
  C91      1.0000 0.79780  0.55900  0.69090  Biso   1.000  C
  C92      1.0000 0.89810  0.66120  0.72270  Biso   1.000  C
  C93      1.0000 0.03340  0.70900  0.69220  Biso   1.000  C
  C94      1.0000 0.99440  0.65380  0.58320  Biso   1.000  C
  C95      1.0000 0.96120  0.79700  0.61480  Biso   1.000  C
  C96      1.0000 0.92430  0.76840  0.55550  Biso   1.000  C
  N1       1.0000 0.64888  0.07536  0.33095  Biso   1.000  N
  N2       1.0000 0.67692  0.10844  0.42748  Biso   1.000  N
  N3       1.0000 0.83127  0.51714  0.37691  Biso   1.000  N
  N4       1.0000 0.82273  0.49626  0.27975  Biso   1.000  N
  N5       1.0000 0.71892  0.72304  0.13117  Biso   1.000  N
  N6       1.0000 0.73371  0.67882  0.03617  Biso   1.000  N
  N7       1.0000 0.57352  0.92464  0.16905  Biso   1.000  N
  N8       1.0000 0.56848  0.89156  0.07252  Biso   1.000  N
  N9       1.0000 0.31413  0.48286  0.12309  Biso   1.000  N
  N10      1.0000 0.32647  0.50374  0.22025  Biso   1.000  N
  N11      1.0000 0.99588  0.27696  0.36883  Biso   1.000  N
  N12      1.0000 0.05489  0.32118  0.46383  Biso   1.000  N
  N13      1.0000 0.35112  0.92464  0.66905  Biso   1.000  N
  N14      1.0000 0.32308  0.89156  0.57252  Biso   1.000  N
  N15      1.0000 0.16873  0.48286  0.62309  Biso   1.000  N
  N16      1.0000 0.17727  0.50374  0.72025  Biso   1.000  N
  N17      1.0000 0.28108  0.27696  0.86883  Biso   1.000  N
  N18      1.0000 0.26629  0.32118  0.96383  Biso   1.000  N
  N19      1.0000 0.42648  0.07536  0.83095  Biso   1.000  N
  N20      1.0000 0.43152  0.10844  0.92748  Biso   1.000  N
  N21      1.0000 0.68587  0.51714  0.87691  Biso   1.000  N
  N22      1.0000 0.67353  0.49626  0.77975  Biso   1.000  N
  N23      1.0000 0.00412  0.72304  0.63117  Biso   1.000  N
  N24      1.0000 0.94511  0.67882  0.53617  Biso   1.000  N
  O1       1.0000 0.08237  0.61714  0.43682  Biso   1.000  O
  O2       1.0000 0.19552  0.56524  0.50261  Biso   1.000  O
  O3       1.0000 0.69663  0.60266  0.46087  Biso   1.000  O
  O4       1.0000 0.81896  0.73512  0.41383  Biso   1.000  O
  O5       1.0000 0.56902  0.87064  0.28419  Biso   1.000  O
  O6       1.0000 0.35080  0.85640  0.29960  Biso   1.000  O
  O7       1.0000 0.46523  0.38286  0.06318  Biso   1.000  O
  O8       1.0000 0.63028  0.43476  0.99739  Biso   1.000  O
  O9       1.0000 0.09397  0.39734  0.03913  Biso   1.000  O
  O10      1.0000 0.08384  0.26488  0.08617  Biso   1.000  O
  O11      1.0000 0.69838  0.12936  0.21581  Biso   1.000  O
  O12      1.0000 0.49440  0.14360  0.20040  Biso   1.000  O
  O13      1.0000 0.91763  0.38286  0.56318  Biso   1.000  O
  O14      1.0000 0.80448  0.43476  0.49739  Biso   1.000  O
  O15      1.0000 0.30337  0.39734  0.53913  Biso   1.000  O
  O16      1.0000 0.18104  0.26488  0.58617  Biso   1.000  O
  O17      1.0000 0.43098  0.12936  0.71581  Biso   1.000  O
  O18      1.0000 0.64920  0.14360  0.70040  Biso   1.000  O
  O19      1.0000 0.53477  0.61714  0.93682  Biso   1.000  O
  O20      1.0000 0.36972  0.56524  0.00261  Biso   1.000  O
  O21      1.0000 0.90603  0.60266  0.96087  Biso   1.000  O
  O22      1.0000 0.91616  0.73512  0.91383  Biso   1.000  O
  O23      1.0000 0.30162  0.87064  0.78419  Biso   1.000  O
  O24      1.0000 0.50560  0.85640  0.79960  Biso   1.000  O
