data_image0
_cell_length_a       7.5817
_cell_length_b       10.4787
_cell_length_c       21.663
_cell_angle_alpha    90
_cell_angle_beta     90
_cell_angle_gamma    90

_symmetry_space_group_name_H-M    "P 1"
_symmetry_int_tables_number       1

loop_
  _symmetry_equiv_pos_as_xyz
  'x, y, z'

loop_
  _atom_site_label
  _atom_site_occupancy
  _atom_site_fract_x
  _atom_site_fract_y
  _atom_site_fract_z
  _atom_site_thermal_displace_type
  _atom_site_B_iso_or_equiv
  _atom_site_type_symbol
  Ag1      1.0000 0.72680  0.77045  0.13100  Biso   1.000  Ag
  N1       1.0000 0.84860  0.97209  0.12849  Biso   1.000  N
  N2       1.0000 0.16340  0.17830  0.27796  Biso   1.000  N
  H1       1.0000 0.24380  0.19690  0.24740  Biso   1.000  H
  H2       1.0000 0.16760  0.09140  0.28370  Biso   1.000  H
  N3       1.0000 0.84710  0.66354  0.04631  Biso   1.000  N
  N4       1.0000 0.92910  0.75491  0.84582  Biso   1.000  N
  H3       1.0000 0.89570  0.83500  0.85870  Biso   1.000  H
  H4       1.0000 0.91740  0.75300  0.80360  Biso   1.000  H
  C1       1.0000 0.93450  0.01970  0.07964  Biso   1.000  C
  H5       1.0000 0.92700  0.97510  0.04160  Biso   1.000  H
  C2       1.0000 0.03300  0.13010  0.08177  Biso   1.000  C
  H6       1.0000 0.08940  0.16180  0.04570  Biso   1.000  H
  C3       1.0000 0.86390  0.03670  0.18227  Biso   1.000  C
  H7       1.0000 0.80360  0.00460  0.21740  Biso   1.000  H
  C4       1.0000 0.04850  0.19460  0.13798  Biso   1.000  C
  H8       1.0000 0.11720  0.27020  0.14090  Biso   1.000  H
  C5       1.0000 0.96250  0.14690  0.18901  Biso   1.000  C
  C6       1.0000 0.80270  0.66190  0.87210  Biso   1.000  C
  H9       1.0000 0.79780  0.58530  0.84540  Biso   1.000  H
  H10      1.0000 0.68350  0.70030  0.87320  Biso   1.000  H
  C7       1.0000 0.85680  0.62310  0.93677  Biso   1.000  C
  C8       1.0000 0.96390  0.51800  0.94676  Biso   1.000  C
  H11      1.0000 0.00460  0.46820  0.91300  Biso   1.000  H
  C9       1.0000 0.01120  0.48660  0.00709  Biso   1.000  C
  H12      1.0000 0.08380  0.41470  0.01520  Biso   1.000  H
  C10      1.0000 0.98780  0.20680  0.25211  Biso   1.000  C
  H13      1.0000 0.97310  0.30040  0.24880  Biso   1.000  H
  H14      1.0000 0.89590  0.17420  0.28050  Biso   1.000  H
  C11      1.0000 0.95000  0.56240  0.05496  Biso   1.000  C
  H15      1.0000 0.98320  0.54100  0.09600  Biso   1.000  H
  C12      1.0000 0.80300  0.69290  0.98755  Biso   1.000  C
  H16      1.0000 0.73080  0.76560  0.98080  Biso   1.000  H
  Ag2      1.0000 0.77320  0.22955  0.63100  Biso   1.000  Ag
  N5       1.0000 0.65140  0.02791  0.62849  Biso   1.000  N
  N6       1.0000 0.33660  0.82170  0.77796  Biso   1.000  N
  H17      1.0000 0.25620  0.80310  0.74740  Biso   1.000  H
  H18      1.0000 0.33240  0.90860  0.78370  Biso   1.000  H
  N7       1.0000 0.65290  0.33646  0.54631  Biso   1.000  N
  N8       1.0000 0.57090  0.24509  0.34582  Biso   1.000  N
  H19      1.0000 0.60430  0.16500  0.35870  Biso   1.000  H
  H20      1.0000 0.58260  0.24700  0.30360  Biso   1.000  H
  C13      1.0000 0.56550  0.98030  0.57964  Biso   1.000  C
  H21      1.0000 0.57300  0.02490  0.54160  Biso   1.000  H
  C14      1.0000 0.46700  0.86990  0.58177  Biso   1.000  C
  H22      1.0000 0.41060  0.83820  0.54570  Biso   1.000  H
  C15      1.0000 0.63610  0.96330  0.68227  Biso   1.000  C
  H23      1.0000 0.69640  0.99540  0.71740  Biso   1.000  H
  C16      1.0000 0.45150  0.80540  0.63798  Biso   1.000  C
  H24      1.0000 0.38280  0.72980  0.64090  Biso   1.000  H
  C17      1.0000 0.53750  0.85310  0.68901  Biso   1.000  C
  C18      1.0000 0.69730  0.33810  0.37210  Biso   1.000  C
  H25      1.0000 0.70220  0.41470  0.34540  Biso   1.000  H
  H26      1.0000 0.81650  0.29970  0.37320  Biso   1.000  H
  C19      1.0000 0.64320  0.37690  0.43677  Biso   1.000  C
  C20      1.0000 0.53610  0.48200  0.44676  Biso   1.000  C
  H27      1.0000 0.49540  0.53180  0.41300  Biso   1.000  H
  C21      1.0000 0.48880  0.51340  0.50709  Biso   1.000  C
  H28      1.0000 0.41620  0.58530  0.51520  Biso   1.000  H
  C22      1.0000 0.51220  0.79320  0.75211  Biso   1.000  C
  H29      1.0000 0.52690  0.69960  0.74880  Biso   1.000  H
  H30      1.0000 0.60410  0.82580  0.78050  Biso   1.000  H
  C23      1.0000 0.55000  0.43760  0.55496  Biso   1.000  C
  H31      1.0000 0.51680  0.45900  0.59600  Biso   1.000  H
  C24      1.0000 0.69700  0.30710  0.48755  Biso   1.000  C
  H32      1.0000 0.76920  0.23440  0.48080  Biso   1.000  H
  Ag3      1.0000 0.27320  0.27045  0.36900  Biso   1.000  Ag
  N9       1.0000 0.15140  0.47209  0.37151  Biso   1.000  N
  N10      1.0000 0.83660  0.67830  0.22204  Biso   1.000  N
  H33      1.0000 0.75620  0.69690  0.25260  Biso   1.000  H
  H34      1.0000 0.83240  0.59140  0.21630  Biso   1.000  H
  N11      1.0000 0.15290  0.16354  0.45369  Biso   1.000  N
  N12      1.0000 0.07090  0.25491  0.65418  Biso   1.000  N
  H35      1.0000 0.10430  0.33500  0.64130  Biso   1.000  H
  H36      1.0000 0.08260  0.25300  0.69640  Biso   1.000  H
  C25      1.0000 0.06550  0.51970  0.42036  Biso   1.000  C
  H37      1.0000 0.07300  0.47510  0.45840  Biso   1.000  H
  C26      1.0000 0.96700  0.63010  0.41823  Biso   1.000  C
  H38      1.0000 0.91060  0.66180  0.45430  Biso   1.000  H
  C27      1.0000 0.13610  0.53670  0.31773  Biso   1.000  C
  H39      1.0000 0.19640  0.50460  0.28260  Biso   1.000  H
  C28      1.0000 0.95150  0.69460  0.36202  Biso   1.000  C
  H40      1.0000 0.88280  0.77020  0.35910  Biso   1.000  H
  C29      1.0000 0.03750  0.64690  0.31099  Biso   1.000  C
  C30      1.0000 0.19730  0.16190  0.62790  Biso   1.000  C
  H41      1.0000 0.20220  0.08530  0.65460  Biso   1.000  H
  H42      1.0000 0.31650  0.20030  0.62680  Biso   1.000  H
  C31      1.0000 0.14320  0.12310  0.56323  Biso   1.000  C
  C32      1.0000 0.03610  0.01800  0.55324  Biso   1.000  C
  H43      1.0000 0.99540  0.96820  0.58700  Biso   1.000  H
  C33      1.0000 0.98880  0.98660  0.49291  Biso   1.000  C
  H44      1.0000 0.91620  0.91470  0.48480  Biso   1.000  H
  C34      1.0000 0.01220  0.70680  0.24789  Biso   1.000  C
  H45      1.0000 0.02690  0.80040  0.25120  Biso   1.000  H
  H46      1.0000 0.10410  0.67420  0.21950  Biso   1.000  H
  C35      1.0000 0.05000  0.06240  0.44504  Biso   1.000  C
  H47      1.0000 0.01680  0.04100  0.40400  Biso   1.000  H
  C36      1.0000 0.19700  0.19290  0.51245  Biso   1.000  C
  H48      1.0000 0.26920  0.26560  0.51920  Biso   1.000  H
  Ag4      1.0000 0.22680  0.72955  0.86900  Biso   1.000  Ag
  N13      1.0000 0.34860  0.52791  0.87151  Biso   1.000  N
  N14      1.0000 0.66340  0.32170  0.72204  Biso   1.000  N
  H49      1.0000 0.74380  0.30310  0.75260  Biso   1.000  H
  H50      1.0000 0.66760  0.40860  0.71630  Biso   1.000  H
  N15      1.0000 0.34710  0.83646  0.95369  Biso   1.000  N
  N16      1.0000 0.42910  0.74509  0.15418  Biso   1.000  N
  H51      1.0000 0.39570  0.66500  0.14130  Biso   1.000  H
  H52      1.0000 0.41740  0.74700  0.19640  Biso   1.000  H
  C37      1.0000 0.43450  0.48030  0.92036  Biso   1.000  C
  H53      1.0000 0.42700  0.52490  0.95840  Biso   1.000  H
  C38      1.0000 0.53300  0.36990  0.91823  Biso   1.000  C
  H54      1.0000 0.58940  0.33820  0.95430  Biso   1.000  H
  C39      1.0000 0.36390  0.46330  0.81773  Biso   1.000  C
  H55      1.0000 0.30360  0.49540  0.78260  Biso   1.000  H
  C40      1.0000 0.54850  0.30540  0.86202  Biso   1.000  C
  H56      1.0000 0.61720  0.22980  0.85910  Biso   1.000  H
  C41      1.0000 0.46250  0.35310  0.81099  Biso   1.000  C
  C42      1.0000 0.30270  0.83810  0.12790  Biso   1.000  C
  H57      1.0000 0.29780  0.91470  0.15460  Biso   1.000  H
  H58      1.0000 0.18350  0.79970  0.12680  Biso   1.000  H
  C43      1.0000 0.35680  0.87690  0.06323  Biso   1.000  C
  C44      1.0000 0.46390  0.98200  0.05324  Biso   1.000  C
  H59      1.0000 0.50460  0.03180  0.08700  Biso   1.000  H
  C45      1.0000 0.51120  0.01340  0.99291  Biso   1.000  C
  H60      1.0000 0.58380  0.08530  0.98480  Biso   1.000  H
  C46      1.0000 0.48780  0.29320  0.74789  Biso   1.000  C
  H61      1.0000 0.47310  0.19960  0.75120  Biso   1.000  H
  H62      1.0000 0.39590  0.32580  0.71950  Biso   1.000  H
  C47      1.0000 0.45000  0.93760  0.94504  Biso   1.000  C
  H63      1.0000 0.48320  0.95900  0.90400  Biso   1.000  H
  C48      1.0000 0.30300  0.80710  0.01245  Biso   1.000  C
  H64      1.0000 0.23080  0.73440  0.01920  Biso   1.000  H
