data_image0
_cell_length_a       13.475
_cell_length_b       13.509
_cell_length_c       26.949
_cell_angle_alpha    90
_cell_angle_beta     90
_cell_angle_gamma    95.18

_symmetry_space_group_name_H-M    P 1
_symmetry_int_tables_number       1

loop_
  _symmetry_equiv_pos_as_xyz
  'x, y, z'

loop_
  _atom_site_label
  _atom_site_occupancy
  _atom_site_fract_x
  _atom_site_fract_y
  _atom_site_fract_z
  _atom_site_thermal_displace_type
  _atom_site_B_iso_or_equiv
  _atom_site_type_symbol
  Zn1      1.0000 0.22188  0.86237  0.97598  Biso   1.000  Zn
  Zn2      1.0000 0.63289  0.74262  0.94572  Biso   1.000  Zn
  Zn3      1.0000 0.25765  0.68431  0.07575  Biso   1.000  Zn
  Zn4      1.0000 0.18891  0.29313  0.95608  Biso   1.000  Zn
  Zn5      1.0000 0.27812  0.63763  0.47598  Biso   1.000  Zn
  Zn6      1.0000 0.86711  0.75738  0.44572  Biso   1.000  Zn
  Zn7      1.0000 0.24235  0.81569  0.57575  Biso   1.000  Zn
  Zn8      1.0000 0.31109  0.20687  0.45608  Biso   1.000  Zn
  Zn9      1.0000 0.77812  0.13763  0.02402  Biso   1.000  Zn
  Zn10     1.0000 0.36711  0.25738  0.05428  Biso   1.000  Zn
  Zn11     1.0000 0.74235  0.31569  0.92425  Biso   1.000  Zn
  Zn12     1.0000 0.81109  0.70687  0.04392  Biso   1.000  Zn
  Zn13     1.0000 0.72188  0.36237  0.52402  Biso   1.000  Zn
  Zn14     1.0000 0.13289  0.24262  0.55428  Biso   1.000  Zn
  Zn15     1.0000 0.75765  0.18431  0.42425  Biso   1.000  Zn
  Zn16     1.0000 0.68891  0.79313  0.54392  Biso   1.000  Zn
  H1       1.0000 0.02120  0.61970  0.07840  Biso   1.000  H
  H2       1.0000 0.63870  0.52360  0.90340  Biso   1.000  H
  H3       1.0000 0.82640  0.47590  0.01010  Biso   1.000  H
  H4       1.0000 0.48270  0.65170  0.03140  Biso   1.000  H
  H5       1.0000 0.31980  0.02010  0.05500  Biso   1.000  H
  H6       1.0000 0.12030  0.05920  0.95250  Biso   1.000  H
  H7       1.0000 0.44470  0.86310  0.93620  Biso   1.000  H
  H8       1.0000 0.98570  0.80260  0.96840  Biso   1.000  H
  H9       1.0000 0.59960  0.64670  0.79160  Biso   1.000  H
  H10      1.0000 0.37260  0.88520  0.73660  Biso   1.000  H
  H11      1.0000 0.60960  0.63580  0.70460  Biso   1.000  H
  H12      1.0000 0.35500  0.89670  0.82320  Biso   1.000  H
  H13      1.0000 0.07400  0.89260  0.72210  Biso   1.000  H
  H14      1.0000 0.60720  0.94570  0.77950  Biso   1.000  H
  H15      1.0000 0.05860  0.90680  0.80850  Biso   1.000  H
  H16      1.0000 0.63220  0.93390  0.69420  Biso   1.000  H
  H17      1.0000 0.47880  0.88030  0.57840  Biso   1.000  H
  H18      1.0000 0.86130  0.97640  0.40340  Biso   1.000  H
  H19      1.0000 0.67360  0.02410  0.51010  Biso   1.000  H
  H20      1.0000 0.01730  0.84830  0.53140  Biso   1.000  H
  H21      1.0000 0.18020  0.47990  0.55500  Biso   1.000  H
  H22      1.0000 0.37970  0.44080  0.45250  Biso   1.000  H
  H23      1.0000 0.05530  0.63690  0.43620  Biso   1.000  H
  H24      1.0000 0.51430  0.69740  0.46840  Biso   1.000  H
  H25      1.0000 0.90040  0.85330  0.29160  Biso   1.000  H
  H26      1.0000 0.12740  0.61480  0.23660  Biso   1.000  H
  H27      1.0000 0.89040  0.86420  0.20460  Biso   1.000  H
  H28      1.0000 0.14500  0.60330  0.32320  Biso   1.000  H
  H29      1.0000 0.42600  0.60740  0.22210  Biso   1.000  H
  H30      1.0000 0.89280  0.55430  0.27950  Biso   1.000  H
  H31      1.0000 0.44140  0.59320  0.30850  Biso   1.000  H
  H32      1.0000 0.86780  0.56610  0.19420  Biso   1.000  H
  H33      1.0000 0.97880  0.38030  0.92160  Biso   1.000  H
  H34      1.0000 0.36130  0.47640  0.09660  Biso   1.000  H
  H35      1.0000 0.17360  0.52410  0.98990  Biso   1.000  H
  H36      1.0000 0.51730  0.34830  0.96860  Biso   1.000  H
  H37      1.0000 0.68020  0.97990  0.94500  Biso   1.000  H
  H38      1.0000 0.87970  0.94080  0.04750  Biso   1.000  H
  H39      1.0000 0.55530  0.13690  0.06380  Biso   1.000  H
  H40      1.0000 0.01430  0.19740  0.03160  Biso   1.000  H
  H41      1.0000 0.40040  0.35330  0.20840  Biso   1.000  H
  H42      1.0000 0.62740  0.11480  0.26340  Biso   1.000  H
  H43      1.0000 0.39040  0.36420  0.29540  Biso   1.000  H
  H44      1.0000 0.64500  0.10330  0.17680  Biso   1.000  H
  H45      1.0000 0.92600  0.10740  0.27790  Biso   1.000  H
  H46      1.0000 0.39280  0.05430  0.22050  Biso   1.000  H
  H47      1.0000 0.94140  0.09320  0.19150  Biso   1.000  H
  H48      1.0000 0.36780  0.06610  0.30580  Biso   1.000  H
  H49      1.0000 0.52120  0.11970  0.42160  Biso   1.000  H
  H50      1.0000 0.13870  0.02360  0.59660  Biso   1.000  H
  H51      1.0000 0.32640  0.97590  0.48990  Biso   1.000  H
  H52      1.0000 0.98270  0.15170  0.46860  Biso   1.000  H
  H53      1.0000 0.81980  0.52010  0.44500  Biso   1.000  H
  H54      1.0000 0.62030  0.55920  0.54750  Biso   1.000  H
  H55      1.0000 0.94470  0.36310  0.56380  Biso   1.000  H
  H56      1.0000 0.48570  0.30260  0.53160  Biso   1.000  H
  H57      1.0000 0.09960  0.14670  0.70840  Biso   1.000  H
  H58      1.0000 0.87260  0.38520  0.76340  Biso   1.000  H
  H59      1.0000 0.10960  0.13580  0.79540  Biso   1.000  H
  H60      1.0000 0.85500  0.39670  0.67680  Biso   1.000  H
  H61      1.0000 0.57400  0.39260  0.77790  Biso   1.000  H
  H62      1.0000 0.10720  0.44570  0.72050  Biso   1.000  H
  H63      1.0000 0.55860  0.40680  0.69150  Biso   1.000  H
  H64      1.0000 0.13220  0.43390  0.80580  Biso   1.000  H
  C1       1.0000 0.20510  0.89890  0.82350  Biso   1.000  C
  C2       1.0000 0.03450  0.66600  0.05220  Biso   1.000  C
  C3       1.0000 0.68020  0.53220  0.93190  Biso   1.000  C
  C4       1.0000 0.78150  0.50690  0.98927  Biso   1.000  C
  C5       1.0000 0.45430  0.70330  0.01396  Biso   1.000  C
  C6       1.0000 0.22350  0.88370  0.72100  Biso   1.000  C
  C7       1.0000 0.27700  0.05030  0.03273  Biso   1.000  C
  C8       1.0000 0.16950  0.07150  0.97750  Biso   1.000  C
  C9       1.0000 0.43390  0.81660  0.96260  Biso   1.000  C
  C10      1.0000 0.23410  0.86620  0.66640  Biso   1.000  C
  C11      1.0000 0.01530  0.76430  0.99310  Biso   1.000  C
  C12      1.0000 0.60420  0.79820  0.79445  Biso   1.000  C
  C13      1.0000 0.62000  0.78350  0.69160  Biso   1.000  C
  C14      1.0000 0.60120  0.80540  0.84960  Biso   1.000  C
  C15      1.0000 0.63330  0.77280  0.63630  Biso   1.000  C
  C16      1.0000 0.60420  0.70540  0.77190  Biso   1.000  C
  C17      1.0000 0.30840  0.88750  0.75100  Biso   1.000  C
  C18      1.0000 0.61110  0.69910  0.72010  Biso   1.000  C
  C19      1.0000 0.29770  0.89470  0.80250  Biso   1.000  C
  C20      1.0000 0.13140  0.89230  0.74250  Biso   1.000  C
  C21      1.0000 0.61080  0.88230  0.76470  Biso   1.000  C
  C22      1.0000 0.12190  0.90040  0.79400  Biso   1.000  C
  C23      1.0000 0.19310  0.89500  0.87980  Biso   1.000  C
  C24      1.0000 0.62250  0.87530  0.71380  Biso   1.000  C
  C25      1.0000 0.29490  0.60110  0.32350  Biso   1.000  C
  C26      1.0000 0.46550  0.83400  0.55220  Biso   1.000  C
  C27      1.0000 0.81980  0.96780  0.43190  Biso   1.000  C
  C28      1.0000 0.71850  0.99310  0.48927  Biso   1.000  C
  C29      1.0000 0.04570  0.79670  0.51396  Biso   1.000  C
  C30      1.0000 0.27650  0.61630  0.22100  Biso   1.000  C
  C31      1.0000 0.22300  0.44970  0.53273  Biso   1.000  C
  C32      1.0000 0.33050  0.42850  0.47750  Biso   1.000  C
  C33      1.0000 0.06610  0.68340  0.46260  Biso   1.000  C
  C34      1.0000 0.26590  0.63380  0.16640  Biso   1.000  C
  C35      1.0000 0.48470  0.73570  0.49310  Biso   1.000  C
  C36      1.0000 0.89580  0.70180  0.29445  Biso   1.000  C
  C37      1.0000 0.88000  0.71650  0.19160  Biso   1.000  C
  C38      1.0000 0.89880  0.69460  0.34960  Biso   1.000  C
  C39      1.0000 0.86670  0.72720  0.13630  Biso   1.000  C
  C40      1.0000 0.89580  0.79460  0.27190  Biso   1.000  C
  C41      1.0000 0.19160  0.61250  0.25100  Biso   1.000  C
  C42      1.0000 0.88890  0.80090  0.22010  Biso   1.000  C
  C43      1.0000 0.20230  0.60530  0.30250  Biso   1.000  C
  C44      1.0000 0.36860  0.60770  0.24250  Biso   1.000  C
  C45      1.0000 0.88920  0.61770  0.26470  Biso   1.000  C
  C46      1.0000 0.37810  0.59960  0.29400  Biso   1.000  C
  C47      1.0000 0.30690  0.60500  0.37980  Biso   1.000  C
  C48      1.0000 0.87750  0.62470  0.21380  Biso   1.000  C
  C49      1.0000 0.79490  0.10110  0.17650  Biso   1.000  C
  C50      1.0000 0.96550  0.33400  0.94780  Biso   1.000  C
  C51      1.0000 0.31980  0.46780  0.06810  Biso   1.000  C
  C52      1.0000 0.21850  0.49310  0.01073  Biso   1.000  C
  C53      1.0000 0.54570  0.29670  0.98604  Biso   1.000  C
  C54      1.0000 0.77650  0.11630  0.27900  Biso   1.000  C
  C55      1.0000 0.72300  0.94970  0.96727  Biso   1.000  C
  C56      1.0000 0.83050  0.92850  0.02250  Biso   1.000  C
  C57      1.0000 0.56610  0.18340  0.03740  Biso   1.000  C
  C58      1.0000 0.76590  0.13380  0.33360  Biso   1.000  C
  C59      1.0000 0.98470  0.23570  0.00690  Biso   1.000  C
  C60      1.0000 0.39580  0.20180  0.20555  Biso   1.000  C
  C61      1.0000 0.38000  0.21650  0.30840  Biso   1.000  C
  C62      1.0000 0.39880  0.19460  0.15040  Biso   1.000  C
  C63      1.0000 0.36670  0.22720  0.36370  Biso   1.000  C
  C64      1.0000 0.39580  0.29460  0.22810  Biso   1.000  C
  C65      1.0000 0.69160  0.11250  0.24900  Biso   1.000  C
  C66      1.0000 0.38890  0.30090  0.27990  Biso   1.000  C
  C67      1.0000 0.70230  0.10530  0.19750  Biso   1.000  C
  C68      1.0000 0.86860  0.10770  0.25750  Biso   1.000  C
  C69      1.0000 0.38920  0.11770  0.23530  Biso   1.000  C
  C70      1.0000 0.87810  0.09960  0.20600  Biso   1.000  C
  C71      1.0000 0.80690  0.10500  0.12020  Biso   1.000  C
  C72      1.0000 0.37750  0.12470  0.28620  Biso   1.000  C
  C73      1.0000 0.70510  0.39890  0.67650  Biso   1.000  C
  C74      1.0000 0.53450  0.16600  0.44780  Biso   1.000  C
  C75      1.0000 0.18020  0.03220  0.56810  Biso   1.000  C
  C76      1.0000 0.28150  0.00690  0.51073  Biso   1.000  C
  C77      1.0000 0.95430  0.20330  0.48604  Biso   1.000  C
  C78      1.0000 0.72350  0.38370  0.77900  Biso   1.000  C
  C79      1.0000 0.77700  0.55030  0.46727  Biso   1.000  C
  C80      1.0000 0.66950  0.57150  0.52250  Biso   1.000  C
  C81      1.0000 0.93390  0.31660  0.53740  Biso   1.000  C
  C82      1.0000 0.73410  0.36620  0.83360  Biso   1.000  C
  C83      1.0000 0.51530  0.26430  0.50690  Biso   1.000  C
  C84      1.0000 0.10420  0.29820  0.70555  Biso   1.000  C
  C85      1.0000 0.12000  0.28350  0.80840  Biso   1.000  C
  C86      1.0000 0.10120  0.30540  0.65040  Biso   1.000  C
  C87      1.0000 0.13330  0.27280  0.86370  Biso   1.000  C
  C88      1.0000 0.10420  0.20540  0.72810  Biso   1.000  C
  C89      1.0000 0.80840  0.38750  0.74900  Biso   1.000  C
  C90      1.0000 0.11110  0.19910  0.77990  Biso   1.000  C
  C91      1.0000 0.79770  0.39470  0.69750  Biso   1.000  C
  C92      1.0000 0.63140  0.39230  0.75750  Biso   1.000  C
  C93      1.0000 0.11080  0.38230  0.73530  Biso   1.000  C
  C94      1.0000 0.62190  0.40040  0.70600  Biso   1.000  C
  C95      1.0000 0.69310  0.39500  0.62020  Biso   1.000  C
  C96      1.0000 0.12250  0.37530  0.78620  Biso   1.000  C
  N1       1.0000 0.49940  0.75290  0.97580  Biso   1.000  N
  N2       1.0000 0.21400  0.99910  0.00162  Biso   1.000  N
  N3       1.0000 0.73690  0.46310  0.94906  Biso   1.000  N
  N4       1.0000 0.36600  0.73390  0.02476  Biso   1.000  N
  N5       1.0000 0.12570  0.70210  0.03894  Biso   1.000  N
  N6       1.0000 0.68890  0.61420  0.95945  Biso   1.000  N
  N7       1.0000 0.35270  0.80780  0.99009  Biso   1.000  N
  N8       1.0000 0.27300  0.14660  0.02910  Biso   1.000  N
  N9       1.0000 0.20280  0.16020  0.99288  Biso   1.000  N
  N10      1.0000 0.96270  0.70220  0.02442  Biso   1.000  N
  N11      1.0000 0.75570  0.59740  0.99642  Biso   1.000  N
  N12      1.0000 0.11300  0.76630  0.00035  Biso   1.000  N
  N13      1.0000 0.00060  0.74710  0.47580  Biso   1.000  N
  N14      1.0000 0.28600  0.50090  0.50162  Biso   1.000  N
  N15      1.0000 0.76310  0.03690  0.44906  Biso   1.000  N
  N16      1.0000 0.13400  0.76610  0.52476  Biso   1.000  N
  N17      1.0000 0.37430  0.79790  0.53894  Biso   1.000  N
  N18      1.0000 0.81110  0.88580  0.45945  Biso   1.000  N
  N19      1.0000 0.14730  0.69220  0.49009  Biso   1.000  N
  N20      1.0000 0.22700  0.35340  0.52910  Biso   1.000  N
  N21      1.0000 0.29720  0.33980  0.49288  Biso   1.000  N
  N22      1.0000 0.53730  0.79780  0.52442  Biso   1.000  N
  N23      1.0000 0.74430  0.90260  0.49642  Biso   1.000  N
  N24      1.0000 0.38700  0.73370  0.50035  Biso   1.000  N
  N25      1.0000 0.50060  0.24710  0.02420  Biso   1.000  N
  N26      1.0000 0.78600  0.00090  0.99838  Biso   1.000  N
  N27      1.0000 0.26310  0.53690  0.05094  Biso   1.000  N
  N28      1.0000 0.63400  0.26610  0.97524  Biso   1.000  N
  N29      1.0000 0.87430  0.29790  0.96106  Biso   1.000  N
  N30      1.0000 0.31110  0.38580  0.04055  Biso   1.000  N
  N31      1.0000 0.64730  0.19220  0.00991  Biso   1.000  N
  N32      1.0000 0.72700  0.85340  0.97090  Biso   1.000  N
  N33      1.0000 0.79720  0.83980  0.00712  Biso   1.000  N
  N34      1.0000 0.03730  0.29780  0.97558  Biso   1.000  N
  N35      1.0000 0.24430  0.40260  0.00358  Biso   1.000  N
  N36      1.0000 0.88700  0.23370  0.99965  Biso   1.000  N
  N37      1.0000 0.99940  0.25290  0.52420  Biso   1.000  N
  N38      1.0000 0.71400  0.49910  0.49838  Biso   1.000  N
  N39      1.0000 0.23690  0.96310  0.55094  Biso   1.000  N
  N40      1.0000 0.86600  0.23390  0.47524  Biso   1.000  N
  N41      1.0000 0.62570  0.20210  0.46106  Biso   1.000  N
  N42      1.0000 0.18890  0.11420  0.54055  Biso   1.000  N
  N43      1.0000 0.85270  0.30780  0.50991  Biso   1.000  N
  N44      1.0000 0.77300  0.64660  0.47090  Biso   1.000  N
  N45      1.0000 0.70280  0.66020  0.50712  Biso   1.000  N
  N46      1.0000 0.46270  0.20220  0.47558  Biso   1.000  N
  N47      1.0000 0.25570  0.09740  0.50358  Biso   1.000  N
  N48      1.0000 0.61300  0.26630  0.49965  Biso   1.000  N
  O1       1.0000 0.25710  0.83730  0.09880  Biso   1.000  O
  O2       1.0000 0.26870  0.89040  0.90480  Biso   1.000  O
  O3       1.0000 0.62590  0.72890  0.87345  Biso   1.000  O
  O4       1.0000 0.15520  0.84430  0.64066  Biso   1.000  O
  O5       1.0000 0.31860  0.87110  0.64649  Biso   1.000  O
  O6       1.0000 0.66750  0.85120  0.61258  Biso   1.000  O
  O7       1.0000 0.57990  0.88180  0.87101  Biso   1.000  O
  O8       1.0000 0.61270  0.69230  0.61589  Biso   1.000  O
  O9       1.0000 0.10530  0.90020  0.89900  Biso   1.000  O
  O10      1.0000 0.24290  0.66270  0.59880  Biso   1.000  O
  O11      1.0000 0.23130  0.60960  0.40480  Biso   1.000  O
  O12      1.0000 0.87410  0.77110  0.37345  Biso   1.000  O
  O13      1.0000 0.34480  0.65570  0.14066  Biso   1.000  O
  O14      1.0000 0.18140  0.62890  0.14649  Biso   1.000  O
  O15      1.0000 0.83250  0.64880  0.11258  Biso   1.000  O
  O16      1.0000 0.92010  0.61820  0.37101  Biso   1.000  O
  O17      1.0000 0.88730  0.80770  0.11589  Biso   1.000  O
  O18      1.0000 0.39470  0.59980  0.39900  Biso   1.000  O
  O19      1.0000 0.74290  0.16270  0.90120  Biso   1.000  O
  O20      1.0000 0.73130  0.10960  0.09520  Biso   1.000  O
  O21      1.0000 0.37410  0.27110  0.12655  Biso   1.000  O
  O22      1.0000 0.84480  0.15570  0.35934  Biso   1.000  O
  O23      1.0000 0.68140  0.12890  0.35351  Biso   1.000  O
  O24      1.0000 0.33250  0.14880  0.38742  Biso   1.000  O
  O25      1.0000 0.42010  0.11820  0.12899  Biso   1.000  O
  O26      1.0000 0.38730  0.30770  0.38411  Biso   1.000  O
  O27      1.0000 0.89470  0.09980  0.10100  Biso   1.000  O
  O28      1.0000 0.75710  0.33730  0.40120  Biso   1.000  O
  O29      1.0000 0.76870  0.39040  0.59520  Biso   1.000  O
  O30      1.0000 0.12590  0.22890  0.62655  Biso   1.000  O
  O31      1.0000 0.65520  0.34430  0.85934  Biso   1.000  O
  O32      1.0000 0.81860  0.37110  0.85351  Biso   1.000  O
  O33      1.0000 0.16750  0.35120  0.88742  Biso   1.000  O
  O34      1.0000 0.07990  0.38180  0.62899  Biso   1.000  O
  O35      1.0000 0.11270  0.19230  0.88411  Biso   1.000  O
  O36      1.0000 0.60530  0.40020  0.60100  Biso   1.000  O
