data_image0
_cell_length_a       7.797
_cell_length_b       10.047
_cell_length_c       13.577
_cell_angle_alpha    110.18
_cell_angle_beta     105.46
_cell_angle_gamma    93.9

_symmetry_space_group_name_H-M    P 1
_symmetry_int_tables_number       1

loop_
  _symmetry_equiv_pos_as_xyz
  'x, y, z'

loop_
  _atom_site_label
  _atom_site_occupancy
  _atom_site_fract_x
  _atom_site_fract_y
  _atom_site_fract_z
  _atom_site_thermal_displace_type
  _atom_site_B_iso_or_equiv
  _atom_site_type_symbol
  Zn1      1.0000 0.36918  0.12226  0.74478  Biso   1.000  Zn
  Zn2      1.0000 0.63082  0.87774  0.25522  Biso   1.000  Zn
  Zn3      1.0000 0.00000  0.50000  0.50000  Biso   1.000  Zn
  Zn4      1.0000 0.50000  0.50000  0.50000  Biso   1.000  Zn
  H1       1.0000 0.08500  0.84250  0.63220  Biso   1.000  H
  H2       1.0000 0.59020  0.85780  0.63670  Biso   1.000  H
  H3       1.0000 0.04010  0.26670  0.62560  Biso   1.000  H
  H4       1.0000 0.53900  0.27060  0.61970  Biso   1.000  H
  H5       1.0000 0.86230  0.05580  0.84720  Biso   1.000  H
  H6       1.0000 0.31300  0.00290  0.05320  Biso   1.000  H
  H7       1.0000 0.96780  0.29080  0.84530  Biso   1.000  H
  H8       1.0000 0.74500  0.57110  0.05090  Biso   1.000  H
  H9       1.0000 0.91500  0.15750  0.36780  Biso   1.000  H
  H10      1.0000 0.40980  0.14220  0.36330  Biso   1.000  H
  H11      1.0000 0.95990  0.73330  0.37440  Biso   1.000  H
  H12      1.0000 0.46100  0.72940  0.38030  Biso   1.000  H
  H13      1.0000 0.13770  0.94420  0.15280  Biso   1.000  H
  H14      1.0000 0.68700  0.99710  0.94680  Biso   1.000  H
  H15      1.0000 0.03220  0.70920  0.15470  Biso   1.000  H
  H16      1.0000 0.25500  0.42890  0.94910  Biso   1.000  H
  C1       1.0000 0.19490  0.81520  0.62130  Biso   1.000  C
  C2       1.0000 0.46650  0.82350  0.62390  Biso   1.000  C
  C3       1.0000 0.15150  0.28820  0.61350  Biso   1.000  C
  C4       1.0000 0.41950  0.29020  0.61030  Biso   1.000  C
  C5       1.0000 0.21770  0.07550  0.87790  Biso   1.000  C
  C6       1.0000 0.10390  0.03610  0.94060  Biso   1.000  C
  C7       1.0000 0.91820  0.03340  0.90940  Biso   1.000  C
  C8       1.0000 0.18640  0.00200  0.03170  Biso   1.000  C
  C9       1.0000 0.98120  0.37560  0.90800  Biso   1.000  C
  C10      1.0000 0.84810  0.54240  0.03030  Biso   1.000  C
  C11      1.0000 0.82850  0.41730  0.93800  Biso   1.000  C
  C12      1.0000 0.64330  0.32850  0.87240  Biso   1.000  C
  C13      1.0000 0.80510  0.18480  0.37870  Biso   1.000  C
  C14      1.0000 0.53350  0.17650  0.37610  Biso   1.000  C
  C15      1.0000 0.84850  0.71180  0.38650  Biso   1.000  C
  C16      1.0000 0.58050  0.70980  0.38970  Biso   1.000  C
  C17      1.0000 0.78230  0.92450  0.12210  Biso   1.000  C
  C18      1.0000 0.89610  0.96390  0.05940  Biso   1.000  C
  C19      1.0000 0.08180  0.96660  0.09060  Biso   1.000  C
  C20      1.0000 0.81360  0.99800  0.96830  Biso   1.000  C
  C21      1.0000 0.01880  0.62440  0.09200  Biso   1.000  C
  C22      1.0000 0.15190  0.45760  0.96970  Biso   1.000  C
  C23      1.0000 0.17150  0.58270  0.06200  Biso   1.000  C
  C24      1.0000 0.35670  0.67150  0.12760  Biso   1.000  C
  N1       1.0000 0.21140  0.68150  0.56970  Biso   1.000  N
  N2       1.0000 0.38930  0.68590  0.57140  Biso   1.000  N
  N3       1.0000 0.35110  0.90960  0.65710  Biso   1.000  N
  N4       1.0000 0.17930  0.37810  0.56500  Biso   1.000  N
  N5       1.0000 0.35540  0.37890  0.56300  Biso   1.000  N
  N6       1.0000 0.29780  0.23050  0.64380  Biso   1.000  N
  N7       1.0000 0.78860  0.31850  0.43030  Biso   1.000  N
  N8       1.0000 0.61070  0.31410  0.42860  Biso   1.000  N
  N9       1.0000 0.64890  0.09040  0.34290  Biso   1.000  N
  N10      1.0000 0.82070  0.62190  0.43500  Biso   1.000  N
  N11      1.0000 0.64460  0.62110  0.43700  Biso   1.000  N
  N12      1.0000 0.70220  0.76950  0.35620  Biso   1.000  N
  O1       1.0000 0.14070  0.09360  0.79020  Biso   1.000  O
  O2       1.0000 0.38520  0.09290  0.91300  Biso   1.000  O
  O3       1.0000 0.63580  0.20330  0.80090  Biso   1.000  O
  O4       1.0000 0.50680  0.38020  0.88740  Biso   1.000  O
  O5       1.0000 0.85930  0.90640  0.20980  Biso   1.000  O
  O6       1.0000 0.61480  0.90710  0.08700  Biso   1.000  O
  O7       1.0000 0.36420  0.79670  0.19910  Biso   1.000  O
  O8       1.0000 0.49320  0.61980  0.11260  Biso   1.000  O
