data_image0
_cell_length_a       6.68824
_cell_length_b       15.1634
_cell_length_c       15.1634
_cell_angle_alpha    62.123
_cell_angle_beta     81.5454
_cell_angle_gamma    98.4546

_symmetry_space_group_name_H-M    P 1
_symmetry_int_tables_number       1

loop_
  _symmetry_equiv_pos_as_xyz
  'x, y, z'

loop_
  _atom_site_label
  _atom_site_occupancy
  _atom_site_fract_x
  _atom_site_fract_y
  _atom_site_fract_z
  _atom_site_thermal_displace_type
  _atom_site_B_iso_or_equiv
  _atom_site_type_symbol
  Ni1      1.0000 0.69820  0.31370  0.26900  Biso   1.000  Ni
  Ni2      1.0000 0.96720  0.26900  0.41730  Biso   1.000  Ni
  Ni3      1.0000 0.38450  0.41730  0.31370  Biso   1.000  Ni
  Ni4      1.0000 0.30180  0.68630  0.73100  Biso   1.000  Ni
  Ni5      1.0000 0.03280  0.73100  0.58270  Biso   1.000  Ni
  Ni6      1.0000 0.61550  0.58270  0.68630  Biso   1.000  Ni
  H1       1.0000 0.64400  0.54200  0.47000  Biso   1.000  H
  H2       1.0000 0.11400  0.47000  0.98800  Biso   1.000  H
  H3       1.0000 0.10200  0.98800  0.54200  Biso   1.000  H
  H4       1.0000 0.35600  0.45800  0.53000  Biso   1.000  H
  H5       1.0000 0.88600  0.53000  0.01200  Biso   1.000  H
  H6       1.0000 0.89800  0.01200  0.45800  Biso   1.000  H
  C1       1.0000 0.75180  0.43110  0.38370  Biso   1.000  C
  C2       1.0000 0.89430  0.46220  0.44630  Biso   1.000  C
  C3       1.0000 0.06990  0.43860  0.46290  Biso   1.000  C
  C4       1.0000 0.82930  0.52810  0.47620  Biso   1.000  C
  C5       1.0000 0.13550  0.38370  0.18520  Biso   1.000  C
  C6       1.0000 0.34060  0.44630  0.09150  Biso   1.000  C
  C7       1.0000 0.53280  0.46290  0.09850  Biso   1.000  C
  C8       1.0000 0.30550  0.47620  0.99570  Biso   1.000  C
  C9       1.0000 0.32070  0.18520  0.43110  Biso   1.000  C
  C10      1.0000 0.43210  0.09150  0.46220  Biso   1.000  C
  C11      1.0000 0.63130  0.09850  0.43860  Biso   1.000  C
  C12      1.0000 0.30120  0.99570  0.52810  Biso   1.000  C
  C13      1.0000 0.24820  0.56890  0.61630  Biso   1.000  C
  C14      1.0000 0.10570  0.53780  0.55370  Biso   1.000  C
  C15      1.0000 0.93010  0.56140  0.53710  Biso   1.000  C
  C16      1.0000 0.17070  0.47190  0.52380  Biso   1.000  C
  C17      1.0000 0.86450  0.61630  0.81480  Biso   1.000  C
  C18      1.0000 0.65940  0.55370  0.90850  Biso   1.000  C
  C19      1.0000 0.46720  0.53710  0.90150  Biso   1.000  C
  C20      1.0000 0.69450  0.52380  0.00430  Biso   1.000  C
  C21      1.0000 0.67930  0.81480  0.56890  Biso   1.000  C
  C22      1.0000 0.56790  0.90850  0.53780  Biso   1.000  C
  C23      1.0000 0.36870  0.90150  0.56140  Biso   1.000  C
  C24      1.0000 0.69880  0.00430  0.47190  Biso   1.000  C
  O1       1.0000 0.59430  0.47430  0.37140  Biso   1.000  O
  O2       1.0000 0.80750  0.37860  0.35310  Biso   1.000  O
  O3       1.0000 0.14720  0.36930  0.44070  Biso   1.000  O
  O4       1.0000 0.55800  0.24230  0.19730  Biso   1.000  O
  O5       1.0000 0.96570  0.37140  0.15430  Biso   1.000  O
  O6       1.0000 0.16060  0.35310  0.26830  Biso   1.000  O
  O7       1.0000 0.58790  0.44070  0.19000  Biso   1.000  O
  O8       1.0000 0.75530  0.19730  0.56040  Biso   1.000  O
  O9       1.0000 0.12000  0.15430  0.47430  Biso   1.000  O
  O10      1.0000 0.42890  0.26830  0.37860  Biso   1.000  O
  O11      1.0000 0.77790  0.19000  0.36930  Biso   1.000  O
  O12      1.0000 0.31570  0.56040  0.24230  Biso   1.000  O
  O13      1.0000 0.40570  0.52570  0.62860  Biso   1.000  O
  O14      1.0000 0.19250  0.62140  0.64690  Biso   1.000  O
  O15      1.0000 0.85280  0.63070  0.55930  Biso   1.000  O
  O16      1.0000 0.44200  0.75770  0.80270  Biso   1.000  O
  O17      1.0000 0.03430  0.62860  0.84570  Biso   1.000  O
  O18      1.0000 0.83940  0.64690  0.73170  Biso   1.000  O
  O19      1.0000 0.41210  0.55930  0.81000  Biso   1.000  O
  O20      1.0000 0.24470  0.80270  0.43960  Biso   1.000  O
  O21      1.0000 0.88000  0.84570  0.52570  Biso   1.000  O
  O22      1.0000 0.57110  0.73170  0.62140  Biso   1.000  O
  O23      1.0000 0.22210  0.81000  0.63070  Biso   1.000  O
  O24      1.0000 0.68430  0.43960  0.75770  Biso   1.000  O
