data_image0
_cell_length_a       14.7879
_cell_length_b       14.7879
_cell_length_c       27.9057
_cell_angle_alpha    79.6516
_cell_angle_beta     74.9658
_cell_angle_gamma    99.8765

_symmetry_space_group_name_H-M    P 1
_symmetry_int_tables_number       1

loop_
  _symmetry_equiv_pos_as_xyz
  'x, y, z'

loop_
  _atom_site_label
  _atom_site_occupancy
  _atom_site_fract_x
  _atom_site_fract_y
  _atom_site_fract_z
  _atom_site_thermal_displace_type
  _atom_site_B_iso_or_equiv
  _atom_site_type_symbol
  La1      1.0000 0.60845  0.87391  0.99676  Biso   1.000  La
  La2      1.0000 0.37067  0.60521  0.50324  Biso   1.000  La
  La3      1.0000 0.39155  0.12609  0.00324  Biso   1.000  La
  La4      1.0000 0.62933  0.39479  0.49676  Biso   1.000  La
  P1       1.0000 0.63900  0.72937  0.89877  Biso   1.000  P
  P2       1.0000 0.83833  0.43227  0.55602  Biso   1.000  P
  P3       1.0000 0.41587  0.86075  0.52228  Biso   1.000  P
  P4       1.0000 0.64679  0.64873  0.45812  Biso   1.000  P
  P5       1.0000 0.12814  0.53777  0.60123  Biso   1.000  P
  P6       1.0000 0.48829  0.39435  0.94398  Biso   1.000  P
  P7       1.0000 0.88303  0.93815  0.97772  Biso   1.000  P
  P8       1.0000 0.60685  0.10491  0.04188  Biso   1.000  P
  P9       1.0000 0.36100  0.27063  0.10123  Biso   1.000  P
  P10      1.0000 0.16167  0.56773  0.44398  Biso   1.000  P
  P11      1.0000 0.58413  0.13925  0.47772  Biso   1.000  P
  P12      1.0000 0.35321  0.35127  0.54188  Biso   1.000  P
  P13      1.0000 0.87186  0.46223  0.39877  Biso   1.000  P
  P14      1.0000 0.51171  0.60565  0.05602  Biso   1.000  P
  P15      1.0000 0.11697  0.06185  0.02228  Biso   1.000  P
  P16      1.0000 0.39315  0.89509  0.95812  Biso   1.000  P
  H1       1.0000 0.79050  0.89090  0.83640  Biso   1.000  H
  H2       1.0000 0.88090  0.93810  0.75220  Biso   1.000  H
  H3       1.0000 0.69630  0.73800  0.72070  Biso   1.000  H
  H4       1.0000 0.77460  0.98920  0.66260  Biso   1.000  H
  H5       1.0000 0.87250  0.02440  0.67530  Biso   1.000  H
  H6       1.0000 0.87720  0.99540  0.53100  Biso   1.000  H
  H7       1.0000 0.77730  0.97140  0.57570  Biso   1.000  H
  H8       1.0000 0.73500  0.82630  0.64730  Biso   1.000  H
  H9       1.0000 0.80910  0.75920  0.64890  Biso   1.000  H
  H10      1.0000 0.03120  0.06030  0.60570  Biso   1.000  H
  H11      1.0000 0.03220  0.04860  0.54960  Biso   1.000  H
  H12      1.0000 0.99140  0.88580  0.53420  Biso   1.000  H
  H13      1.0000 0.96290  0.79520  0.58090  Biso   1.000  H
  H14      1.0000 0.98800  0.92050  0.67710  Biso   1.000  H
  H15      1.0000 0.96340  0.81630  0.66810  Biso   1.000  H
  H16      1.0000 0.95440  0.17890  0.63170  Biso   1.000  H
  H17      1.0000 0.93440  0.33050  0.61590  Biso   1.000  H
  H18      1.0000 0.80530  0.27330  0.51180  Biso   1.000  H
  H19      1.0000 0.82630  0.12230  0.52720  Biso   1.000  H
  H20      1.0000 0.67340  0.83990  0.57690  Biso   1.000  H
  H21      1.0000 0.59520  0.76050  0.52970  Biso   1.000  H
  H22      1.0000 0.83700  0.67220  0.47220  Biso   1.000  H
  H23      1.0000 0.91230  0.75430  0.51880  Biso   1.000  H
  H24      1.0000 0.18080  0.04810  0.55230  Biso   1.000  H
  H25      1.0000 0.33590  0.02560  0.52030  Biso   1.000  H
  H26      1.0000 0.23730  0.74970  0.58660  Biso   1.000  H
  H27      1.0000 0.08460  0.76990  0.61750  Biso   1.000  H
  H28      1.0000 0.22730  0.62690  0.66360  Biso   1.000  H
  H29      1.0000 0.19030  0.63310  0.74780  Biso   1.000  H
  H30      1.0000 0.95870  0.41700  0.77930  Biso   1.000  H
  H31      1.0000 0.15180  0.43720  0.83740  Biso   1.000  H
  H32      1.0000 0.19970  0.54780  0.82470  Biso   1.000  H
  H33      1.0000 0.02640  0.40820  0.96900  Biso   1.000  H
  H34      1.0000 0.04710  0.35300  0.92430  Biso   1.000  H
  H35      1.0000 0.97360  0.38230  0.85270  Biso   1.000  H
  H36      1.0000 0.90810  0.45800  0.85110  Biso   1.000  H
  H37      1.0000 0.16600  0.63690  0.89430  Biso   1.000  H
  H38      1.0000 0.09820  0.58180  0.95040  Biso   1.000  H
  H39      1.0000 0.92000  0.52560  0.96580  Biso   1.000  H
  H40      1.0000 0.87610  0.54380  0.91910  Biso   1.000  H
  H41      1.0000 0.09760  0.66510  0.82290  Biso   1.000  H
  H42      1.0000 0.98440  0.63150  0.83190  Biso   1.000  H
  H43      1.0000 0.31060  0.58610  0.86830  Biso   1.000  H
  H44      1.0000 0.44640  0.55030  0.88410  Biso   1.000  H
  H45      1.0000 0.28510  0.31710  0.98820  Biso   1.000  H
  H46      1.0000 0.14950  0.35350  0.97280  Biso   1.000  H
  H47      1.0000 0.91680  0.25030  0.92310  Biso   1.000  H
  H48      1.0000 0.79020  0.12490  0.97030  Biso   1.000  H
  H49      1.0000 0.64440  0.30920  0.02780  Biso   1.000  H
  H50      1.0000 0.77310  0.43110  0.98120  Biso   1.000  H
  H51      1.0000 0.10040  0.73310  0.94770  Biso   1.000  H
  H52      1.0000 0.04590  0.85620  0.97970  Biso   1.000  H
  H53      1.0000 0.83630  0.82390  0.91340  Biso   1.000  H
  H54      1.0000 0.88740  0.70210  0.88250  Biso   1.000  H
  H55      1.0000 0.20950  0.10910  0.16360  Biso   1.000  H
  H56      1.0000 0.11910  0.06190  0.24780  Biso   1.000  H
  H57      1.0000 0.30370  0.26200  0.27930  Biso   1.000  H
  H58      1.0000 0.22540  0.01080  0.33740  Biso   1.000  H
  H59      1.0000 0.12750  0.97560  0.32470  Biso   1.000  H
  H60      1.0000 0.12280  0.00460  0.46900  Biso   1.000  H
  H61      1.0000 0.22270  0.02860  0.42430  Biso   1.000  H
  H62      1.0000 0.26500  0.17370  0.35270  Biso   1.000  H
  H63      1.0000 0.19090  0.24080  0.35110  Biso   1.000  H
  H64      1.0000 0.96880  0.93970  0.39430  Biso   1.000  H
  H65      1.0000 0.96780  0.95140  0.45040  Biso   1.000  H
  H66      1.0000 0.00860  0.11420  0.46580  Biso   1.000  H
  H67      1.0000 0.03710  0.20480  0.41910  Biso   1.000  H
  H68      1.0000 0.01200  0.07950  0.32290  Biso   1.000  H
  H69      1.0000 0.03660  0.18370  0.33190  Biso   1.000  H
  H70      1.0000 0.04560  0.82110  0.36830  Biso   1.000  H
  H71      1.0000 0.06560  0.66950  0.38410  Biso   1.000  H
  H72      1.0000 0.19470  0.72670  0.48820  Biso   1.000  H
  H73      1.0000 0.17370  0.87770  0.47280  Biso   1.000  H
  H74      1.0000 0.32660  0.16010  0.42310  Biso   1.000  H
  H75      1.0000 0.40480  0.23950  0.47030  Biso   1.000  H
  H76      1.0000 0.16300  0.32780  0.52780  Biso   1.000  H
  H77      1.0000 0.08770  0.24570  0.48120  Biso   1.000  H
  H78      1.0000 0.81920  0.95190  0.44770  Biso   1.000  H
  H79      1.0000 0.66410  0.97440  0.47970  Biso   1.000  H
  H80      1.0000 0.76270  0.25030  0.41340  Biso   1.000  H
  H81      1.0000 0.91540  0.23010  0.38250  Biso   1.000  H
  H82      1.0000 0.77270  0.37310  0.33640  Biso   1.000  H
  H83      1.0000 0.80970  0.36690  0.25220  Biso   1.000  H
  H84      1.0000 0.04130  0.58300  0.22070  Biso   1.000  H
  H85      1.0000 0.84820  0.56280  0.16260  Biso   1.000  H
  H86      1.0000 0.80030  0.45220  0.17530  Biso   1.000  H
  H87      1.0000 0.97360  0.59180  0.03100  Biso   1.000  H
  H88      1.0000 0.95290  0.64700  0.07570  Biso   1.000  H
  H89      1.0000 0.02640  0.61770  0.14730  Biso   1.000  H
  H90      1.0000 0.09190  0.54200  0.14890  Biso   1.000  H
  H91      1.0000 0.83400  0.36310  0.10570  Biso   1.000  H
  H92      1.0000 0.90180  0.41820  0.04960  Biso   1.000  H
  H93      1.0000 0.08000  0.47440  0.03420  Biso   1.000  H
  H94      1.0000 0.12390  0.45620  0.08090  Biso   1.000  H
  H95      1.0000 0.90240  0.33490  0.17710  Biso   1.000  H
  H96      1.0000 0.01560  0.36850  0.16810  Biso   1.000  H
  H97      1.0000 0.68940  0.41390  0.13170  Biso   1.000  H
  H98      1.0000 0.55360  0.44970  0.11590  Biso   1.000  H
  H99      1.0000 0.71490  0.68290  0.01180  Biso   1.000  H
  H100     1.0000 0.85050  0.64650  0.02720  Biso   1.000  H
  H101     1.0000 0.08320  0.74970  0.07690  Biso   1.000  H
  H102     1.0000 0.20980  0.87510  0.02970  Biso   1.000  H
  H103     1.0000 0.35560  0.69080  0.97220  Biso   1.000  H
  H104     1.0000 0.22690  0.56890  0.01880  Biso   1.000  H
  H105     1.0000 0.89960  0.26690  0.05230  Biso   1.000  H
  H106     1.0000 0.95410  0.14380  0.02030  Biso   1.000  H
  H107     1.0000 0.16370  0.17610  0.08660  Biso   1.000  H
  H108     1.0000 0.11260  0.29790  0.11750  Biso   1.000  H
  C1       1.0000 0.70490  0.77160  0.83290  Biso   1.000  C
  C2       1.0000 0.77620  0.85460  0.81340  Biso   1.000  C
  C3       1.0000 0.82670  0.88640  0.76290  Biso   1.000  C
  C4       1.0000 0.71810  0.76730  0.74460  Biso   1.000  C
  C5       1.0000 0.67010  0.73490  0.79680  Biso   1.000  C
  C6       1.0000 0.79930  0.84360  0.72750  Biso   1.000  C
  C7       1.0000 0.85040  0.88350  0.67070  Biso   1.000  C
  C8       1.0000 0.84330  0.98650  0.65500  Biso   1.000  C
  C9       1.0000 0.89430  0.02880  0.59810  Biso   1.000  C
  C10      1.0000 0.84600  0.96880  0.56800  Biso   1.000  C
  C11      1.0000 0.85320  0.86510  0.58170  Biso   1.000  C
  C12      1.0000 0.80420  0.82550  0.63930  Biso   1.000  C
  C13      1.0000 0.99900  0.02210  0.58650  Biso   1.000  C
  C14      1.0000 0.95820  0.86160  0.57120  Biso   1.000  C
  C15      1.0000 0.95700  0.88190  0.65770  Biso   1.000  C
  C16      1.0000 0.00820  0.92020  0.60080  Biso   1.000  C
  C17      1.0000 0.88460  0.13100  0.58380  Biso   1.000  C
  C18      1.0000 0.92090  0.19720  0.60810  Biso   1.000  C
  C19      1.0000 0.90920  0.28730  0.59870  Biso   1.000  C
  C20      1.0000 0.86190  0.31700  0.56470  Biso   1.000  C
  C21      1.0000 0.83380  0.25360  0.53760  Biso   1.000  C
  C22      1.0000 0.84580  0.16360  0.54700  Biso   1.000  C
  C23      1.0000 0.80300  0.80820  0.55180  Biso   1.000  C
  C24      1.0000 0.70740  0.80700  0.55480  Biso   1.000  C
  C25      1.0000 0.66060  0.75960  0.52660  Biso   1.000  C
  C26      1.0000 0.70720  0.71110  0.49410  Biso   1.000  C
  C27      1.0000 0.80360  0.70800  0.49260  Biso   1.000  C
  C28      1.0000 0.84760  0.75650  0.52070  Biso   1.000  C
  C29      1.0000 0.11440  0.91180  0.58720  Biso   1.000  C
  C30      1.0000 0.19140  0.98610  0.55890  Biso   1.000  C
  C31      1.0000 0.28460  0.97310  0.53970  Biso   1.000  C
  C32      1.0000 0.30100  0.88500  0.54900  Biso   1.000  C
  C33      1.0000 0.22540  0.81100  0.57880  Biso   1.000  C
  C34      1.0000 0.13460  0.82280  0.59740  Biso   1.000  C
  C35      1.0000 0.10450  0.53780  0.66710  Biso   1.000  C
  C36      1.0000 0.16800  0.58960  0.68660  Biso   1.000  C
  C37      1.0000 0.14930  0.58960  0.73710  Biso   1.000  C
  C38      1.0000 0.01190  0.46270  0.75540  Biso   1.000  C
  C39      1.0000 0.03170  0.46690  0.70320  Biso   1.000  C
  C40      1.0000 0.07110  0.52680  0.77250  Biso   1.000  C
  C41      1.0000 0.05420  0.52110  0.82930  Biso   1.000  C
  C42      1.0000 0.14150  0.49830  0.84500  Biso   1.000  C
  C43      1.0000 0.12690  0.49240  0.90190  Biso   1.000  C
  C44      1.0000 0.03680  0.41400  0.93200  Biso   1.000  C
  C45      1.0000 0.94680  0.43490  0.91830  Biso   1.000  C
  C46      1.0000 0.96480  0.44350  0.86070  Biso   1.000  C
  C47      1.0000 0.10860  0.58550  0.91350  Biso   1.000  C
  C48      1.0000 0.93280  0.52940  0.92880  Biso   1.000  C
  C49      1.0000 0.03960  0.61470  0.84230  Biso   1.000  C
  C50      1.0000 0.02100  0.60900  0.89920  Biso   1.000  C
  C51      1.0000 0.21480  0.46840  0.91620  Biso   1.000  C
  C52      1.0000 0.30530  0.52900  0.89190  Biso   1.000  C
  C53      1.0000 0.38600  0.50790  0.90130  Biso   1.000  C
  C54      1.0000 0.38170  0.42660  0.93530  Biso   1.000  C
  C55      1.0000 0.29120  0.37140  0.96240  Biso   1.000  C
  C56      1.0000 0.21060  0.39280  0.95300  Biso   1.000  C
  C57      1.0000 0.86000  0.35480  0.94820  Biso   1.000  C
  C58      1.0000 0.86180  0.26220  0.94520  Biso   1.000  C
  C59      1.0000 0.78620  0.18720  0.97340  Biso   1.000  C
  C60      1.0000 0.70520  0.20130  0.00590  Biso   1.000  C
  C61      1.0000 0.70060  0.29620  0.00740  Biso   1.000  C
  C62      1.0000 0.77720  0.36830  0.97930  Biso   1.000  C
  C63      1.0000 0.99900  0.70160  0.91280  Biso   1.000  C
  C64      1.0000 0.04500  0.75030  0.94110  Biso   1.000  C
  C65      1.0000 0.01280  0.82430  0.96030  Biso   1.000  C
  C66      1.0000 0.93400  0.85000  0.95100  Biso   1.000  C
  C67      1.0000 0.88980  0.80420  0.92120  Biso   1.000  C
  C68      1.0000 0.92020  0.73200  0.90260  Biso   1.000  C
  C69      1.0000 0.29510  0.22840  0.16710  Biso   1.000  C
  C70      1.0000 0.22380  0.14540  0.18660  Biso   1.000  C
  C71      1.0000 0.17330  0.11360  0.23710  Biso   1.000  C
  C72      1.0000 0.28190  0.23270  0.25540  Biso   1.000  C
  C73      1.0000 0.32990  0.26510  0.20320  Biso   1.000  C
  C74      1.0000 0.20070  0.15640  0.27250  Biso   1.000  C
  C75      1.0000 0.14960  0.11650  0.32930  Biso   1.000  C
  C76      1.0000 0.15670  0.01350  0.34500  Biso   1.000  C
  C77      1.0000 0.10570  0.97120  0.40190  Biso   1.000  C
  C78      1.0000 0.15400  0.03120  0.43200  Biso   1.000  C
  C79      1.0000 0.14680  0.13490  0.41830  Biso   1.000  C
  C80      1.0000 0.19580  0.17450  0.36070  Biso   1.000  C
  C81      1.0000 0.00100  0.97790  0.41350  Biso   1.000  C
  C82      1.0000 0.04180  0.13840  0.42880  Biso   1.000  C
  C83      1.0000 0.04300  0.11810  0.34230  Biso   1.000  C
  C84      1.0000 0.99180  0.07980  0.39920  Biso   1.000  C
  C85      1.0000 0.11540  0.86900  0.41620  Biso   1.000  C
  C86      1.0000 0.07910  0.80280  0.39190  Biso   1.000  C
  C87      1.0000 0.09080  0.71270  0.40130  Biso   1.000  C
  C88      1.0000 0.13810  0.68300  0.43530  Biso   1.000  C
  C89      1.0000 0.16620  0.74640  0.46240  Biso   1.000  C
  C90      1.0000 0.15420  0.83640  0.45300  Biso   1.000  C
  C91      1.0000 0.19700  0.19180  0.44820  Biso   1.000  C
  C92      1.0000 0.29260  0.19300  0.44520  Biso   1.000  C
  C93      1.0000 0.33940  0.24040  0.47340  Biso   1.000  C
  C94      1.0000 0.29280  0.28890  0.50590  Biso   1.000  C
  C95      1.0000 0.19640  0.29200  0.50740  Biso   1.000  C
  C96      1.0000 0.15240  0.24350  0.47930  Biso   1.000  C
  C97      1.0000 0.88560  0.08820  0.41280  Biso   1.000  C
  C98      1.0000 0.80860  0.01390  0.44110  Biso   1.000  C
  C99      1.0000 0.71540  0.02690  0.46030  Biso   1.000  C
  C100     1.0000 0.69900  0.11500  0.45100  Biso   1.000  C
  C101     1.0000 0.77460  0.18900  0.42120  Biso   1.000  C
  C102     1.0000 0.86540  0.17720  0.40260  Biso   1.000  C
  C103     1.0000 0.89550  0.46220  0.33290  Biso   1.000  C
  C104     1.0000 0.83200  0.41040  0.31340  Biso   1.000  C
  C105     1.0000 0.85070  0.41040  0.26290  Biso   1.000  C
  C106     1.0000 0.98810  0.53730  0.24460  Biso   1.000  C
  C107     1.0000 0.96830  0.53310  0.29680  Biso   1.000  C
  C108     1.0000 0.92890  0.47320  0.22750  Biso   1.000  C
  C109     1.0000 0.94580  0.47890  0.17070  Biso   1.000  C
  C110     1.0000 0.85850  0.50170  0.15500  Biso   1.000  C
  C111     1.0000 0.87310  0.50760  0.09810  Biso   1.000  C
  C112     1.0000 0.96320  0.58600  0.06800  Biso   1.000  C
  C113     1.0000 0.05320  0.56510  0.08170  Biso   1.000  C
  C114     1.0000 0.03520  0.55650  0.13930  Biso   1.000  C
  C115     1.0000 0.89140  0.41450  0.08650  Biso   1.000  C
  C116     1.0000 0.06720  0.47060  0.07120  Biso   1.000  C
  C117     1.0000 0.96040  0.38530  0.15770  Biso   1.000  C
  C118     1.0000 0.97900  0.39100  0.10080  Biso   1.000  C
  C119     1.0000 0.78520  0.53160  0.08380  Biso   1.000  C
  C120     1.0000 0.69470  0.47100  0.10810  Biso   1.000  C
  C121     1.0000 0.61400  0.49210  0.09870  Biso   1.000  C
  C122     1.0000 0.61830  0.57340  0.06470  Biso   1.000  C
  C123     1.0000 0.70880  0.62860  0.03760  Biso   1.000  C
  C124     1.0000 0.78940  0.60720  0.04700  Biso   1.000  C
  C125     1.0000 0.14000  0.64520  0.05180  Biso   1.000  C
  C126     1.0000 0.13820  0.73780  0.05480  Biso   1.000  C
  C127     1.0000 0.21380  0.81280  0.02660  Biso   1.000  C
  C128     1.0000 0.29480  0.79870  0.99410  Biso   1.000  C
  C129     1.0000 0.29940  0.70380  0.99260  Biso   1.000  C
  C130     1.0000 0.22280  0.63170  0.02070  Biso   1.000  C
  C131     1.0000 0.00100  0.29840  0.08720  Biso   1.000  C
  C132     1.0000 0.95500  0.24970  0.05890  Biso   1.000  C
  C133     1.0000 0.98720  0.17570  0.03970  Biso   1.000  C
  C134     1.0000 0.06600  0.15000  0.04900  Biso   1.000  C
  C135     1.0000 0.11020  0.19580  0.07880  Biso   1.000  C
  C136     1.0000 0.07980  0.26800  0.09740  Biso   1.000  C
  O1       1.0000 0.66820  0.79390  0.92890  Biso   1.000  O
  O2       1.0000 0.65720  0.62540  0.91300  Biso   1.000  O
  O3       1.0000 0.52990  0.72050  0.90380  Biso   1.000  O
  O4       1.0000 0.76260  0.43510  0.53370  Biso   1.000  O
  O5       1.0000 0.92910  0.50480  0.52830  Biso   1.000  O
  O6       1.0000 0.80710  0.45330  0.61060  Biso   1.000  O
  O7       1.0000 0.40390  0.76020  0.52170  Biso   1.000  O
  O8       1.0000 0.48120  0.89140  0.55360  Biso   1.000  O
  O9       1.0000 0.46280  0.92720  0.46700  Biso   1.000  O
  O10      1.0000 0.54310  0.62770  0.48180  Biso   1.000  O
  O11      1.0000 0.67260  0.71890  0.40410  Biso   1.000  O
  O12      1.0000 0.68850  0.56550  0.44940  Biso   1.000  O
  O13      1.0000 0.64820  0.83180  0.08220  Biso   1.000  O
  O14      1.0000 0.44910  0.85710  0.06840  Biso   1.000  O
  O15      1.0000 0.66160  0.00430  0.91090  Biso   1.000  O
  O16      1.0000 0.22280  0.59710  0.57110  Biso   1.000  O
  O17      1.0000 0.03840  0.57020  0.58700  Biso   1.000  O
  O18      1.0000 0.12430  0.43370  0.59620  Biso   1.000  O
  O19      1.0000 0.46880  0.29630  0.96630  Biso   1.000  O
  O20      1.0000 0.53310  0.45740  0.97170  Biso   1.000  O
  O21      1.0000 0.56390  0.41770  0.88940  Biso   1.000  O
  O22      1.0000 0.78190  0.92560  0.97830  Biso   1.000  O
  O23      1.0000 0.94500  0.03480  0.94640  Biso   1.000  O
  O24      1.0000 0.89420  0.92980  0.03300  Biso   1.000  O
  O25      1.0000 0.60950  0.02490  0.01820  Biso   1.000  O
  O26      1.0000 0.62300  0.07670  0.09590  Biso   1.000  O
  O27      1.0000 0.51490  0.13790  0.05060  Biso   1.000  O
  O28      1.0000 0.41400  0.73040  0.41780  Biso   1.000  O
  O29      1.0000 0.42550  0.51750  0.43160  Biso   1.000  O
  O30      1.0000 0.41520  0.57250  0.58910  Biso   1.000  O
  O31      1.0000 0.33180  0.20610  0.07110  Biso   1.000  O
  O32      1.0000 0.34280  0.37460  0.08700  Biso   1.000  O
  O33      1.0000 0.47010  0.27950  0.09620  Biso   1.000  O
  O34      1.0000 0.23740  0.56490  0.46630  Biso   1.000  O
  O35      1.0000 0.07090  0.49520  0.47170  Biso   1.000  O
  O36      1.0000 0.19290  0.54670  0.38940  Biso   1.000  O
  O37      1.0000 0.59610  0.23980  0.47830  Biso   1.000  O
  O38      1.0000 0.51880  0.10860  0.44640  Biso   1.000  O
  O39      1.0000 0.53720  0.07280  0.53300  Biso   1.000  O
  O40      1.0000 0.45690  0.37230  0.51820  Biso   1.000  O
  O41      1.0000 0.32740  0.28110  0.59590  Biso   1.000  O
  O42      1.0000 0.31150  0.43450  0.55060  Biso   1.000  O
  O43      1.0000 0.35180  0.16820  0.91780  Biso   1.000  O
  O44      1.0000 0.55090  0.14290  0.93160  Biso   1.000  O
  O45      1.0000 0.33840  0.99570  0.08910  Biso   1.000  O
  O46      1.0000 0.77720  0.40290  0.42890  Biso   1.000  O
  O47      1.0000 0.96160  0.42980  0.41300  Biso   1.000  O
  O48      1.0000 0.87570  0.56630  0.40380  Biso   1.000  O
  O49      1.0000 0.53120  0.70370  0.03370  Biso   1.000  O
  O50      1.0000 0.46690  0.54260  0.02830  Biso   1.000  O
  O51      1.0000 0.43610  0.58230  0.11060  Biso   1.000  O
  O52      1.0000 0.21810  0.07440  0.02170  Biso   1.000  O
  O53      1.0000 0.05500  0.96520  0.05360  Biso   1.000  O
  O54      1.0000 0.10580  0.07020  0.96700  Biso   1.000  O
  O55      1.0000 0.39050  0.97510  0.98180  Biso   1.000  O
  O56      1.0000 0.37700  0.92330  0.90410  Biso   1.000  O
  O57      1.0000 0.48510  0.86210  0.94940  Biso   1.000  O
  O58      1.0000 0.58600  0.26960  0.58220  Biso   1.000  O
  O59      1.0000 0.57450  0.48250  0.56840  Biso   1.000  O
  O60      1.0000 0.58480  0.42750  0.41090  Biso   1.000  O
