data_image0
_cell_length_a       17.4047
_cell_length_b       17.9892
_cell_length_c       26.943
_cell_angle_alpha    90
_cell_angle_beta     90
_cell_angle_gamma    106.941

_symmetry_space_group_name_H-M    P 1
_symmetry_int_tables_number       1

loop_
  _symmetry_equiv_pos_as_xyz
  'x, y, z'

loop_
  _atom_site_label
  _atom_site_occupancy
  _atom_site_fract_x
  _atom_site_fract_y
  _atom_site_fract_z
  _atom_site_thermal_displace_type
  _atom_site_B_iso_or_equiv
  _atom_site_type_symbol
  Mn1      1.0000 0.32638  0.05275  0.12117  Biso   1.000  Mn
  Mn2      1.0000 0.11245  0.02908  0.12949  Biso   1.000  Mn
  Mn3      1.0000 0.67362  0.44725  0.62117  Biso   1.000  Mn
  Mn4      1.0000 0.88755  0.47092  0.62949  Biso   1.000  Mn
  Mn5      1.0000 0.67362  0.94725  0.87883  Biso   1.000  Mn
  Mn6      1.0000 0.88755  0.97092  0.87051  Biso   1.000  Mn
  Mn7      1.0000 0.32638  0.55275  0.37883  Biso   1.000  Mn
  Mn8      1.0000 0.11245  0.52908  0.37051  Biso   1.000  Mn
  Mn9      1.0000 0.00000  0.00000  0.00000  Biso   1.000  Mn
  Mn10     1.0000 0.00000  0.50000  0.50000  Biso   1.000  Mn
  H1       1.0000 0.36280  0.15910  0.76210  Biso   1.000  H
  H2       1.0000 0.37300  0.07340  0.76240  Biso   1.000  H
  H3       1.0000 0.30360  0.15920  0.63270  Biso   1.000  H
  H4       1.0000 0.31960  0.21250  0.68140  Biso   1.000  H
  H5       1.0000 0.18130  0.04140  0.62810  Biso   1.000  H
  H6       1.0000 0.12180  0.01910  0.67460  Biso   1.000  H
  H7       1.0000 0.25240  0.95710  0.75650  Biso   1.000  H
  H8       1.0000 0.16440  0.96750  0.75200  Biso   1.000  H
  H9       1.0000 0.32210  0.02670  0.63460  Biso   1.000  H
  H10      1.0000 0.34890  0.99320  0.68470  Biso   1.000  H
  H11      1.0000 0.22430  0.17700  0.75430  Biso   1.000  H
  H12      1.0000 0.14690  0.10270  0.75110  Biso   1.000  H
  H13      1.0000 0.12200  0.01930  0.81950  Biso   1.000  H
  H14      1.0000 0.10300  0.00640  0.90380  Biso   1.000  H
  H15      1.0000 0.34090  0.10850  0.92490  Biso   1.000  H
  H16      1.0000 0.35930  0.12030  0.84040  Biso   1.000  H
  H17      1.0000 0.46290  0.06280  0.64030  Biso   1.000  H
  H18      1.0000 0.59710  0.12870  0.62410  Biso   1.000  H
  H19      1.0000 0.57330  0.31680  0.69740  Biso   1.000  H
  H20      1.0000 0.44070  0.25030  0.71430  Biso   1.000  H
  H21      1.0000 0.13120  0.21810  0.72570  Biso   1.000  H
  H22      1.0000 0.07470  0.30780  0.69110  Biso   1.000  H
  H23      1.0000 0.11410  0.23590  0.55530  Biso   1.000  H
  H24      1.0000 0.17980  0.15370  0.58940  Biso   1.000  H
  H25      1.0000 0.16030  0.85210  0.72950  Biso   1.000  H
  H26      1.0000 0.09600  0.73000  0.69710  Biso   1.000  H
  H27      1.0000 0.15360  0.81610  0.55870  Biso   1.000  H
  H28      1.0000 0.22020  0.93650  0.59160  Biso   1.000  H
  H29      1.0000 0.31200  0.04470  0.22960  Biso   1.000  H
  H30      1.0000 0.33440  0.93380  0.33370  Biso   1.000  H
  H31      1.0000 0.32280  0.01800  0.32590  Biso   1.000  H
  H32      1.0000 0.26090  0.94340  0.30130  Biso   1.000  H
  H33      1.0000 0.40310  0.88010  0.28300  Biso   1.000  H
  H34      1.0000 0.35810  0.87110  0.23050  Biso   1.000  H
  H35      1.0000 0.44970  0.92320  0.23500  Biso   1.000  H
  H36      1.0000 0.42580  0.10050  0.02170  Biso   1.000  H
  H37      1.0000 0.53710  0.24510  0.96180  Biso   1.000  H
  H38      1.0000 0.60030  0.19840  0.97400  Biso   1.000  H
  H39      1.0000 0.51080  0.15230  0.95740  Biso   1.000  H
  H40      1.0000 0.54870  0.23970  0.09540  Biso   1.000  H
  H41      1.0000 0.62380  0.23050  0.06440  Biso   1.000  H
  H42      1.0000 0.58410  0.29750  0.05030  Biso   1.000  H
  H43      1.0000 0.63720  0.34090  0.26210  Biso   1.000  H
  H44      1.0000 0.62700  0.42660  0.26240  Biso   1.000  H
  H45      1.0000 0.69640  0.34080  0.13270  Biso   1.000  H
  H46      1.0000 0.68040  0.28750  0.18140  Biso   1.000  H
  H47      1.0000 0.81870  0.45860  0.12810  Biso   1.000  H
  H48      1.0000 0.87820  0.48090  0.17460  Biso   1.000  H
  H49      1.0000 0.74760  0.54290  0.25650  Biso   1.000  H
  H50      1.0000 0.83560  0.53250  0.25200  Biso   1.000  H
  H51      1.0000 0.67790  0.47330  0.13460  Biso   1.000  H
  H52      1.0000 0.65110  0.50680  0.18470  Biso   1.000  H
  H53      1.0000 0.77570  0.32300  0.25430  Biso   1.000  H
  H54      1.0000 0.85310  0.39730  0.25110  Biso   1.000  H
  H55      1.0000 0.87800  0.48070  0.31950  Biso   1.000  H
  H56      1.0000 0.89700  0.49360  0.40380  Biso   1.000  H
  H57      1.0000 0.65910  0.39150  0.42490  Biso   1.000  H
  H58      1.0000 0.64070  0.37970  0.34040  Biso   1.000  H
  H59      1.0000 0.53710  0.43720  0.14030  Biso   1.000  H
  H60      1.0000 0.40290  0.37130  0.12410  Biso   1.000  H
  H61      1.0000 0.42670  0.18320  0.19740  Biso   1.000  H
  H62      1.0000 0.55930  0.24970  0.21430  Biso   1.000  H
  H63      1.0000 0.86880  0.28190  0.22570  Biso   1.000  H
  H64      1.0000 0.92530  0.19220  0.19110  Biso   1.000  H
  H65      1.0000 0.88590  0.26410  0.05530  Biso   1.000  H
  H66      1.0000 0.82020  0.34630  0.08940  Biso   1.000  H
  H67      1.0000 0.83970  0.64790  0.22950  Biso   1.000  H
  H68      1.0000 0.90400  0.77000  0.19710  Biso   1.000  H
  H69      1.0000 0.84640  0.68390  0.05870  Biso   1.000  H
  H70      1.0000 0.77980  0.56350  0.09160  Biso   1.000  H
  H71      1.0000 0.68800  0.45530  0.72960  Biso   1.000  H
  H72      1.0000 0.66560  0.56620  0.83370  Biso   1.000  H
  H73      1.0000 0.67720  0.48200  0.82590  Biso   1.000  H
  H74      1.0000 0.73910  0.55660  0.80130  Biso   1.000  H
  H75      1.0000 0.59690  0.61990  0.78300  Biso   1.000  H
  H76      1.0000 0.64190  0.62890  0.73050  Biso   1.000  H
  H77      1.0000 0.55030  0.57680  0.73500  Biso   1.000  H
  H78      1.0000 0.57420  0.39950  0.52170  Biso   1.000  H
  H79      1.0000 0.46290  0.25490  0.46180  Biso   1.000  H
  H80      1.0000 0.39970  0.30160  0.47400  Biso   1.000  H
  H81      1.0000 0.48920  0.34770  0.45740  Biso   1.000  H
  H82      1.0000 0.45130  0.26030  0.59540  Biso   1.000  H
  H83      1.0000 0.37620  0.26950  0.56440  Biso   1.000  H
  H84      1.0000 0.41590  0.20250  0.55030  Biso   1.000  H
  H85      1.0000 0.63720  0.84090  0.23790  Biso   1.000  H
  H86      1.0000 0.62700  0.92660  0.23760  Biso   1.000  H
  H87      1.0000 0.69640  0.84080  0.36730  Biso   1.000  H
  H88      1.0000 0.68040  0.78750  0.31860  Biso   1.000  H
  H89      1.0000 0.81870  0.95860  0.37190  Biso   1.000  H
  H90      1.0000 0.87820  0.98090  0.32540  Biso   1.000  H
  H91      1.0000 0.74760  0.04290  0.24350  Biso   1.000  H
  H92      1.0000 0.83560  0.03250  0.24800  Biso   1.000  H
  H93      1.0000 0.67790  0.97330  0.36540  Biso   1.000  H
  H94      1.0000 0.65110  0.00680  0.31530  Biso   1.000  H
  H95      1.0000 0.77570  0.82300  0.24570  Biso   1.000  H
  H96      1.0000 0.85310  0.89730  0.24890  Biso   1.000  H
  H97      1.0000 0.87800  0.98070  0.18050  Biso   1.000  H
  H98      1.0000 0.89700  0.99360  0.09620  Biso   1.000  H
  H99      1.0000 0.65910  0.89150  0.07510  Biso   1.000  H
  H100     1.0000 0.64070  0.87970  0.15960  Biso   1.000  H
  H101     1.0000 0.53710  0.93720  0.35970  Biso   1.000  H
  H102     1.0000 0.40290  0.87130  0.37590  Biso   1.000  H
  H103     1.0000 0.42670  0.68320  0.30260  Biso   1.000  H
  H104     1.0000 0.55930  0.74970  0.28570  Biso   1.000  H
  H105     1.0000 0.86880  0.78190  0.27430  Biso   1.000  H
  H106     1.0000 0.92530  0.69220  0.30890  Biso   1.000  H
  H107     1.0000 0.88590  0.76410  0.44470  Biso   1.000  H
  H108     1.0000 0.82020  0.84630  0.41060  Biso   1.000  H
  H109     1.0000 0.83970  0.14790  0.27050  Biso   1.000  H
  H110     1.0000 0.90400  0.27000  0.30290  Biso   1.000  H
  H111     1.0000 0.84640  0.18390  0.44130  Biso   1.000  H
  H112     1.0000 0.77980  0.06350  0.40840  Biso   1.000  H
  H113     1.0000 0.68800  0.95530  0.77040  Biso   1.000  H
  H114     1.0000 0.66560  0.06620  0.66630  Biso   1.000  H
  H115     1.0000 0.67720  0.98200  0.67410  Biso   1.000  H
  H116     1.0000 0.73910  0.05660  0.69870  Biso   1.000  H
  H117     1.0000 0.59690  0.11990  0.71700  Biso   1.000  H
  H118     1.0000 0.64190  0.12890  0.76950  Biso   1.000  H
  H119     1.0000 0.55030  0.07680  0.76500  Biso   1.000  H
  H120     1.0000 0.57420  0.89950  0.97830  Biso   1.000  H
  H121     1.0000 0.46290  0.75490  0.03820  Biso   1.000  H
  H122     1.0000 0.39970  0.80160  0.02600  Biso   1.000  H
  H123     1.0000 0.48920  0.84770  0.04260  Biso   1.000  H
  H124     1.0000 0.45130  0.76030  0.90460  Biso   1.000  H
  H125     1.0000 0.37620  0.76950  0.93560  Biso   1.000  H
  H126     1.0000 0.41590  0.70250  0.94970  Biso   1.000  H
  H127     1.0000 0.36280  0.65910  0.73790  Biso   1.000  H
  H128     1.0000 0.37300  0.57340  0.73760  Biso   1.000  H
  H129     1.0000 0.30360  0.65920  0.86730  Biso   1.000  H
  H130     1.0000 0.31960  0.71250  0.81860  Biso   1.000  H
  H131     1.0000 0.18130  0.54140  0.87190  Biso   1.000  H
  H132     1.0000 0.12180  0.51910  0.82540  Biso   1.000  H
  H133     1.0000 0.25240  0.45710  0.74350  Biso   1.000  H
  H134     1.0000 0.16440  0.46750  0.74800  Biso   1.000  H
  H135     1.0000 0.32210  0.52670  0.86540  Biso   1.000  H
  H136     1.0000 0.34890  0.49320  0.81530  Biso   1.000  H
  H137     1.0000 0.22430  0.67700  0.74570  Biso   1.000  H
  H138     1.0000 0.14690  0.60270  0.74890  Biso   1.000  H
  H139     1.0000 0.12200  0.51930  0.68050  Biso   1.000  H
  H140     1.0000 0.10300  0.50640  0.59620  Biso   1.000  H
  H141     1.0000 0.34090  0.60850  0.57510  Biso   1.000  H
  H142     1.0000 0.35930  0.62030  0.65960  Biso   1.000  H
  H143     1.0000 0.46290  0.56280  0.85970  Biso   1.000  H
  H144     1.0000 0.59710  0.62870  0.87590  Biso   1.000  H
  H145     1.0000 0.57330  0.81680  0.80260  Biso   1.000  H
  H146     1.0000 0.44070  0.75030  0.78570  Biso   1.000  H
  H147     1.0000 0.13120  0.71810  0.77430  Biso   1.000  H
  H148     1.0000 0.07470  0.80780  0.80890  Biso   1.000  H
  H149     1.0000 0.11410  0.73590  0.94470  Biso   1.000  H
  H150     1.0000 0.17980  0.65370  0.91060  Biso   1.000  H
  H151     1.0000 0.16030  0.35210  0.77050  Biso   1.000  H
  H152     1.0000 0.09600  0.23000  0.80290  Biso   1.000  H
  H153     1.0000 0.15360  0.31610  0.94130  Biso   1.000  H
  H154     1.0000 0.22020  0.43650  0.90840  Biso   1.000  H
  H155     1.0000 0.31200  0.54470  0.27040  Biso   1.000  H
  H156     1.0000 0.33440  0.43380  0.16630  Biso   1.000  H
  H157     1.0000 0.32280  0.51800  0.17410  Biso   1.000  H
  H158     1.0000 0.26090  0.44340  0.19870  Biso   1.000  H
  H159     1.0000 0.40310  0.38010  0.21700  Biso   1.000  H
  H160     1.0000 0.35810  0.37110  0.26950  Biso   1.000  H
  H161     1.0000 0.44970  0.42320  0.26500  Biso   1.000  H
  H162     1.0000 0.42580  0.60050  0.47830  Biso   1.000  H
  H163     1.0000 0.53710  0.74510  0.53820  Biso   1.000  H
  H164     1.0000 0.60030  0.69840  0.52600  Biso   1.000  H
  H165     1.0000 0.51080  0.65230  0.54260  Biso   1.000  H
  H166     1.0000 0.54870  0.73970  0.40460  Biso   1.000  H
  H167     1.0000 0.62380  0.73050  0.43560  Biso   1.000  H
  H168     1.0000 0.58410  0.79750  0.44970  Biso   1.000  H
  C1       1.0000 0.25280  0.07250  0.76400  Biso   1.000  C
  C2       1.0000 0.34110  0.10600  0.74850  Biso   1.000  C
  C3       1.0000 0.34940  0.10880  0.69150  Biso   1.000  C
  C4       1.0000 0.29860  0.15840  0.66930  Biso   1.000  C
  C5       1.0000 0.20910  0.12600  0.68370  Biso   1.000  C
  C6       1.0000 0.17870  0.04160  0.66480  Biso   1.000  C
  C7       1.0000 0.22820  0.99070  0.68560  Biso   1.000  C
  C8       1.0000 0.22130  0.99020  0.74240  Biso   1.000  C
  C9       1.0000 0.31690  0.02590  0.67120  Biso   1.000  C
  C10      1.0000 0.20380  0.12350  0.74110  Biso   1.000  C
  C11      1.0000 0.24280  0.06970  0.82010  Biso   1.000  C
  C12      1.0000 0.16700  0.03710  0.84090  Biso   1.000  C
  C13      1.0000 0.15530  0.03020  0.89110  Biso   1.000  C
  C14      1.0000 0.21990  0.05770  0.92420  Biso   1.000  C
  C15      1.0000 0.29590  0.09040  0.90350  Biso   1.000  C
  C16      1.0000 0.30700  0.09690  0.85310  Biso   1.000  C
  C17      1.0000 0.21160  0.04830  0.97810  Biso   1.000  C
  C18      1.0000 0.43650  0.14830  0.67820  Biso   1.000  C
  C19      1.0000 0.48470  0.11440  0.65220  Biso   1.000  C
  C20      1.0000 0.56540  0.15380  0.64250  Biso   1.000  C
  C21      1.0000 0.59910  0.22800  0.65920  Biso   1.000  C
  C22      1.0000 0.55120  0.26500  0.68600  Biso   1.000  C
  C23      1.0000 0.47230  0.22550  0.69560  Biso   1.000  C
  C24      1.0000 0.68460  0.26950  0.65400  Biso   1.000  C
  C25      1.0000 0.16310  0.17710  0.66180  Biso   1.000  C
  C26      1.0000 0.12950  0.22240  0.69060  Biso   1.000  C
  C27      1.0000 0.09330  0.27430  0.67000  Biso   1.000  C
  C28      1.0000 0.08390  0.27790  0.61960  Biso   1.000  C
  C29      1.0000 0.11780  0.23290  0.59030  Biso   1.000  C
  C30      1.0000 0.15690  0.18360  0.61070  Biso   1.000  C
  C31      1.0000 0.04150  0.33200  0.60050  Biso   1.000  C
  C32      1.0000 0.19270  0.90810  0.66450  Biso   1.000  C
  C33      1.0000 0.15780  0.84520  0.69450  Biso   1.000  C
  C34      1.0000 0.11920  0.77220  0.67540  Biso   1.000  C
  C35      1.0000 0.11460  0.76120  0.62370  Biso   1.000  C
  C36      1.0000 0.15380  0.82330  0.59360  Biso   1.000  C
  C37      1.0000 0.19300  0.89540  0.61310  Biso   1.000  C
  C38      1.0000 0.06750  0.68530  0.60550  Biso   1.000  C
  C39      1.0000 0.35610  0.02460  0.22410  Biso   1.000  C
  C40      1.0000 0.31700  0.96700  0.31030  Biso   1.000  C
  C41      1.0000 0.39800  0.90700  0.25200  Biso   1.000  C
  C42      1.0000 0.45520  0.13770  0.04490  Biso   1.000  C
  C43      1.0000 0.54370  0.19720  0.97600  Biso   1.000  C
  C44      1.0000 0.57330  0.24400  0.06240  Biso   1.000  C
  C45      1.0000 0.08540  0.23050  0.27510  Biso   1.000  C
  C46      1.0000 0.10100  0.30000  0.24920  Biso   1.000  C
  C47      1.0000 0.09000  0.36300  0.21000  Biso   1.000  C
  C48      1.0000 0.09300  0.38100  0.16300  Biso   1.000  C
  C49      1.0000 0.06000  0.15700  0.25250  Biso   1.000  C
  C50      1.0000 0.06310  0.08530  0.22680  Biso   1.000  C
  C51      1.0000 0.06400  0.00000  0.30320  Biso   1.000  C
  C52      1.0000 0.06100  0.14300  0.31400  Biso   1.000  C
  C53      1.0000 0.74720  0.42750  0.26400  Biso   1.000  C
  C54      1.0000 0.65890  0.39400  0.24850  Biso   1.000  C
  C55      1.0000 0.65060  0.39120  0.19150  Biso   1.000  C
  C56      1.0000 0.70140  0.34160  0.16930  Biso   1.000  C
  C57      1.0000 0.79090  0.37400  0.18370  Biso   1.000  C
  C58      1.0000 0.82130  0.45840  0.16480  Biso   1.000  C
  C59      1.0000 0.77180  0.50930  0.18560  Biso   1.000  C
  C60      1.0000 0.77870  0.50980  0.24240  Biso   1.000  C
  C61      1.0000 0.68310  0.47410  0.17120  Biso   1.000  C
  C62      1.0000 0.79620  0.37650  0.24110  Biso   1.000  C
  C63      1.0000 0.75720  0.43030  0.32010  Biso   1.000  C
  C64      1.0000 0.83300  0.46290  0.34090  Biso   1.000  C
  C65      1.0000 0.84470  0.46980  0.39110  Biso   1.000  C
  C66      1.0000 0.78010  0.44230  0.42420  Biso   1.000  C
  C67      1.0000 0.70410  0.40960  0.40350  Biso   1.000  C
  C68      1.0000 0.69300  0.40310  0.35310  Biso   1.000  C
  C69      1.0000 0.78840  0.45170  0.47810  Biso   1.000  C
  C70      1.0000 0.56350  0.35170  0.17820  Biso   1.000  C
  C71      1.0000 0.51530  0.38560  0.15220  Biso   1.000  C
  C72      1.0000 0.43460  0.34620  0.14250  Biso   1.000  C
  C73      1.0000 0.40090  0.27200  0.15920  Biso   1.000  C
  C74      1.0000 0.44880  0.23500  0.18600  Biso   1.000  C
  C75      1.0000 0.52770  0.27450  0.19560  Biso   1.000  C
  C76      1.0000 0.31540  0.23050  0.15400  Biso   1.000  C
  C77      1.0000 0.83690  0.32290  0.16180  Biso   1.000  C
  C78      1.0000 0.87050  0.27760  0.19060  Biso   1.000  C
  C79      1.0000 0.90670  0.22570  0.17000  Biso   1.000  C
  C80      1.0000 0.91610  0.22210  0.11960  Biso   1.000  C
  C81      1.0000 0.88220  0.26710  0.09030  Biso   1.000  C
  C82      1.0000 0.84310  0.31640  0.11070  Biso   1.000  C
  C83      1.0000 0.95850  0.16800  0.10050  Biso   1.000  C
  C84      1.0000 0.80730  0.59190  0.16450  Biso   1.000  C
  C85      1.0000 0.84220  0.65480  0.19450  Biso   1.000  C
  C86      1.0000 0.88080  0.72780  0.17540  Biso   1.000  C
  C87      1.0000 0.88540  0.73880  0.12370  Biso   1.000  C
  C88      1.0000 0.84620  0.67670  0.09360  Biso   1.000  C
  C89      1.0000 0.80700  0.60460  0.11310  Biso   1.000  C
  C90      1.0000 0.93250  0.81470  0.10550  Biso   1.000  C
  C91      1.0000 0.64390  0.47540  0.72410  Biso   1.000  C
  C92      1.0000 0.68300  0.53300  0.81030  Biso   1.000  C
  C93      1.0000 0.60200  0.59300  0.75200  Biso   1.000  C
  C94      1.0000 0.54480  0.36230  0.54490  Biso   1.000  C
  C95      1.0000 0.45630  0.30280  0.47600  Biso   1.000  C
  C96      1.0000 0.42670  0.25600  0.56240  Biso   1.000  C
  C97      1.0000 0.91460  0.26950  0.77510  Biso   1.000  C
  C98      1.0000 0.89900  0.20000  0.74920  Biso   1.000  C
  C99      1.0000 0.91000  0.13700  0.71000  Biso   1.000  C
  C100     1.0000 0.90700  0.11900  0.66300  Biso   1.000  C
  C101     1.0000 0.94000  0.34300  0.75250  Biso   1.000  C
  C102     1.0000 0.93690  0.41470  0.72680  Biso   1.000  C
  C103     1.0000 0.93600  0.50000  0.80320  Biso   1.000  C
  C104     1.0000 0.93900  0.35700  0.81400  Biso   1.000  C
  C105     1.0000 0.74720  0.92750  0.23600  Biso   1.000  C
  C106     1.0000 0.65890  0.89400  0.25150  Biso   1.000  C
  C107     1.0000 0.65060  0.89120  0.30850  Biso   1.000  C
  C108     1.0000 0.70140  0.84160  0.33070  Biso   1.000  C
  C109     1.0000 0.79090  0.87400  0.31630  Biso   1.000  C
  C110     1.0000 0.82130  0.95840  0.33520  Biso   1.000  C
  C111     1.0000 0.77180  0.00930  0.31440  Biso   1.000  C
  C112     1.0000 0.77870  0.00980  0.25760  Biso   1.000  C
  C113     1.0000 0.68310  0.97410  0.32880  Biso   1.000  C
  C114     1.0000 0.79620  0.87650  0.25890  Biso   1.000  C
  C115     1.0000 0.75720  0.93030  0.17990  Biso   1.000  C
  C116     1.0000 0.83300  0.96290  0.15910  Biso   1.000  C
  C117     1.0000 0.84470  0.96980  0.10890  Biso   1.000  C
  C118     1.0000 0.78010  0.94230  0.07580  Biso   1.000  C
  C119     1.0000 0.70410  0.90960  0.09650  Biso   1.000  C
  C120     1.0000 0.69300  0.90310  0.14690  Biso   1.000  C
  C121     1.0000 0.78840  0.95170  0.02190  Biso   1.000  C
  C122     1.0000 0.56350  0.85170  0.32180  Biso   1.000  C
  C123     1.0000 0.51530  0.88560  0.34780  Biso   1.000  C
  C124     1.0000 0.43460  0.84620  0.35750  Biso   1.000  C
  C125     1.0000 0.40090  0.77200  0.34080  Biso   1.000  C
  C126     1.0000 0.44880  0.73500  0.31400  Biso   1.000  C
  C127     1.0000 0.52770  0.77450  0.30440  Biso   1.000  C
  C128     1.0000 0.31540  0.73050  0.34600  Biso   1.000  C
  C129     1.0000 0.83690  0.82290  0.33820  Biso   1.000  C
  C130     1.0000 0.87050  0.77760  0.30940  Biso   1.000  C
  C131     1.0000 0.90670  0.72570  0.33000  Biso   1.000  C
  C132     1.0000 0.91610  0.72210  0.38040  Biso   1.000  C
  C133     1.0000 0.88220  0.76710  0.40970  Biso   1.000  C
  C134     1.0000 0.84310  0.81640  0.38930  Biso   1.000  C
  C135     1.0000 0.95850  0.66800  0.39950  Biso   1.000  C
  C136     1.0000 0.80730  0.09190  0.33550  Biso   1.000  C
  C137     1.0000 0.84220  0.15480  0.30550  Biso   1.000  C
  C138     1.0000 0.88080  0.22780  0.32460  Biso   1.000  C
  C139     1.0000 0.88540  0.23880  0.37630  Biso   1.000  C
  C140     1.0000 0.84620  0.17670  0.40640  Biso   1.000  C
  C141     1.0000 0.80700  0.10460  0.38690  Biso   1.000  C
  C142     1.0000 0.93250  0.31470  0.39450  Biso   1.000  C
  C143     1.0000 0.64390  0.97540  0.77590  Biso   1.000  C
  C144     1.0000 0.68300  0.03300  0.68970  Biso   1.000  C
  C145     1.0000 0.60200  0.09300  0.74800  Biso   1.000  C
  C146     1.0000 0.54480  0.86230  0.95510  Biso   1.000  C
  C147     1.0000 0.45630  0.80280  0.02400  Biso   1.000  C
  C148     1.0000 0.42670  0.75600  0.93760  Biso   1.000  C
  C149     1.0000 0.91460  0.76950  0.72490  Biso   1.000  C
  C150     1.0000 0.89900  0.70000  0.75080  Biso   1.000  C
  C151     1.0000 0.91000  0.63700  0.79000  Biso   1.000  C
  C152     1.0000 0.90700  0.61900  0.83700  Biso   1.000  C
  C153     1.0000 0.94000  0.84300  0.74750  Biso   1.000  C
  C154     1.0000 0.93690  0.91470  0.77320  Biso   1.000  C
  C155     1.0000 0.93600  0.00000  0.69680  Biso   1.000  C
  C156     1.0000 0.93900  0.85700  0.68600  Biso   1.000  C
  C157     1.0000 0.25280  0.57250  0.73600  Biso   1.000  C
  C158     1.0000 0.34110  0.60600  0.75150  Biso   1.000  C
  C159     1.0000 0.34940  0.60880  0.80850  Biso   1.000  C
  C160     1.0000 0.29860  0.65840  0.83070  Biso   1.000  C
  C161     1.0000 0.20910  0.62600  0.81630  Biso   1.000  C
  C162     1.0000 0.17870  0.54160  0.83520  Biso   1.000  C
  C163     1.0000 0.22820  0.49070  0.81440  Biso   1.000  C
  C164     1.0000 0.22130  0.49020  0.75760  Biso   1.000  C
  C165     1.0000 0.31690  0.52590  0.82880  Biso   1.000  C
  C166     1.0000 0.20380  0.62350  0.75890  Biso   1.000  C
  C167     1.0000 0.24280  0.56970  0.67990  Biso   1.000  C
  C168     1.0000 0.16700  0.53710  0.65910  Biso   1.000  C
  C169     1.0000 0.15530  0.53020  0.60890  Biso   1.000  C
  C170     1.0000 0.21990  0.55770  0.57580  Biso   1.000  C
  C171     1.0000 0.29590  0.59040  0.59650  Biso   1.000  C
  C172     1.0000 0.30700  0.59690  0.64690  Biso   1.000  C
  C173     1.0000 0.21160  0.54830  0.52190  Biso   1.000  C
  C174     1.0000 0.43650  0.64830  0.82180  Biso   1.000  C
  C175     1.0000 0.48470  0.61440  0.84780  Biso   1.000  C
  C176     1.0000 0.56540  0.65380  0.85750  Biso   1.000  C
  C177     1.0000 0.59910  0.72800  0.84080  Biso   1.000  C
  C178     1.0000 0.55120  0.76500  0.81400  Biso   1.000  C
  C179     1.0000 0.47230  0.72550  0.80440  Biso   1.000  C
  C180     1.0000 0.68460  0.76950  0.84600  Biso   1.000  C
  C181     1.0000 0.16310  0.67710  0.83820  Biso   1.000  C
  C182     1.0000 0.12950  0.72240  0.80940  Biso   1.000  C
  C183     1.0000 0.09330  0.77430  0.83000  Biso   1.000  C
  C184     1.0000 0.08390  0.77790  0.88040  Biso   1.000  C
  C185     1.0000 0.11780  0.73290  0.90970  Biso   1.000  C
  C186     1.0000 0.15690  0.68360  0.88930  Biso   1.000  C
  C187     1.0000 0.04150  0.83200  0.89950  Biso   1.000  C
  C188     1.0000 0.19270  0.40810  0.83550  Biso   1.000  C
  C189     1.0000 0.15780  0.34520  0.80550  Biso   1.000  C
  C190     1.0000 0.11920  0.27220  0.82460  Biso   1.000  C
  C191     1.0000 0.11460  0.26120  0.87630  Biso   1.000  C
  C192     1.0000 0.15380  0.32330  0.90640  Biso   1.000  C
  C193     1.0000 0.19300  0.39540  0.88690  Biso   1.000  C
  C194     1.0000 0.06750  0.18530  0.89450  Biso   1.000  C
  C195     1.0000 0.35610  0.52460  0.27590  Biso   1.000  C
  C196     1.0000 0.31700  0.46700  0.18970  Biso   1.000  C
  C197     1.0000 0.39800  0.40700  0.24800  Biso   1.000  C
  C198     1.0000 0.45520  0.63770  0.45510  Biso   1.000  C
  C199     1.0000 0.54370  0.69720  0.52400  Biso   1.000  C
  C200     1.0000 0.57330  0.74400  0.43760  Biso   1.000  C
  C201     1.0000 0.08540  0.73050  0.22490  Biso   1.000  C
  C202     1.0000 0.10100  0.80000  0.25080  Biso   1.000  C
  C203     1.0000 0.09000  0.86300  0.29000  Biso   1.000  C
  C204     1.0000 0.09300  0.88100  0.33700  Biso   1.000  C
  C205     1.0000 0.06000  0.65700  0.24750  Biso   1.000  C
  C206     1.0000 0.06310  0.58530  0.27320  Biso   1.000  C
  C207     1.0000 0.06400  0.50000  0.19680  Biso   1.000  C
  C208     1.0000 0.06100  0.64300  0.18600  Biso   1.000  C
  N1       1.0000 0.14370  0.03240  0.00574  Biso   1.000  N
  N2       1.0000 0.16950  0.03260  0.05261  Biso   1.000  N
  N3       1.0000 0.24820  0.04890  0.05300  Biso   1.000  N
  N4       1.0000 0.27650  0.05970  0.00726  Biso   1.000  N
  N5       1.0000 0.71590  0.34500  0.64660  Biso   1.000  N
  N6       1.0000 0.79610  0.35880  0.64690  Biso   1.000  N
  N7       1.0000 0.81140  0.29030  0.65250  Biso   1.000  N
  N8       1.0000 0.74260  0.23560  0.65830  Biso   1.000  N
  N9       1.0000 0.99490  0.36030  0.62930  Biso   1.000  N
  N10      1.0000 0.96740  0.40570  0.59930  Biso   1.000  N
  N11      1.0000 0.99640  0.40480  0.55520  Biso   1.000  N
  N12      1.0000 0.04480  0.35860  0.55350  Biso   1.000  N
  N13      1.0000 0.07020  0.65830  0.55930  Biso   1.000  N
  N14      1.0000 0.01370  0.58880  0.55990  Biso   1.000  N
  N15      1.0000 0.97970  0.57660  0.60420  Biso   1.000  N
  N16      1.0000 0.01200  0.63620  0.63360  Biso   1.000  N
  N17      1.0000 0.36930  0.97870  0.26380  Biso   1.000  N
  N18      1.0000 0.51830  0.19070  0.02800  Biso   1.000  N
  N19      1.0000 0.05240  0.07420  0.27840  Biso   1.000  N
  N20      1.0000 0.85630  0.46760  0.50574  Biso   1.000  N
  N21      1.0000 0.83050  0.46740  0.55261  Biso   1.000  N
  N22      1.0000 0.75180  0.45110  0.55300  Biso   1.000  N
  N23      1.0000 0.72350  0.44030  0.50726  Biso   1.000  N
  N24      1.0000 0.28410  0.15500  0.14660  Biso   1.000  N
  N25      1.0000 0.20390  0.14120  0.14690  Biso   1.000  N
  N26      1.0000 0.18860  0.20970  0.15250  Biso   1.000  N
  N27      1.0000 0.25740  0.26440  0.15830  Biso   1.000  N
  N28      1.0000 0.00510  0.13970  0.12930  Biso   1.000  N
  N29      1.0000 0.03260  0.09430  0.09930  Biso   1.000  N
  N30      1.0000 0.00360  0.09520  0.05520  Biso   1.000  N
  N31      1.0000 0.95520  0.14140  0.05350  Biso   1.000  N
  N32      1.0000 0.92980  0.84170  0.05930  Biso   1.000  N
  N33      1.0000 0.98630  0.91120  0.05990  Biso   1.000  N
  N34      1.0000 0.02030  0.92340  0.10420  Biso   1.000  N
  N35      1.0000 0.98800  0.86380  0.13360  Biso   1.000  N
  N36      1.0000 0.63070  0.52130  0.76380  Biso   1.000  N
  N37      1.0000 0.48170  0.30930  0.52800  Biso   1.000  N
  N38      1.0000 0.94760  0.42580  0.77840  Biso   1.000  N
  N39      1.0000 0.85630  0.96760  0.99426  Biso   1.000  N
  N40      1.0000 0.83050  0.96740  0.94739  Biso   1.000  N
  N41      1.0000 0.75180  0.95110  0.94700  Biso   1.000  N
  N42      1.0000 0.72350  0.94030  0.99274  Biso   1.000  N
  N43      1.0000 0.28410  0.65500  0.35340  Biso   1.000  N
  N44      1.0000 0.20390  0.64120  0.35310  Biso   1.000  N
  N45      1.0000 0.18860  0.70970  0.34750  Biso   1.000  N
  N46      1.0000 0.25740  0.76440  0.34170  Biso   1.000  N
  N47      1.0000 0.00510  0.63970  0.37070  Biso   1.000  N
  N48      1.0000 0.03260  0.59430  0.40070  Biso   1.000  N
  N49      1.0000 0.00360  0.59520  0.44480  Biso   1.000  N
  N50      1.0000 0.95520  0.64140  0.44650  Biso   1.000  N
  N51      1.0000 0.92980  0.34170  0.44070  Biso   1.000  N
  N52      1.0000 0.98630  0.41120  0.44010  Biso   1.000  N
  N53      1.0000 0.02030  0.42340  0.39580  Biso   1.000  N
  N54      1.0000 0.98800  0.36380  0.36640  Biso   1.000  N
  N55      1.0000 0.63070  0.02130  0.73620  Biso   1.000  N
  N56      1.0000 0.48170  0.80930  0.97200  Biso   1.000  N
  N57      1.0000 0.94760  0.92580  0.72160  Biso   1.000  N
  N58      1.0000 0.14370  0.53240  0.49426  Biso   1.000  N
  N59      1.0000 0.16950  0.53260  0.44739  Biso   1.000  N
  N60      1.0000 0.24820  0.54890  0.44700  Biso   1.000  N
  N61      1.0000 0.27650  0.55970  0.49274  Biso   1.000  N
  N62      1.0000 0.71590  0.84500  0.85340  Biso   1.000  N
  N63      1.0000 0.79610  0.85880  0.85310  Biso   1.000  N
  N64      1.0000 0.81140  0.79030  0.84750  Biso   1.000  N
  N65      1.0000 0.74260  0.73560  0.84170  Biso   1.000  N
  N66      1.0000 0.99490  0.86030  0.87070  Biso   1.000  N
  N67      1.0000 0.96740  0.90570  0.90070  Biso   1.000  N
  N68      1.0000 0.99640  0.90480  0.94480  Biso   1.000  N
  N69      1.0000 0.04480  0.85860  0.94650  Biso   1.000  N
  N70      1.0000 0.07020  0.15830  0.94070  Biso   1.000  N
  N71      1.0000 0.01370  0.08880  0.94010  Biso   1.000  N
  N72      1.0000 0.97970  0.07660  0.89580  Biso   1.000  N
  N73      1.0000 0.01200  0.13620  0.86640  Biso   1.000  N
  N74      1.0000 0.36930  0.47870  0.23620  Biso   1.000  N
  N75      1.0000 0.51830  0.69070  0.47200  Biso   1.000  N
  N76      1.0000 0.05240  0.57420  0.22160  Biso   1.000  N
  Cl1      1.0000 0.20506  0.95700  0.15654  Biso   1.000  Cl
  Cl2      1.0000 0.79494  0.54300  0.65654  Biso   1.000  Cl
  Cl3      1.0000 0.79494  0.04300  0.84346  Biso   1.000  Cl
  Cl4      1.0000 0.20506  0.45700  0.34346  Biso   1.000  Cl
  O1       1.0000 0.38380  0.04090  0.19070  Biso   1.000  O
  O2       1.0000 0.43020  0.13120  0.08772  Biso   1.000  O
  O3       1.0000 0.36920  0.95820  0.09040  Biso   1.000  O
  O4       1.0000 0.06660  0.03190  0.20420  Biso   1.000  O
  O5       1.0000 0.61620  0.45910  0.69070  Biso   1.000  O
  O6       1.0000 0.56980  0.36880  0.58772  Biso   1.000  O
  O7       1.0000 0.63080  0.54180  0.59040  Biso   1.000  O
  O8       1.0000 0.93340  0.46810  0.70420  Biso   1.000  O
  O9       1.0000 0.61620  0.95910  0.80930  Biso   1.000  O
  O10      1.0000 0.56980  0.86880  0.91228  Biso   1.000  O
  O11      1.0000 0.63080  0.04180  0.90960  Biso   1.000  O
  O12      1.0000 0.93340  0.96810  0.79580  Biso   1.000  O
  O13      1.0000 0.38380  0.54090  0.30930  Biso   1.000  O
  O14      1.0000 0.43020  0.63120  0.41228  Biso   1.000  O
  O15      1.0000 0.36920  0.45820  0.40960  Biso   1.000  O
  O16      1.0000 0.06660  0.53190  0.29580  Biso   1.000  O
