data_image0
_cell_length_a       11.9242
_cell_length_b       17.587
_cell_length_c       15.436
_cell_angle_alpha    90
_cell_angle_beta     101.754
_cell_angle_gamma    90

_symmetry_space_group_name_H-M    "P 1"
_symmetry_int_tables_number       1

loop_
  _symmetry_equiv_pos_as_xyz
  'x, y, z'

loop_
  _atom_site_label
  _atom_site_occupancy
  _atom_site_fract_x
  _atom_site_fract_y
  _atom_site_fract_z
  _atom_site_thermal_displace_type
  _atom_site_B_iso_or_equiv
  _atom_site_type_symbol
  S1       1.0000 0.05926  0.07970  0.12507  Biso   1.000  S
  S2       1.0000 0.11660  0.12492  0.02167  Biso   1.000  S
  N1       1.0000 0.68040  0.02279  0.03189  Biso   1.000  N
  N2       1.0000 0.03695  0.37919  0.01181  Biso   1.000  N
  C1       1.0000 0.74140  0.00399  0.11185  Biso   1.000  C
  C2       1.0000 0.85540  0.02017  0.13950  Biso   1.000  C
  C3       1.0000 0.91240  0.05920  0.08278  Biso   1.000  C
  C4       1.0000 0.85100  0.07753  0.99930  Biso   1.000  C
  C5       1.0000 0.73720  0.05804  0.97663  Biso   1.000  C
  C6       1.0000 0.07800  0.34272  0.94922  Biso   1.000  C
  C7       1.0000 0.10180  0.26619  0.95190  Biso   1.000  C
  C8       1.0000 0.08270  0.22365  0.02239  Biso   1.000  C
  C9       1.0000 0.03970  0.26017  0.08720  Biso   1.000  C
  C10      1.0000 0.01850  0.33713  0.07990  Biso   1.000  C
  F1       1.0000 0.49350  0.00318  0.13717  Biso   1.000  F
  F2       1.0000 0.39926  0.93604  0.23693  Biso   1.000  F
  F3       1.0000 0.39935  0.07068  0.23767  Biso   1.000  F
  H1       1.0000 0.70200  0.97840  0.14800  Biso   1.000  H
  H2       1.0000 0.89400  0.00590  0.19600  Biso   1.000  H
  H3       1.0000 0.88300  0.10580  0.96200  Biso   1.000  H
  H4       1.0000 0.69800  0.06670  0.92000  Biso   1.000  H
  H5       1.0000 0.09000  0.37100  0.90500  Biso   1.000  H
  H6       1.0000 0.13400  0.24890  0.90900  Biso   1.000  H
  H7       1.0000 0.01900  0.23500  0.13200  Biso   1.000  H
  H8       1.0000 0.99100  0.36220  0.12000  Biso   1.000  H
  S3       1.0000 0.55926  0.57970  0.12507  Biso   1.000  S
  S4       1.0000 0.61660  0.62492  0.02167  Biso   1.000  S
  N3       1.0000 0.18040  0.52279  0.03189  Biso   1.000  N
  N4       1.0000 0.53695  0.87919  0.01181  Biso   1.000  N
  C11      1.0000 0.24140  0.50399  0.11185  Biso   1.000  C
  C12      1.0000 0.35540  0.52017  0.13950  Biso   1.000  C
  C13      1.0000 0.41240  0.55920  0.08278  Biso   1.000  C
  C14      1.0000 0.35100  0.57753  0.99930  Biso   1.000  C
  C15      1.0000 0.23720  0.55804  0.97663  Biso   1.000  C
  C16      1.0000 0.57800  0.84272  0.94922  Biso   1.000  C
  C17      1.0000 0.60180  0.76619  0.95190  Biso   1.000  C
  C18      1.0000 0.58270  0.72365  0.02239  Biso   1.000  C
  C19      1.0000 0.53970  0.76017  0.08720  Biso   1.000  C
  C20      1.0000 0.51850  0.83713  0.07990  Biso   1.000  C
  F4       1.0000 0.99350  0.50318  0.13717  Biso   1.000  F
  F5       1.0000 0.89926  0.43604  0.23693  Biso   1.000  F
  F6       1.0000 0.89935  0.57068  0.23767  Biso   1.000  F
  H9       1.0000 0.20200  0.47840  0.14800  Biso   1.000  H
  H10      1.0000 0.39400  0.50590  0.19600  Biso   1.000  H
  H11      1.0000 0.38300  0.60580  0.96200  Biso   1.000  H
  H12      1.0000 0.19800  0.56670  0.92000  Biso   1.000  H
  H13      1.0000 0.59000  0.87100  0.90500  Biso   1.000  H
  H14      1.0000 0.63400  0.74890  0.90900  Biso   1.000  H
  H15      1.0000 0.51900  0.73500  0.13200  Biso   1.000  H
  H16      1.0000 0.49100  0.86220  0.12000  Biso   1.000  H
  S5       1.0000 0.94074  0.07970  0.37493  Biso   1.000  S
  S6       1.0000 0.88340  0.12492  0.47833  Biso   1.000  S
  N5       1.0000 0.31960  0.02279  0.46811  Biso   1.000  N
  N6       1.0000 0.96305  0.37919  0.48819  Biso   1.000  N
  C21      1.0000 0.25860  0.00399  0.38815  Biso   1.000  C
  C22      1.0000 0.14460  0.02017  0.36050  Biso   1.000  C
  C23      1.0000 0.08760  0.05920  0.41722  Biso   1.000  C
  C24      1.0000 0.14900  0.07753  0.50070  Biso   1.000  C
  C25      1.0000 0.26280  0.05804  0.52337  Biso   1.000  C
  C26      1.0000 0.92200  0.34272  0.55078  Biso   1.000  C
  C27      1.0000 0.89820  0.26619  0.54810  Biso   1.000  C
  C28      1.0000 0.91730  0.22365  0.47761  Biso   1.000  C
  C29      1.0000 0.96030  0.26017  0.41280  Biso   1.000  C
  C30      1.0000 0.98150  0.33713  0.42010  Biso   1.000  C
  F7       1.0000 0.50650  0.00318  0.36283  Biso   1.000  F
  F8       1.0000 0.60074  0.93604  0.26307  Biso   1.000  F
  F9       1.0000 0.60065  0.07068  0.26233  Biso   1.000  F
  H17      1.0000 0.29800  0.97840  0.35200  Biso   1.000  H
  H18      1.0000 0.10600  0.00590  0.30400  Biso   1.000  H
  H19      1.0000 0.11700  0.10580  0.53800  Biso   1.000  H
  H20      1.0000 0.30200  0.06670  0.58000  Biso   1.000  H
  H21      1.0000 0.91000  0.37100  0.59500  Biso   1.000  H
  H22      1.0000 0.86600  0.24890  0.59100  Biso   1.000  H
  H23      1.0000 0.98100  0.23500  0.36800  Biso   1.000  H
  H24      1.0000 0.00900  0.36220  0.38000  Biso   1.000  H
  S7       1.0000 0.44074  0.57970  0.37493  Biso   1.000  S
  S8       1.0000 0.38340  0.62492  0.47833  Biso   1.000  S
  N7       1.0000 0.81960  0.52279  0.46811  Biso   1.000  N
  N8       1.0000 0.46305  0.87919  0.48819  Biso   1.000  N
  C31      1.0000 0.75860  0.50399  0.38815  Biso   1.000  C
  C32      1.0000 0.64460  0.52017  0.36050  Biso   1.000  C
  C33      1.0000 0.58760  0.55920  0.41722  Biso   1.000  C
  C34      1.0000 0.64900  0.57753  0.50070  Biso   1.000  C
  C35      1.0000 0.76280  0.55804  0.52337  Biso   1.000  C
  C36      1.0000 0.42200  0.84272  0.55078  Biso   1.000  C
  C37      1.0000 0.39820  0.76619  0.54810  Biso   1.000  C
  C38      1.0000 0.41730  0.72365  0.47761  Biso   1.000  C
  C39      1.0000 0.46030  0.76017  0.41280  Biso   1.000  C
  C40      1.0000 0.48150  0.83713  0.42010  Biso   1.000  C
  F10      1.0000 0.00650  0.50318  0.36283  Biso   1.000  F
  F11      1.0000 0.10074  0.43604  0.26307  Biso   1.000  F
  F12      1.0000 0.10065  0.57068  0.26233  Biso   1.000  F
  H25      1.0000 0.79800  0.47840  0.35200  Biso   1.000  H
  H26      1.0000 0.60600  0.50590  0.30400  Biso   1.000  H
  H27      1.0000 0.61700  0.60580  0.53800  Biso   1.000  H
  H28      1.0000 0.80200  0.56670  0.58000  Biso   1.000  H
  H29      1.0000 0.41000  0.87100  0.59500  Biso   1.000  H
  H30      1.0000 0.36600  0.74890  0.59100  Biso   1.000  H
  H31      1.0000 0.48100  0.73500  0.36800  Biso   1.000  H
  H32      1.0000 0.50900  0.86220  0.38000  Biso   1.000  H
  S9       1.0000 0.94074  0.92030  0.87493  Biso   1.000  S
  S10      1.0000 0.88340  0.87508  0.97833  Biso   1.000  S
  N9       1.0000 0.31960  0.97721  0.96811  Biso   1.000  N
  N10      1.0000 0.96305  0.62081  0.98819  Biso   1.000  N
  C41      1.0000 0.25860  0.99601  0.88815  Biso   1.000  C
  C42      1.0000 0.14460  0.97983  0.86050  Biso   1.000  C
  C43      1.0000 0.08760  0.94080  0.91722  Biso   1.000  C
  C44      1.0000 0.14900  0.92247  0.00070  Biso   1.000  C
  C45      1.0000 0.26280  0.94196  0.02337  Biso   1.000  C
  C46      1.0000 0.92200  0.65728  0.05078  Biso   1.000  C
  C47      1.0000 0.89820  0.73381  0.04810  Biso   1.000  C
  C48      1.0000 0.91730  0.77635  0.97761  Biso   1.000  C
  C49      1.0000 0.96030  0.73983  0.91280  Biso   1.000  C
  C50      1.0000 0.98150  0.66287  0.92010  Biso   1.000  C
  F13      1.0000 0.50650  0.99682  0.86283  Biso   1.000  F
  F14      1.0000 0.60074  0.06396  0.76307  Biso   1.000  F
  F15      1.0000 0.60065  0.92932  0.76233  Biso   1.000  F
  H33      1.0000 0.29800  0.02160  0.85200  Biso   1.000  H
  H34      1.0000 0.10600  0.99410  0.80400  Biso   1.000  H
  H35      1.0000 0.11700  0.89420  0.03800  Biso   1.000  H
  H36      1.0000 0.30200  0.93330  0.08000  Biso   1.000  H
  H37      1.0000 0.91000  0.62900  0.09500  Biso   1.000  H
  H38      1.0000 0.86600  0.75110  0.09100  Biso   1.000  H
  H39      1.0000 0.98100  0.76500  0.86800  Biso   1.000  H
  H40      1.0000 0.00900  0.63780  0.88000  Biso   1.000  H
  S11      1.0000 0.44074  0.42030  0.87493  Biso   1.000  S
  S12      1.0000 0.38340  0.37508  0.97833  Biso   1.000  S
  N11      1.0000 0.81960  0.47721  0.96811  Biso   1.000  N
  N12      1.0000 0.46305  0.12081  0.98819  Biso   1.000  N
  C51      1.0000 0.75860  0.49601  0.88815  Biso   1.000  C
  C52      1.0000 0.64460  0.47983  0.86050  Biso   1.000  C
  C53      1.0000 0.58760  0.44080  0.91722  Biso   1.000  C
  C54      1.0000 0.64900  0.42247  0.00070  Biso   1.000  C
  C55      1.0000 0.76280  0.44196  0.02337  Biso   1.000  C
  C56      1.0000 0.42200  0.15728  0.05078  Biso   1.000  C
  C57      1.0000 0.39820  0.23381  0.04810  Biso   1.000  C
  C58      1.0000 0.41730  0.27635  0.97761  Biso   1.000  C
  C59      1.0000 0.46030  0.23983  0.91280  Biso   1.000  C
  C60      1.0000 0.48150  0.16287  0.92010  Biso   1.000  C
  F16      1.0000 0.00650  0.49682  0.86283  Biso   1.000  F
  F17      1.0000 0.10074  0.56396  0.76307  Biso   1.000  F
  F18      1.0000 0.10065  0.42932  0.76233  Biso   1.000  F
  H41      1.0000 0.79800  0.52160  0.85200  Biso   1.000  H
  H42      1.0000 0.60600  0.49410  0.80400  Biso   1.000  H
  H43      1.0000 0.61700  0.39420  0.03800  Biso   1.000  H
  H44      1.0000 0.80200  0.43330  0.08000  Biso   1.000  H
  H45      1.0000 0.41000  0.12900  0.09500  Biso   1.000  H
  H46      1.0000 0.36600  0.25110  0.09100  Biso   1.000  H
  H47      1.0000 0.48100  0.26500  0.86800  Biso   1.000  H
  H48      1.0000 0.50900  0.13780  0.88000  Biso   1.000  H
  S13      1.0000 0.05926  0.92030  0.62507  Biso   1.000  S
  S14      1.0000 0.11660  0.87508  0.52167  Biso   1.000  S
  N13      1.0000 0.68040  0.97721  0.53189  Biso   1.000  N
  N14      1.0000 0.03695  0.62081  0.51181  Biso   1.000  N
  C61      1.0000 0.74140  0.99601  0.61185  Biso   1.000  C
  C62      1.0000 0.85540  0.97983  0.63950  Biso   1.000  C
  C63      1.0000 0.91240  0.94080  0.58278  Biso   1.000  C
  C64      1.0000 0.85100  0.92247  0.49930  Biso   1.000  C
  C65      1.0000 0.73720  0.94196  0.47663  Biso   1.000  C
  C66      1.0000 0.07800  0.65728  0.44922  Biso   1.000  C
  C67      1.0000 0.10180  0.73381  0.45190  Biso   1.000  C
  C68      1.0000 0.08270  0.77635  0.52239  Biso   1.000  C
  C69      1.0000 0.03970  0.73983  0.58720  Biso   1.000  C
  C70      1.0000 0.01850  0.66287  0.57990  Biso   1.000  C
  F19      1.0000 0.49350  0.99682  0.63717  Biso   1.000  F
  F20      1.0000 0.39926  0.06396  0.73693  Biso   1.000  F
  F21      1.0000 0.39935  0.92932  0.73767  Biso   1.000  F
  H49      1.0000 0.70200  0.02160  0.64800  Biso   1.000  H
  H50      1.0000 0.89400  0.99410  0.69600  Biso   1.000  H
  H51      1.0000 0.88300  0.89420  0.46200  Biso   1.000  H
  H52      1.0000 0.69800  0.93330  0.42000  Biso   1.000  H
  H53      1.0000 0.09000  0.62900  0.40500  Biso   1.000  H
  H54      1.0000 0.13400  0.75110  0.40900  Biso   1.000  H
  H55      1.0000 0.01900  0.76500  0.63200  Biso   1.000  H
  H56      1.0000 0.99100  0.63780  0.62000  Biso   1.000  H
  S15      1.0000 0.55926  0.42030  0.62507  Biso   1.000  S
  S16      1.0000 0.61660  0.37508  0.52167  Biso   1.000  S
  N15      1.0000 0.18040  0.47721  0.53189  Biso   1.000  N
  N16      1.0000 0.53695  0.12081  0.51181  Biso   1.000  N
  C71      1.0000 0.24140  0.49601  0.61185  Biso   1.000  C
  C72      1.0000 0.35540  0.47983  0.63950  Biso   1.000  C
  C73      1.0000 0.41240  0.44080  0.58278  Biso   1.000  C
  C74      1.0000 0.35100  0.42247  0.49930  Biso   1.000  C
  C75      1.0000 0.23720  0.44196  0.47663  Biso   1.000  C
  C76      1.0000 0.57800  0.15728  0.44922  Biso   1.000  C
  C77      1.0000 0.60180  0.23381  0.45190  Biso   1.000  C
  C78      1.0000 0.58270  0.27635  0.52239  Biso   1.000  C
  C79      1.0000 0.53970  0.23983  0.58720  Biso   1.000  C
  C80      1.0000 0.51850  0.16287  0.57990  Biso   1.000  C
  F22      1.0000 0.99350  0.49682  0.63717  Biso   1.000  F
  F23      1.0000 0.89926  0.56396  0.73693  Biso   1.000  F
  F24      1.0000 0.89935  0.42932  0.73767  Biso   1.000  F
  H57      1.0000 0.20200  0.52160  0.64800  Biso   1.000  H
  H58      1.0000 0.39400  0.49410  0.69600  Biso   1.000  H
  H59      1.0000 0.38300  0.39420  0.46200  Biso   1.000  H
  H60      1.0000 0.19800  0.43330  0.42000  Biso   1.000  H
  H61      1.0000 0.59000  0.12900  0.40500  Biso   1.000  H
  H62      1.0000 0.63400  0.25110  0.40900  Biso   1.000  H
  H63      1.0000 0.51900  0.26500  0.63200  Biso   1.000  H
  H64      1.0000 0.49100  0.13780  0.62000  Biso   1.000  H
  Zn1      1.0000 0.50000  0.00000  0.00000  Biso   1.000  Zn
  Zn2      1.0000 0.00000  0.50000  0.00000  Biso   1.000  Zn
  Zn3      1.0000 0.50000  0.00000  0.50000  Biso   1.000  Zn
  Zn4      1.0000 0.00000  0.50000  0.50000  Biso   1.000  Zn
  Si1      1.0000 0.50000  0.00354  0.25000  Biso   1.000  Si
  Si2      1.0000 0.00000  0.50354  0.25000  Biso   1.000  Si
  Si3      1.0000 0.50000  0.99646  0.75000  Biso   1.000  Si
  Si4      1.0000 0.00000  0.49646  0.75000  Biso   1.000  Si
