data_image0
_cell_length_a       11.14
_cell_length_b       11.497
_cell_length_c       16.854
_cell_angle_alpha    90
_cell_angle_beta     90
_cell_angle_gamma    90

_symmetry_space_group_name_H-M    P 1
_symmetry_int_tables_number       1

loop_
  _symmetry_equiv_pos_as_xyz
  'x, y, z'

loop_
  _atom_site_label
  _atom_site_occupancy
  _atom_site_fract_x
  _atom_site_fract_y
  _atom_site_fract_z
  _atom_site_thermal_displace_type
  _atom_site_B_iso_or_equiv
  _atom_site_type_symbol
  Fe1      1.0000 0.00000  0.00000  0.00000  Biso   1.000  Fe
  Fe2      1.0000 0.50000  0.00000  0.50000  Biso   1.000  Fe
  Fe3      1.0000 0.00000  0.50000  0.50000  Biso   1.000  Fe
  Fe4      1.0000 0.50000  0.50000  0.00000  Biso   1.000  Fe
  C1       1.0000 0.17740  0.06650  0.24720  Biso   1.000  C
  C2       1.0000 0.13020  0.14760  0.29830  Biso   1.000  C
  C3       1.0000 0.16940  0.18120  0.37410  Biso   1.000  C
  C4       1.0000 0.12500  0.04730  0.16990  Biso   1.000  C
  C5       1.0000 0.28160  0.99930  0.26390  Biso   1.000  C
  C6       1.0000 0.01790  0.20210  0.27120  Biso   1.000  C
  C7       1.0000 0.77090  0.13070  0.08760  Biso   1.000  C
  C8       1.0000 0.11200  0.22970  0.91620  Biso   1.000  C
  C9       1.0000 0.32260  0.93350  0.74720  Biso   1.000  C
  C10      1.0000 0.36980  0.85240  0.79830  Biso   1.000  C
  C11      1.0000 0.33060  0.81880  0.87410  Biso   1.000  C
  C12      1.0000 0.37500  0.95270  0.66990  Biso   1.000  C
  C13      1.0000 0.21840  0.00070  0.76390  Biso   1.000  C
  C14      1.0000 0.48210  0.79790  0.77120  Biso   1.000  C
  C15      1.0000 0.72910  0.86930  0.58760  Biso   1.000  C
  C16      1.0000 0.38800  0.77030  0.41620  Biso   1.000  C
  C17      1.0000 0.82260  0.56650  0.25280  Biso   1.000  C
  C18      1.0000 0.86980  0.64760  0.20170  Biso   1.000  C
  C19      1.0000 0.83060  0.68120  0.12590  Biso   1.000  C
  C20      1.0000 0.87500  0.54730  0.33010  Biso   1.000  C
  C21      1.0000 0.71840  0.49930  0.23610  Biso   1.000  C
  C22      1.0000 0.98210  0.70210  0.22880  Biso   1.000  C
  C23      1.0000 0.22910  0.63070  0.41240  Biso   1.000  C
  C24      1.0000 0.88800  0.72970  0.58380  Biso   1.000  C
  C25      1.0000 0.67740  0.43350  0.75280  Biso   1.000  C
  C26      1.0000 0.63020  0.35240  0.70170  Biso   1.000  C
  C27      1.0000 0.66940  0.31880  0.62590  Biso   1.000  C
  C28      1.0000 0.62500  0.45270  0.83010  Biso   1.000  C
  C29      1.0000 0.78160  0.50070  0.73610  Biso   1.000  C
  C30      1.0000 0.51790  0.29790  0.72880  Biso   1.000  C
  C31      1.0000 0.27090  0.36930  0.91240  Biso   1.000  C
  C32      1.0000 0.61200  0.27030  0.08380  Biso   1.000  C
  C33      1.0000 0.82260  0.93350  0.75280  Biso   1.000  C
  C34      1.0000 0.86980  0.85240  0.70170  Biso   1.000  C
  C35      1.0000 0.83060  0.81880  0.62590  Biso   1.000  C
  C36      1.0000 0.87500  0.95270  0.83010  Biso   1.000  C
  C37      1.0000 0.71840  0.00070  0.73610  Biso   1.000  C
  C38      1.0000 0.98210  0.79790  0.72880  Biso   1.000  C
  C39      1.0000 0.22910  0.86930  0.91240  Biso   1.000  C
  C40      1.0000 0.88800  0.77030  0.08380  Biso   1.000  C
  C41      1.0000 0.67740  0.06650  0.25280  Biso   1.000  C
  C42      1.0000 0.63020  0.14760  0.20170  Biso   1.000  C
  C43      1.0000 0.66940  0.18120  0.12590  Biso   1.000  C
  C44      1.0000 0.62500  0.04730  0.33010  Biso   1.000  C
  C45      1.0000 0.78160  0.99930  0.23610  Biso   1.000  C
  C46      1.0000 0.51790  0.20210  0.22880  Biso   1.000  C
  C47      1.0000 0.27090  0.13070  0.41240  Biso   1.000  C
  C48      1.0000 0.61200  0.22970  0.58380  Biso   1.000  C
  C49      1.0000 0.17740  0.43350  0.74720  Biso   1.000  C
  C50      1.0000 0.13020  0.35240  0.79830  Biso   1.000  C
  C51      1.0000 0.16940  0.31880  0.87410  Biso   1.000  C
  C52      1.0000 0.12500  0.45270  0.66990  Biso   1.000  C
  C53      1.0000 0.28160  0.50070  0.76390  Biso   1.000  C
  C54      1.0000 0.01790  0.29790  0.77120  Biso   1.000  C
  C55      1.0000 0.77090  0.36930  0.58760  Biso   1.000  C
  C56      1.0000 0.11200  0.27030  0.41620  Biso   1.000  C
  C57      1.0000 0.32260  0.56650  0.24720  Biso   1.000  C
  C58      1.0000 0.36980  0.64760  0.29830  Biso   1.000  C
  C59      1.0000 0.33060  0.68120  0.37410  Biso   1.000  C
  C60      1.0000 0.37500  0.54730  0.16990  Biso   1.000  C
  C61      1.0000 0.21840  0.49930  0.26390  Biso   1.000  C
  C62      1.0000 0.48210  0.70210  0.27120  Biso   1.000  C
  C63      1.0000 0.72910  0.63070  0.08760  Biso   1.000  C
  C64      1.0000 0.38800  0.72970  0.91620  Biso   1.000  C
  N1       1.0000 0.09020  0.03250  0.10770  Biso   1.000  N
  N2       1.0000 0.36210  0.94260  0.27440  Biso   1.000  N
  N3       1.0000 0.93050  0.24270  0.25270  Biso   1.000  N
  N4       1.0000 0.84860  0.08960  0.05170  Biso   1.000  N
  N5       1.0000 0.06680  0.15800  0.95180  Biso   1.000  N
  N6       1.0000 0.40980  0.96750  0.60770  Biso   1.000  N
  N7       1.0000 0.13790  0.05740  0.77440  Biso   1.000  N
  N8       1.0000 0.56950  0.75730  0.75270  Biso   1.000  N
  N9       1.0000 0.65140  0.91040  0.55170  Biso   1.000  N
  N10      1.0000 0.43320  0.84200  0.45180  Biso   1.000  N
  N11      1.0000 0.90980  0.53250  0.39230  Biso   1.000  N
  N12      1.0000 0.63790  0.44260  0.22560  Biso   1.000  N
  N13      1.0000 0.06950  0.74270  0.24730  Biso   1.000  N
  N14      1.0000 0.15140  0.58960  0.44830  Biso   1.000  N
  N15      1.0000 0.93320  0.65800  0.54820  Biso   1.000  N
  N16      1.0000 0.59020  0.46750  0.89230  Biso   1.000  N
  N17      1.0000 0.86210  0.55740  0.72560  Biso   1.000  N
  N18      1.0000 0.43050  0.25730  0.74730  Biso   1.000  N
  N19      1.0000 0.34860  0.41040  0.94830  Biso   1.000  N
  N20      1.0000 0.56680  0.34200  0.04820  Biso   1.000  N
  N21      1.0000 0.90980  0.96750  0.89230  Biso   1.000  N
  N22      1.0000 0.63790  0.05740  0.72560  Biso   1.000  N
  N23      1.0000 0.06950  0.75730  0.74730  Biso   1.000  N
  N24      1.0000 0.15140  0.91040  0.94830  Biso   1.000  N
  N25      1.0000 0.93320  0.84200  0.04820  Biso   1.000  N
  N26      1.0000 0.59020  0.03250  0.39230  Biso   1.000  N
  N27      1.0000 0.86210  0.94260  0.22560  Biso   1.000  N
  N28      1.0000 0.43050  0.24270  0.24730  Biso   1.000  N
  N29      1.0000 0.34860  0.08960  0.44830  Biso   1.000  N
  N30      1.0000 0.56680  0.15800  0.54820  Biso   1.000  N
  N31      1.0000 0.09020  0.46750  0.60770  Biso   1.000  N
  N32      1.0000 0.36210  0.55740  0.77440  Biso   1.000  N
  N33      1.0000 0.93050  0.25730  0.75270  Biso   1.000  N
  N34      1.0000 0.84860  0.41040  0.55170  Biso   1.000  N
  N35      1.0000 0.06680  0.34200  0.45180  Biso   1.000  N
  N36      1.0000 0.40980  0.53250  0.10770  Biso   1.000  N
  N37      1.0000 0.13790  0.44260  0.27440  Biso   1.000  N
  N38      1.0000 0.56950  0.74270  0.25270  Biso   1.000  N
  N39      1.0000 0.65140  0.58960  0.05170  Biso   1.000  N
  N40      1.0000 0.43320  0.65800  0.95180  Biso   1.000  N
