data_image0
_cell_length_a       14.004
_cell_length_b       23.292
_cell_length_c       23.479
_cell_angle_alpha    107.51
_cell_angle_beta     90
_cell_angle_gamma    90

_symmetry_space_group_name_H-M    P 1
_symmetry_int_tables_number       1

loop_
  _symmetry_equiv_pos_as_xyz
  'x, y, z'

loop_
  _atom_site_label
  _atom_site_occupancy
  _atom_site_fract_x
  _atom_site_fract_y
  _atom_site_fract_z
  _atom_site_thermal_displace_type
  _atom_site_B_iso_or_equiv
  _atom_site_type_symbol
  Pr1      1.0000 0.20346  0.51100  0.77365  Biso   1.000  Pr
  Pr2      1.0000 0.85846  0.74263  0.79005  Biso   1.000  Pr
  Pr3      1.0000 0.94211  0.25249  0.70812  Biso   1.000  Pr
  Pr4      1.0000 0.29937  0.27652  0.50359  Biso   1.000  Pr
  Pr5      1.0000 0.70346  0.98900  0.72635  Biso   1.000  Pr
  Pr6      1.0000 0.35846  0.75737  0.70995  Biso   1.000  Pr
  Pr7      1.0000 0.44211  0.24751  0.79188  Biso   1.000  Pr
  Pr8      1.0000 0.79937  0.22348  0.99641  Biso   1.000  Pr
  Pr9      1.0000 0.79654  0.48900  0.22635  Biso   1.000  Pr
  Pr10     1.0000 0.14154  0.25737  0.20995  Biso   1.000  Pr
  Pr11     1.0000 0.05789  0.74751  0.29188  Biso   1.000  Pr
  Pr12     1.0000 0.70063  0.72348  0.49641  Biso   1.000  Pr
  Pr13     1.0000 0.29654  0.01100  0.27365  Biso   1.000  Pr
  Pr14     1.0000 0.64154  0.24263  0.29005  Biso   1.000  Pr
  Pr15     1.0000 0.55789  0.75249  0.20812  Biso   1.000  Pr
  Pr16     1.0000 0.20063  0.77652  0.00359  Biso   1.000  Pr
  H1       1.0000 0.03100  0.64020  0.83280  Biso   1.000  H
  H2       1.0000 0.05530  0.54450  0.66360  Biso   1.000  H
  H3       1.0000 0.91300  0.60890  0.67370  Biso   1.000  H
  H4       1.0000 0.23200  0.64500  0.74730  Biso   1.000  H
  H5       1.0000 0.34280  0.50630  0.62810  Biso   1.000  H
  H6       1.0000 0.40180  0.59650  0.60590  Biso   1.000  H
  H7       1.0000 0.10870  0.37100  0.77170  Biso   1.000  H
  H8       1.0000 0.93500  0.50430  0.77360  Biso   1.000  H
  H9       1.0000 0.84570  0.40850  0.73470  Biso   1.000  H
  H10      1.0000 0.36680  0.37670  0.74480  Biso   1.000  H
  H11      1.0000 0.22240  0.44510  0.89400  Biso   1.000  H
  H12      1.0000 0.33100  0.36780  0.90860  Biso   1.000  H
  H13      1.0000 0.31910  0.39490  0.65180  Biso   1.000  H
  H14      1.0000 0.55760  0.62630  0.82370  Biso   1.000  H
  H15      1.0000 0.04800  0.43710  0.64850  Biso   1.000  H
  H16      1.0000 0.09190  0.36700  0.54960  Biso   1.000  H
  H17      1.0000 0.26930  0.63820  0.88940  Biso   1.000  H
  H18      1.0000 0.04310  0.54740  0.90840  Biso   1.000  H
  H19      1.0000 0.03740  0.64770  0.98470  Biso   1.000  H
  H20      1.0000 0.41460  0.60190  0.76220  Biso   1.000  H
  H21      1.0000 0.40190  0.51330  0.88090  Biso   1.000  H
  H22      1.0000 0.55450  0.57200  0.89910  Biso   1.000  H
  H23      1.0000 0.63150  0.69060  0.96170  Biso   1.000  H
  H24      1.0000 0.59560  0.80490  0.76970  Biso   1.000  H
  H25      1.0000 0.70040  0.63880  0.72840  Biso   1.000  H
  H26      1.0000 0.53280  0.63250  0.69540  Biso   1.000  H
  H27      1.0000 0.72890  0.76450  0.66100  Biso   1.000  H
  H28      1.0000 0.99570  0.70730  0.64520  Biso   1.000  H
  H29      1.0000 0.94510  0.71300  0.54680  Biso   1.000  H
  H30      1.0000 0.07180  0.76660  0.88400  Biso   1.000  H
  H31      1.0000 0.81090  0.79710  0.94980  Biso   1.000  H
  H32      1.0000 0.84850  0.36410  0.54150  Biso   1.000  H
  H33      1.0000 0.92220  0.79740  0.03140  Biso   1.000  H
  H34      1.0000 0.63570  0.72700  0.87440  Biso   1.000  H
  H35      1.0000 0.32300  0.45600  0.39150  Biso   1.000  H
  H36      1.0000 0.87120  0.63100  0.87120  Biso   1.000  H
  H37      1.0000 0.77410  0.63060  0.95780  Biso   1.000  H
  H38      1.0000 0.70330  0.19590  0.71420  Biso   1.000  H
  H39      1.0000 0.76810  0.36390  0.80010  Biso   1.000  H
  H40      1.0000 0.59830  0.35060  0.81670  Biso   1.000  H
  H41      1.0000 0.82940  0.28370  0.86250  Biso   1.000  H
  H42      1.0000 0.04520  0.17160  0.80300  Biso   1.000  H
  H43      1.0000 0.98600  0.15640  0.89670  Biso   1.000  H
  H44      1.0000 0.15120  0.27400  0.63300  Biso   1.000  H
  H45      1.0000 0.96590  0.15540  0.54150  Biso   1.000  H
  H46      1.0000 0.09150  0.16630  0.47060  Biso   1.000  H
  H47      1.0000 0.95490  0.30430  0.57770  Biso   1.000  H
  H48      1.0000 0.70740  0.30700  0.65760  Biso   1.000  H
  H49      1.0000 0.69480  0.37230  0.59320  Biso   1.000  H
  H50      1.0000 0.25010  0.36180  0.39140  Biso   1.000  H
  H51      1.0000 0.41420  0.42570  0.53740  Biso   1.000  H
  H52      1.0000 0.41270  0.49920  0.47990  Biso   1.000  H
  H53      1.0000 0.53100  0.85980  0.66720  Biso   1.000  H
  H54      1.0000 0.55530  0.95550  0.83640  Biso   1.000  H
  H55      1.0000 0.41300  0.89110  0.82630  Biso   1.000  H
  H56      1.0000 0.73200  0.85500  0.75270  Biso   1.000  H
  H57      1.0000 0.84280  0.99370  0.87190  Biso   1.000  H
  H58      1.0000 0.90180  0.90350  0.89410  Biso   1.000  H
  H59      1.0000 0.60870  0.12900  0.72830  Biso   1.000  H
  H60      1.0000 0.43500  0.99570  0.72640  Biso   1.000  H
  H61      1.0000 0.34570  0.09150  0.76530  Biso   1.000  H
  H62      1.0000 0.86680  0.12330  0.75520  Biso   1.000  H
  H63      1.0000 0.72240  0.05490  0.60600  Biso   1.000  H
  H64      1.0000 0.83100  0.13220  0.59140  Biso   1.000  H
  H65      1.0000 0.81910  0.10510  0.84820  Biso   1.000  H
  H66      1.0000 0.05760  0.87370  0.67630  Biso   1.000  H
  H67      1.0000 0.54800  0.06290  0.85150  Biso   1.000  H
  H68      1.0000 0.59190  0.13300  0.95040  Biso   1.000  H
  H69      1.0000 0.76930  0.86180  0.61060  Biso   1.000  H
  H70      1.0000 0.54310  0.95260  0.59160  Biso   1.000  H
  H71      1.0000 0.53740  0.85230  0.51530  Biso   1.000  H
  H72      1.0000 0.91460  0.89810  0.73780  Biso   1.000  H
  H73      1.0000 0.90190  0.98670  0.61910  Biso   1.000  H
  H74      1.0000 0.05450  0.92800  0.60090  Biso   1.000  H
  H75      1.0000 0.13150  0.80940  0.53830  Biso   1.000  H
  H76      1.0000 0.09560  0.69510  0.73030  Biso   1.000  H
  H77      1.0000 0.20040  0.86120  0.77160  Biso   1.000  H
  H78      1.0000 0.03280  0.86750  0.80460  Biso   1.000  H
  H79      1.0000 0.22890  0.73550  0.83900  Biso   1.000  H
  H80      1.0000 0.49570  0.79270  0.85480  Biso   1.000  H
  H81      1.0000 0.44510  0.78700  0.95320  Biso   1.000  H
  H82      1.0000 0.57180  0.73340  0.61600  Biso   1.000  H
  H83      1.0000 0.31090  0.70290  0.55020  Biso   1.000  H
  H84      1.0000 0.34850  0.13590  0.95850  Biso   1.000  H
  H85      1.0000 0.42220  0.70260  0.46860  Biso   1.000  H
  H86      1.0000 0.13570  0.77300  0.62560  Biso   1.000  H
  H87      1.0000 0.82300  0.04400  0.10850  Biso   1.000  H
  H88      1.0000 0.37120  0.86900  0.62880  Biso   1.000  H
  H89      1.0000 0.27410  0.86940  0.54220  Biso   1.000  H
  H90      1.0000 0.20330  0.30410  0.78580  Biso   1.000  H
  H91      1.0000 0.26810  0.13610  0.69990  Biso   1.000  H
  H92      1.0000 0.09830  0.14940  0.68330  Biso   1.000  H
  H93      1.0000 0.32940  0.21630  0.63750  Biso   1.000  H
  H94      1.0000 0.54520  0.32840  0.69700  Biso   1.000  H
  H95      1.0000 0.48600  0.34360  0.60330  Biso   1.000  H
  H96      1.0000 0.65120  0.22600  0.86700  Biso   1.000  H
  H97      1.0000 0.46590  0.34460  0.95850  Biso   1.000  H
  H98      1.0000 0.59150  0.33370  0.02940  Biso   1.000  H
  H99      1.0000 0.45490  0.19570  0.92230  Biso   1.000  H
  H100     1.0000 0.20740  0.19300  0.84240  Biso   1.000  H
  H101     1.0000 0.19480  0.12770  0.90680  Biso   1.000  H
  H102     1.0000 0.75010  0.13820  0.10860  Biso   1.000  H
  H103     1.0000 0.91420  0.07430  0.96260  Biso   1.000  H
  H104     1.0000 0.91270  0.00080  0.02010  Biso   1.000  H
  H105     1.0000 0.96900  0.35980  0.16720  Biso   1.000  H
  H106     1.0000 0.94470  0.45550  0.33640  Biso   1.000  H
  H107     1.0000 0.08700  0.39110  0.32630  Biso   1.000  H
  H108     1.0000 0.76800  0.35500  0.25270  Biso   1.000  H
  H109     1.0000 0.65720  0.49370  0.37190  Biso   1.000  H
  H110     1.0000 0.59820  0.40350  0.39410  Biso   1.000  H
  H111     1.0000 0.89130  0.62900  0.22830  Biso   1.000  H
  H112     1.0000 0.06500  0.49570  0.22640  Biso   1.000  H
  H113     1.0000 0.15430  0.59150  0.26530  Biso   1.000  H
  H114     1.0000 0.63320  0.62330  0.25520  Biso   1.000  H
  H115     1.0000 0.77760  0.55490  0.10600  Biso   1.000  H
  H116     1.0000 0.66900  0.63220  0.09140  Biso   1.000  H
  H117     1.0000 0.68090  0.60510  0.34820  Biso   1.000  H
  H118     1.0000 0.44240  0.37370  0.17630  Biso   1.000  H
  H119     1.0000 0.95200  0.56290  0.35150  Biso   1.000  H
  H120     1.0000 0.90810  0.63300  0.45040  Biso   1.000  H
  H121     1.0000 0.73070  0.36180  0.11060  Biso   1.000  H
  H122     1.0000 0.95690  0.45260  0.09160  Biso   1.000  H
  H123     1.0000 0.96260  0.35230  0.01530  Biso   1.000  H
  H124     1.0000 0.58540  0.39810  0.23780  Biso   1.000  H
  H125     1.0000 0.59810  0.48670  0.11910  Biso   1.000  H
  H126     1.0000 0.44550  0.42800  0.10090  Biso   1.000  H
  H127     1.0000 0.36850  0.30940  0.03830  Biso   1.000  H
  H128     1.0000 0.40440  0.19510  0.23030  Biso   1.000  H
  H129     1.0000 0.29960  0.36120  0.27160  Biso   1.000  H
  H130     1.0000 0.46720  0.36750  0.30460  Biso   1.000  H
  H131     1.0000 0.27110  0.23550  0.33900  Biso   1.000  H
  H132     1.0000 0.00430  0.29270  0.35480  Biso   1.000  H
  H133     1.0000 0.05490  0.28700  0.45320  Biso   1.000  H
  H134     1.0000 0.92820  0.23340  0.11600  Biso   1.000  H
  H135     1.0000 0.18910  0.20290  0.05020  Biso   1.000  H
  H136     1.0000 0.15150  0.63590  0.45850  Biso   1.000  H
  H137     1.0000 0.07780  0.20260  0.96860  Biso   1.000  H
  H138     1.0000 0.36430  0.27300  0.12560  Biso   1.000  H
  H139     1.0000 0.67700  0.54400  0.60850  Biso   1.000  H
  H140     1.0000 0.12880  0.36900  0.12880  Biso   1.000  H
  H141     1.0000 0.22590  0.36940  0.04220  Biso   1.000  H
  H142     1.0000 0.29670  0.80410  0.28580  Biso   1.000  H
  H143     1.0000 0.23190  0.63610  0.19990  Biso   1.000  H
  H144     1.0000 0.40170  0.64940  0.18330  Biso   1.000  H
  H145     1.0000 0.17060  0.71630  0.13750  Biso   1.000  H
  H146     1.0000 0.95480  0.82840  0.19700  Biso   1.000  H
  H147     1.0000 0.01400  0.84360  0.10330  Biso   1.000  H
  H148     1.0000 0.84880  0.72600  0.36700  Biso   1.000  H
  H149     1.0000 0.03410  0.84460  0.45850  Biso   1.000  H
  H150     1.0000 0.90850  0.83370  0.52940  Biso   1.000  H
  H151     1.0000 0.04510  0.69570  0.42230  Biso   1.000  H
  H152     1.0000 0.29260  0.69300  0.34240  Biso   1.000  H
  H153     1.0000 0.30520  0.62770  0.40680  Biso   1.000  H
  H154     1.0000 0.74990  0.63820  0.60860  Biso   1.000  H
  H155     1.0000 0.58580  0.57430  0.46260  Biso   1.000  H
  H156     1.0000 0.58730  0.50080  0.52010  Biso   1.000  H
  H157     1.0000 0.46900  0.14020  0.33280  Biso   1.000  H
  H158     1.0000 0.44470  0.04450  0.16360  Biso   1.000  H
  H159     1.0000 0.58700  0.10890  0.17370  Biso   1.000  H
  H160     1.0000 0.26800  0.14500  0.24730  Biso   1.000  H
  H161     1.0000 0.15720  0.00630  0.12810  Biso   1.000  H
  H162     1.0000 0.09820  0.09650  0.10590  Biso   1.000  H
  H163     1.0000 0.39130  0.87100  0.27170  Biso   1.000  H
  H164     1.0000 0.56500  0.00430  0.27360  Biso   1.000  H
  H165     1.0000 0.65430  0.90850  0.23470  Biso   1.000  H
  H166     1.0000 0.13320  0.87670  0.24480  Biso   1.000  H
  H167     1.0000 0.27760  0.94510  0.39400  Biso   1.000  H
  H168     1.0000 0.16900  0.86780  0.40860  Biso   1.000  H
  H169     1.0000 0.18090  0.89490  0.15180  Biso   1.000  H
  H170     1.0000 0.94240  0.12630  0.32370  Biso   1.000  H
  H171     1.0000 0.45200  0.93710  0.14850  Biso   1.000  H
  H172     1.0000 0.40810  0.86700  0.04960  Biso   1.000  H
  H173     1.0000 0.23070  0.13820  0.38940  Biso   1.000  H
  H174     1.0000 0.45690  0.04740  0.40840  Biso   1.000  H
  H175     1.0000 0.46260  0.14770  0.48470  Biso   1.000  H
  H176     1.0000 0.08540  0.10190  0.26220  Biso   1.000  H
  H177     1.0000 0.09810  0.01330  0.38090  Biso   1.000  H
  H178     1.0000 0.94550  0.07200  0.39910  Biso   1.000  H
  H179     1.0000 0.86850  0.19060  0.46170  Biso   1.000  H
  H180     1.0000 0.90440  0.30490  0.26970  Biso   1.000  H
  H181     1.0000 0.79960  0.13880  0.22840  Biso   1.000  H
  H182     1.0000 0.96720  0.13250  0.19540  Biso   1.000  H
  H183     1.0000 0.77110  0.26450  0.16100  Biso   1.000  H
  H184     1.0000 0.50430  0.20730  0.14520  Biso   1.000  H
  H185     1.0000 0.55490  0.21300  0.04680  Biso   1.000  H
  H186     1.0000 0.42820  0.26660  0.38400  Biso   1.000  H
  H187     1.0000 0.68910  0.29710  0.44980  Biso   1.000  H
  H188     1.0000 0.65150  0.86410  0.04150  Biso   1.000  H
  H189     1.0000 0.57780  0.29740  0.53140  Biso   1.000  H
  H190     1.0000 0.86430  0.22700  0.37440  Biso   1.000  H
  H191     1.0000 0.17700  0.95600  0.89150  Biso   1.000  H
  H192     1.0000 0.62880  0.13100  0.37120  Biso   1.000  H
  H193     1.0000 0.72590  0.13060  0.45780  Biso   1.000  H
  H194     1.0000 0.79670  0.69590  0.21420  Biso   1.000  H
  H195     1.0000 0.73190  0.86390  0.30010  Biso   1.000  H
  H196     1.0000 0.90170  0.85060  0.31670  Biso   1.000  H
  H197     1.0000 0.67060  0.78370  0.36250  Biso   1.000  H
  H198     1.0000 0.45480  0.67160  0.30300  Biso   1.000  H
  H199     1.0000 0.51400  0.65640  0.39670  Biso   1.000  H
  H200     1.0000 0.34880  0.77400  0.13300  Biso   1.000  H
  H201     1.0000 0.53410  0.65540  0.04150  Biso   1.000  H
  H202     1.0000 0.40850  0.66630  0.97060  Biso   1.000  H
  H203     1.0000 0.54510  0.80430  0.07770  Biso   1.000  H
  H204     1.0000 0.79260  0.80700  0.15760  Biso   1.000  H
  H205     1.0000 0.80520  0.87230  0.09320  Biso   1.000  H
  H206     1.0000 0.24990  0.86180  0.89140  Biso   1.000  H
  H207     1.0000 0.08580  0.92570  0.03740  Biso   1.000  H
  H208     1.0000 0.08730  0.99920  0.97990  Biso   1.000  H
  C1       1.0000 0.01860  0.62360  0.79130  Biso   1.000  C
  C2       1.0000 0.03200  0.57140  0.69980  Biso   1.000  C
  C3       1.0000 0.95440  0.60790  0.70550  Biso   1.000  C
  C4       1.0000 0.26770  0.62120  0.71420  Biso   1.000  C
  C5       1.0000 0.32710  0.54640  0.65040  Biso   1.000  C
  C6       1.0000 0.35990  0.59580  0.63750  Biso   1.000  C
  C7       1.0000 0.05290  0.39280  0.76800  Biso   1.000  C
  C8       1.0000 0.96010  0.46530  0.76890  Biso   1.000  C
  C9       1.0000 0.91040  0.41240  0.74760  Biso   1.000  C
  C10      1.0000 0.34530  0.38520  0.78480  Biso   1.000  C
  C11      1.0000 0.26660  0.42250  0.86520  Biso   1.000  C
  C12      1.0000 0.32600  0.37920  0.87310  Biso   1.000  C
  C13      1.0000 0.25490  0.39620  0.63910  Biso   1.000  C
  C14      1.0000 0.10940  0.41980  0.63790  Biso   1.000  C
  C15      1.0000 0.13370  0.38020  0.58290  Biso   1.000  C
  C16      1.0000 0.21050  0.62790  0.90410  Biso   1.000  C
  C17      1.0000 0.08950  0.57830  0.91320  Biso   1.000  C
  C18      1.0000 0.08660  0.63390  0.95590  Biso   1.000  C
  C19      1.0000 0.43020  0.58710  0.79460  Biso   1.000  C
  C20      1.0000 0.42370  0.53910  0.85900  Biso   1.000  C
  C21      1.0000 0.50820  0.57130  0.86930  Biso   1.000  C
  C22      1.0000 0.68080  0.68300  0.93260  Biso   1.000  C
  C23      1.0000 0.60070  0.76240  0.75490  Biso   1.000  C
  C24      1.0000 0.65910  0.67230  0.73290  Biso   1.000  C
  C25      1.0000 0.56670  0.66850  0.71450  Biso   1.000  C
  C26      1.0000 0.78950  0.75030  0.64470  Biso   1.000  C
  C27      1.0000 0.93410  0.71950  0.63640  Biso   1.000  C
  C28      1.0000 0.90640  0.72250  0.58160  Biso   1.000  C
  C29      1.0000 0.01950  0.77350  0.91100  Biso   1.000  C
  C30      1.0000 0.87780  0.79050  0.94560  Biso   1.000  C
  C31      1.0000 0.93930  0.79020  0.99070  Biso   1.000  C
  C32      1.0000 0.68390  0.70350  0.88520  Biso   1.000  C
  C33      1.0000 0.81220  0.65120  0.88290  Biso   1.000  C
  C34      1.0000 0.69890  0.23680  0.73800  Biso   1.000  C
  C35      1.0000 0.73380  0.32740  0.78400  Biso   1.000  C
  C36      1.0000 0.64020  0.32020  0.79390  Biso   1.000  C
  C37      1.0000 0.87720  0.25400  0.85990  Biso   1.000  C
  C38      1.0000 0.99410  0.19290  0.82680  Biso   1.000  C
  C39      1.0000 0.96170  0.18490  0.87880  Biso   1.000  C
  C40      1.0000 0.12030  0.24550  0.60060  Biso   1.000  C
  C41      1.0000 0.01990  0.18120  0.55140  Biso   1.000  C
  C42      1.0000 0.08900  0.18730  0.51200  Biso   1.000  C
  C43      1.0000 0.89010  0.31200  0.58950  Biso   1.000  C
  C44      1.0000 0.75690  0.31410  0.63290  Biso   1.000  C
  C45      1.0000 0.74920  0.34950  0.59740  Biso   1.000  C
  C46      1.0000 0.29130  0.38600  0.42120  Biso   1.000  C
  C47      1.0000 0.38070  0.42190  0.50120  Biso   1.000  C
  C48      1.0000 0.38100  0.46140  0.46890  Biso   1.000  C
  C49      1.0000 0.51860  0.87640  0.70870  Biso   1.000  C
  C50      1.0000 0.53200  0.92860  0.80020  Biso   1.000  C
  C51      1.0000 0.45440  0.89210  0.79450  Biso   1.000  C
  C52      1.0000 0.76770  0.87880  0.78580  Biso   1.000  C
  C53      1.0000 0.82710  0.95360  0.84960  Biso   1.000  C
  C54      1.0000 0.85990  0.90420  0.86250  Biso   1.000  C
  C55      1.0000 0.55290  0.10720  0.73200  Biso   1.000  C
  C56      1.0000 0.46010  0.03470  0.73110  Biso   1.000  C
  C57      1.0000 0.41040  0.08760  0.75240  Biso   1.000  C
  C58      1.0000 0.84530  0.11480  0.71520  Biso   1.000  C
  C59      1.0000 0.76660  0.07750  0.63480  Biso   1.000  C
  C60      1.0000 0.82600  0.12080  0.62690  Biso   1.000  C
  C61      1.0000 0.75490  0.10380  0.86090  Biso   1.000  C
  C62      1.0000 0.60940  0.08020  0.86210  Biso   1.000  C
  C63      1.0000 0.63370  0.11980  0.91710  Biso   1.000  C
  C64      1.0000 0.71050  0.87210  0.59590  Biso   1.000  C
  C65      1.0000 0.58950  0.92170  0.58680  Biso   1.000  C
  C66      1.0000 0.58660  0.86610  0.54410  Biso   1.000  C
  C67      1.0000 0.93020  0.91290  0.70540  Biso   1.000  C
  C68      1.0000 0.92370  0.96090  0.64100  Biso   1.000  C
  C69      1.0000 0.00820  0.92870  0.63070  Biso   1.000  C
  C70      1.0000 0.18080  0.81700  0.56740  Biso   1.000  C
  C71      1.0000 0.10070  0.73760  0.74510  Biso   1.000  C
  C72      1.0000 0.15910  0.82770  0.76710  Biso   1.000  C
  C73      1.0000 0.06670  0.83150  0.78550  Biso   1.000  C
  C74      1.0000 0.28950  0.74970  0.85530  Biso   1.000  C
  C75      1.0000 0.43410  0.78050  0.86360  Biso   1.000  C
  C76      1.0000 0.40640  0.77750  0.91840  Biso   1.000  C
  C77      1.0000 0.51950  0.72650  0.58900  Biso   1.000  C
  C78      1.0000 0.37780  0.70950  0.55440  Biso   1.000  C
  C79      1.0000 0.43930  0.70980  0.50930  Biso   1.000  C
  C80      1.0000 0.18390  0.79650  0.61480  Biso   1.000  C
  C81      1.0000 0.31220  0.84880  0.61710  Biso   1.000  C
  C82      1.0000 0.19890  0.26320  0.76200  Biso   1.000  C
  C83      1.0000 0.23380  0.17260  0.71600  Biso   1.000  C
  C84      1.0000 0.14020  0.17980  0.70610  Biso   1.000  C
  C85      1.0000 0.37720  0.24600  0.64010  Biso   1.000  C
  C86      1.0000 0.49410  0.30710  0.67320  Biso   1.000  C
  C87      1.0000 0.46170  0.31510  0.62120  Biso   1.000  C
  C88      1.0000 0.62030  0.25450  0.89940  Biso   1.000  C
  C89      1.0000 0.51990  0.31880  0.94860  Biso   1.000  C
  C90      1.0000 0.58900  0.31270  0.98800  Biso   1.000  C
  C91      1.0000 0.39010  0.18800  0.91050  Biso   1.000  C
  C92      1.0000 0.25690  0.18590  0.86710  Biso   1.000  C
  C93      1.0000 0.24920  0.15050  0.90260  Biso   1.000  C
  C94      1.0000 0.79130  0.11400  0.07880  Biso   1.000  C
  C95      1.0000 0.88070  0.07810  0.99880  Biso   1.000  C
  C96      1.0000 0.88100  0.03860  0.03110  Biso   1.000  C
  C97      1.0000 0.98140  0.37640  0.20870  Biso   1.000  C
  C98      1.0000 0.96800  0.42860  0.30020  Biso   1.000  C
  C99      1.0000 0.04560  0.39210  0.29450  Biso   1.000  C
  C100     1.0000 0.73230  0.37880  0.28580  Biso   1.000  C
  C101     1.0000 0.67290  0.45360  0.34960  Biso   1.000  C
  C102     1.0000 0.64010  0.40420  0.36250  Biso   1.000  C
  C103     1.0000 0.94710  0.60720  0.23200  Biso   1.000  C
  C104     1.0000 0.03990  0.53470  0.23110  Biso   1.000  C
  C105     1.0000 0.08960  0.58760  0.25240  Biso   1.000  C
  C106     1.0000 0.65470  0.61480  0.21520  Biso   1.000  C
  C107     1.0000 0.73340  0.57750  0.13480  Biso   1.000  C
  C108     1.0000 0.67400  0.62080  0.12690  Biso   1.000  C
  C109     1.0000 0.74510  0.60380  0.36090  Biso   1.000  C
  C110     1.0000 0.89060  0.58020  0.36210  Biso   1.000  C
  C111     1.0000 0.86630  0.61980  0.41710  Biso   1.000  C
  C112     1.0000 0.78950  0.37210  0.09590  Biso   1.000  C
  C113     1.0000 0.91050  0.42170  0.08680  Biso   1.000  C
  C114     1.0000 0.91340  0.36610  0.04410  Biso   1.000  C
  C115     1.0000 0.56980  0.41290  0.20540  Biso   1.000  C
  C116     1.0000 0.57630  0.46090  0.14100  Biso   1.000  C
  C117     1.0000 0.49180  0.42870  0.13070  Biso   1.000  C
  C118     1.0000 0.31920  0.31700  0.06740  Biso   1.000  C
  C119     1.0000 0.39930  0.23760  0.24510  Biso   1.000  C
  C120     1.0000 0.34090  0.32770  0.26710  Biso   1.000  C
  C121     1.0000 0.43330  0.33150  0.28550  Biso   1.000  C
  C122     1.0000 0.21050  0.24970  0.35530  Biso   1.000  C
  C123     1.0000 0.06590  0.28050  0.36360  Biso   1.000  C
  C124     1.0000 0.09360  0.27750  0.41840  Biso   1.000  C
  C125     1.0000 0.98050  0.22650  0.08900  Biso   1.000  C
  C126     1.0000 0.12220  0.20950  0.05440  Biso   1.000  C
  C127     1.0000 0.06070  0.20980  0.00930  Biso   1.000  C
  C128     1.0000 0.31610  0.29650  0.11480  Biso   1.000  C
  C129     1.0000 0.18780  0.34880  0.11710  Biso   1.000  C
  C130     1.0000 0.30110  0.76320  0.26200  Biso   1.000  C
  C131     1.0000 0.26620  0.67260  0.21600  Biso   1.000  C
  C132     1.0000 0.35980  0.67980  0.20610  Biso   1.000  C
  C133     1.0000 0.12280  0.74600  0.14010  Biso   1.000  C
  C134     1.0000 0.00590  0.80710  0.17320  Biso   1.000  C
  C135     1.0000 0.03830  0.81510  0.12120  Biso   1.000  C
  C136     1.0000 0.87970  0.75450  0.39940  Biso   1.000  C
  C137     1.0000 0.98010  0.81880  0.44860  Biso   1.000  C
  C138     1.0000 0.91100  0.81270  0.48800  Biso   1.000  C
  C139     1.0000 0.10990  0.68800  0.41050  Biso   1.000  C
  C140     1.0000 0.24310  0.68590  0.36710  Biso   1.000  C
  C141     1.0000 0.25080  0.65050  0.40260  Biso   1.000  C
  C142     1.0000 0.70870  0.61400  0.57880  Biso   1.000  C
  C143     1.0000 0.61930  0.57810  0.49880  Biso   1.000  C
  C144     1.0000 0.61900  0.53860  0.53110  Biso   1.000  C
  C145     1.0000 0.48140  0.12360  0.29130  Biso   1.000  C
  C146     1.0000 0.46800  0.07140  0.19980  Biso   1.000  C
  C147     1.0000 0.54560  0.10790  0.20550  Biso   1.000  C
  C148     1.0000 0.23230  0.12120  0.21420  Biso   1.000  C
  C149     1.0000 0.17290  0.04640  0.15040  Biso   1.000  C
  C150     1.0000 0.14010  0.09580  0.13750  Biso   1.000  C
  C151     1.0000 0.44710  0.89280  0.26800  Biso   1.000  C
  C152     1.0000 0.53990  0.96530  0.26890  Biso   1.000  C
  C153     1.0000 0.58960  0.91240  0.24760  Biso   1.000  C
  C154     1.0000 0.15470  0.88520  0.28480  Biso   1.000  C
  C155     1.0000 0.23340  0.92250  0.36520  Biso   1.000  C
  C156     1.0000 0.17400  0.87920  0.37310  Biso   1.000  C
  C157     1.0000 0.24510  0.89620  0.13910  Biso   1.000  C
  C158     1.0000 0.39060  0.91980  0.13790  Biso   1.000  C
  C159     1.0000 0.36630  0.88020  0.08290  Biso   1.000  C
  C160     1.0000 0.28950  0.12790  0.40410  Biso   1.000  C
  C161     1.0000 0.41050  0.07830  0.41320  Biso   1.000  C
  C162     1.0000 0.41340  0.13390  0.45590  Biso   1.000  C
  C163     1.0000 0.06980  0.08710  0.29460  Biso   1.000  C
  C164     1.0000 0.07630  0.03910  0.35900  Biso   1.000  C
  C165     1.0000 0.99180  0.07130  0.36930  Biso   1.000  C
  C166     1.0000 0.81920  0.18300  0.43260  Biso   1.000  C
  C167     1.0000 0.89930  0.26240  0.25490  Biso   1.000  C
  C168     1.0000 0.84090  0.17230  0.23290  Biso   1.000  C
  C169     1.0000 0.93330  0.16850  0.21450  Biso   1.000  C
  C170     1.0000 0.71050  0.25030  0.14470  Biso   1.000  C
  C171     1.0000 0.56590  0.21950  0.13640  Biso   1.000  C
  C172     1.0000 0.59360  0.22250  0.08160  Biso   1.000  C
  C173     1.0000 0.48050  0.27350  0.41100  Biso   1.000  C
  C174     1.0000 0.62220  0.29050  0.44560  Biso   1.000  C
  C175     1.0000 0.56070  0.29020  0.49070  Biso   1.000  C
  C176     1.0000 0.81610  0.20350  0.38520  Biso   1.000  C
  C177     1.0000 0.68780  0.15120  0.38290  Biso   1.000  C
  C178     1.0000 0.80110  0.73680  0.23800  Biso   1.000  C
  C179     1.0000 0.76620  0.82740  0.28400  Biso   1.000  C
  C180     1.0000 0.85980  0.82020  0.29390  Biso   1.000  C
  C181     1.0000 0.62280  0.75400  0.35990  Biso   1.000  C
  C182     1.0000 0.50590  0.69290  0.32680  Biso   1.000  C
  C183     1.0000 0.53830  0.68490  0.37880  Biso   1.000  C
  C184     1.0000 0.37970  0.74550  0.10060  Biso   1.000  C
  C185     1.0000 0.48010  0.68120  0.05140  Biso   1.000  C
  C186     1.0000 0.41100  0.68730  0.01200  Biso   1.000  C
  C187     1.0000 0.60990  0.81200  0.08950  Biso   1.000  C
  C188     1.0000 0.74310  0.81410  0.13290  Biso   1.000  C
  C189     1.0000 0.75080  0.84950  0.09740  Biso   1.000  C
  C190     1.0000 0.20870  0.88600  0.92120  Biso   1.000  C
  C191     1.0000 0.11930  0.92190  0.00120  Biso   1.000  C
  C192     1.0000 0.11900  0.96140  0.96890  Biso   1.000  C
  N1       1.0000 0.07110  0.58040  0.75580  Biso   1.000  N
  N2       1.0000 0.94460  0.64250  0.76300  Biso   1.000  N
  N3       1.0000 0.26730  0.56150  0.70040  Biso   1.000  N
  N4       1.0000 0.31860  0.64690  0.68120  Biso   1.000  N
  N5       1.0000 0.05230  0.45300  0.78250  Biso   1.000  N
  N6       1.0000 0.97130  0.36530  0.74820  Biso   1.000  N
  N7       1.0000 0.28050  0.42870  0.80900  Biso   1.000  N
  N8       1.0000 0.37720  0.35470  0.82170  Biso   1.000  N
  N9       1.0000 0.18800  0.43020  0.67460  Biso   1.000  N
  N10      1.0000 0.22410  0.36360  0.58350  Biso   1.000  N
  N11      1.0000 0.16810  0.57480  0.87980  Biso   1.000  N
  N12      1.0000 0.16490  0.66580  0.95030  Biso   1.000  N
  N13      1.0000 0.37660  0.55030  0.81260  Biso   1.000  N
  N14      1.0000 0.51200  0.60200  0.82800  Biso   1.000  N
  N15      1.0000 0.68400  0.73080  0.75860  Biso   1.000  N
  N16      1.0000 0.53010  0.72710  0.72870  Biso   1.000  N
  N17      1.0000 0.86050  0.73650  0.67710  Biso   1.000  N
  N18      1.0000 0.81300  0.74170  0.58540  Biso   1.000  N
  N19      1.0000 0.92830  0.77960  0.89350  Biso   1.000  N
  N20      1.0000 0.03030  0.77780  0.96780  Biso   1.000  N
  N21      1.0000 0.76870  0.68520  0.85440  Biso   1.000  N
  N22      1.0000 0.77370  0.27440  0.74690  Biso   1.000  N
  N23      1.0000 0.61580  0.26140  0.76560  Biso   1.000  N
  N24      1.0000 0.93850  0.23820  0.81480  Biso   1.000  N
  N25      1.0000 0.88670  0.22550  0.90170  Biso   1.000  N
  N26      1.0000 0.04180  0.21840  0.60720  Biso   1.000  N
  N27      1.0000 0.15500  0.23000  0.54410  Biso   1.000  N
  N28      1.0000 0.84810  0.28930  0.62820  Biso   1.000  N
  N29      1.0000 0.83390  0.34650  0.56870  Biso   1.000  N
  N30      1.0000 0.31910  0.37290  0.46940  Biso   1.000  N
  N31      1.0000 0.33040  0.43920  0.42020  Biso   1.000  N
  N32      1.0000 0.75930  0.64970  0.93190  Biso   1.000  N
  N33      1.0000 0.57110  0.91960  0.74420  Biso   1.000  N
  N34      1.0000 0.44460  0.85750  0.73700  Biso   1.000  N
  N35      1.0000 0.76730  0.93850  0.79960  Biso   1.000  N
  N36      1.0000 0.81860  0.85310  0.81880  Biso   1.000  N
  N37      1.0000 0.55230  0.04700  0.71750  Biso   1.000  N
  N38      1.0000 0.47130  0.13470  0.75180  Biso   1.000  N
  N39      1.0000 0.78050  0.07130  0.69100  Biso   1.000  N
  N40      1.0000 0.87720  0.14530  0.67830  Biso   1.000  N
  N41      1.0000 0.68800  0.06980  0.82540  Biso   1.000  N
  N42      1.0000 0.72410  0.13640  0.91650  Biso   1.000  N
  N43      1.0000 0.66810  0.92520  0.62020  Biso   1.000  N
  N44      1.0000 0.66490  0.83420  0.54970  Biso   1.000  N
  N45      1.0000 0.87660  0.94970  0.68740  Biso   1.000  N
  N46      1.0000 0.01200  0.89800  0.67200  Biso   1.000  N
  N47      1.0000 0.18400  0.76920  0.74140  Biso   1.000  N
  N48      1.0000 0.03010  0.77290  0.77130  Biso   1.000  N
  N49      1.0000 0.36050  0.76350  0.82290  Biso   1.000  N
  N50      1.0000 0.31300  0.75830  0.91460  Biso   1.000  N
  N51      1.0000 0.42830  0.72040  0.60650  Biso   1.000  N
  N52      1.0000 0.53030  0.72220  0.53220  Biso   1.000  N
  N53      1.0000 0.26870  0.81480  0.64560  Biso   1.000  N
  N54      1.0000 0.27370  0.22560  0.75310  Biso   1.000  N
  N55      1.0000 0.11580  0.23860  0.73440  Biso   1.000  N
  N56      1.0000 0.43850  0.26180  0.68520  Biso   1.000  N
  N57      1.0000 0.38670  0.27450  0.59830  Biso   1.000  N
  N58      1.0000 0.54180  0.28160  0.89280  Biso   1.000  N
  N59      1.0000 0.65500  0.27000  0.95590  Biso   1.000  N
  N60      1.0000 0.34810  0.21070  0.87180  Biso   1.000  N
  N61      1.0000 0.33390  0.15350  0.93130  Biso   1.000  N
  N62      1.0000 0.81910  0.12710  0.03060  Biso   1.000  N
  N63      1.0000 0.83040  0.06080  0.07980  Biso   1.000  N
  N64      1.0000 0.25930  0.85030  0.56810  Biso   1.000  N
  N65      1.0000 0.92890  0.41960  0.24420  Biso   1.000  N
  N66      1.0000 0.05540  0.35750  0.23700  Biso   1.000  N
  N67      1.0000 0.73270  0.43850  0.29960  Biso   1.000  N
  N68      1.0000 0.68140  0.35310  0.31880  Biso   1.000  N
  N69      1.0000 0.94770  0.54700  0.21750  Biso   1.000  N
  N70      1.0000 0.02870  0.63470  0.25180  Biso   1.000  N
  N71      1.0000 0.71950  0.57130  0.19100  Biso   1.000  N
  N72      1.0000 0.62280  0.64530  0.17830  Biso   1.000  N
  N73      1.0000 0.81200  0.56980  0.32540  Biso   1.000  N
  N74      1.0000 0.77590  0.63640  0.41650  Biso   1.000  N
  N75      1.0000 0.83190  0.42520  0.12020  Biso   1.000  N
  N76      1.0000 0.83510  0.33420  0.04970  Biso   1.000  N
  N77      1.0000 0.62340  0.44970  0.18740  Biso   1.000  N
  N78      1.0000 0.48800  0.39800  0.17200  Biso   1.000  N
  N79      1.0000 0.31600  0.26920  0.24140  Biso   1.000  N
  N80      1.0000 0.46990  0.27290  0.27130  Biso   1.000  N
  N81      1.0000 0.13950  0.26350  0.32290  Biso   1.000  N
  N82      1.0000 0.18700  0.25830  0.41460  Biso   1.000  N
  N83      1.0000 0.07170  0.22040  0.10650  Biso   1.000  N
  N84      1.0000 0.96970  0.22220  0.03220  Biso   1.000  N
  N85      1.0000 0.23130  0.31480  0.14560  Biso   1.000  N
  N86      1.0000 0.22630  0.72560  0.25310  Biso   1.000  N
  N87      1.0000 0.38420  0.73860  0.23440  Biso   1.000  N
  N88      1.0000 0.06150  0.76180  0.18520  Biso   1.000  N
  N89      1.0000 0.11330  0.77450  0.09830  Biso   1.000  N
  N90      1.0000 0.95820  0.78160  0.39280  Biso   1.000  N
  N91      1.0000 0.84500  0.77000  0.45590  Biso   1.000  N
  N92      1.0000 0.15190  0.71070  0.37180  Biso   1.000  N
  N93      1.0000 0.16610  0.65350  0.43130  Biso   1.000  N
  N94      1.0000 0.68090  0.62710  0.53060  Biso   1.000  N
  N95      1.0000 0.66960  0.56080  0.57980  Biso   1.000  N
  N96      1.0000 0.24070  0.35030  0.06810  Biso   1.000  N
  N97      1.0000 0.42890  0.08040  0.25580  Biso   1.000  N
  N98      1.0000 0.55540  0.14250  0.26300  Biso   1.000  N
  N99      1.0000 0.23270  0.06150  0.20040  Biso   1.000  N
  N100     1.0000 0.18140  0.14690  0.18120  Biso   1.000  N
  N101     1.0000 0.44770  0.95300  0.28250  Biso   1.000  N
  N102     1.0000 0.52870  0.86530  0.24820  Biso   1.000  N
  N103     1.0000 0.21950  0.92870  0.30900  Biso   1.000  N
  N104     1.0000 0.12280  0.85470  0.32170  Biso   1.000  N
  N105     1.0000 0.31200  0.93020  0.17460  Biso   1.000  N
  N106     1.0000 0.27590  0.86360  0.08350  Biso   1.000  N
  N107     1.0000 0.33190  0.07480  0.37980  Biso   1.000  N
  N108     1.0000 0.33510  0.16580  0.45030  Biso   1.000  N
  N109     1.0000 0.12340  0.05030  0.31260  Biso   1.000  N
  N110     1.0000 0.98800  0.10200  0.32800  Biso   1.000  N
  N111     1.0000 0.81600  0.23080  0.25860  Biso   1.000  N
  N112     1.0000 0.96990  0.22710  0.22870  Biso   1.000  N
  N113     1.0000 0.63950  0.23650  0.17710  Biso   1.000  N
  N114     1.0000 0.68700  0.24170  0.08540  Biso   1.000  N
  N115     1.0000 0.57170  0.27960  0.39350  Biso   1.000  N
  N116     1.0000 0.46970  0.27780  0.46780  Biso   1.000  N
  N117     1.0000 0.73130  0.18520  0.35440  Biso   1.000  N
  N118     1.0000 0.72630  0.77440  0.24690  Biso   1.000  N
  N119     1.0000 0.88420  0.76140  0.26560  Biso   1.000  N
  N120     1.0000 0.56150  0.73820  0.31480  Biso   1.000  N
  N121     1.0000 0.61330  0.72550  0.40170  Biso   1.000  N
  N122     1.0000 0.45820  0.71840  0.10720  Biso   1.000  N
  N123     1.0000 0.34500  0.73000  0.04410  Biso   1.000  N
  N124     1.0000 0.65190  0.78930  0.12820  Biso   1.000  N
  N125     1.0000 0.66610  0.84650  0.06870  Biso   1.000  N
  N126     1.0000 0.18090  0.87290  0.96940  Biso   1.000  N
  N127     1.0000 0.16960  0.93920  0.92020  Biso   1.000  N
  N128     1.0000 0.74070  0.14970  0.43190  Biso   1.000  N
