data_image0
_cell_length_a       12.1583
_cell_length_b       16.7831
_cell_length_c       43.41
_cell_angle_alpha    90
_cell_angle_beta     90
_cell_angle_gamma    93.688

_symmetry_space_group_name_H-M    P 1
_symmetry_int_tables_number       1

loop_
  _symmetry_equiv_pos_as_xyz
  'x, y, z'

loop_
  _atom_site_label
  _atom_site_occupancy
  _atom_site_fract_x
  _atom_site_fract_y
  _atom_site_fract_z
  _atom_site_thermal_displace_type
  _atom_site_B_iso_or_equiv
  _atom_site_type_symbol
  Cd1      1.0000 0.18547  0.46408  0.29793  Biso   1.000  Cd
  Cd2      1.0000 0.92036  0.56684  0.29575  Biso   1.000  Cd
  Cd3      1.0000 0.22680  0.32143  0.50489  Biso   1.000  Cd
  Cd4      1.0000 0.31453  0.53592  0.79793  Biso   1.000  Cd
  Cd5      1.0000 0.57964  0.43316  0.79575  Biso   1.000  Cd
  Cd6      1.0000 0.27320  0.67857  0.00489  Biso   1.000  Cd
  Cd7      1.0000 0.81453  0.53592  0.70207  Biso   1.000  Cd
  Cd8      1.0000 0.07964  0.43316  0.70425  Biso   1.000  Cd
  Cd9      1.0000 0.77320  0.67857  0.49511  Biso   1.000  Cd
  Cd10     1.0000 0.68547  0.46408  0.20207  Biso   1.000  Cd
  Cd11     1.0000 0.42036  0.56684  0.20424  Biso   1.000  Cd
  Cd12     1.0000 0.72680  0.32143  0.99511  Biso   1.000  Cd
  P1       1.0000 0.94100  0.01457  0.32396  Biso   1.000  P
  P2       1.0000 0.16820  0.01813  0.32458  Biso   1.000  P
  P3       1.0000 0.05500  0.01756  0.26956  Biso   1.000  P
  P4       1.0000 0.55900  0.98543  0.82396  Biso   1.000  P
  P5       1.0000 0.33180  0.98187  0.82458  Biso   1.000  P
  P6       1.0000 0.44500  0.98244  0.76956  Biso   1.000  P
  P7       1.0000 0.05900  0.98543  0.67604  Biso   1.000  P
  P8       1.0000 0.83180  0.98187  0.67542  Biso   1.000  P
  P9       1.0000 0.94500  0.98244  0.73044  Biso   1.000  P
  P10      1.0000 0.44100  0.01457  0.17604  Biso   1.000  P
  P11      1.0000 0.66820  0.01813  0.17542  Biso   1.000  P
  P12      1.0000 0.55500  0.01756  0.23044  Biso   1.000  P
  H1       1.0000 0.02280  0.18070  0.34850  Biso   1.000  H
  H2       1.0000 0.04020  0.31460  0.33540  Biso   1.000  H
  H3       1.0000 0.74650  0.29070  0.29280  Biso   1.000  H
  H4       1.0000 0.73100  0.15640  0.30670  Biso   1.000  H
  H5       1.0000 0.83230  0.98900  0.38610  Biso   1.000  H
  H6       1.0000 0.77720  0.91470  0.42880  Biso   1.000  H
  H7       1.0000 0.83590  0.71580  0.38390  Biso   1.000  H
  H8       1.0000 0.86820  0.78820  0.33890  Biso   1.000  H
  H9       1.0000 0.26100  0.03750  0.38830  Biso   1.000  H
  H10      1.0000 0.27470  0.10640  0.43460  Biso   1.000  H
  H11      1.0000 0.25340  0.31360  0.38920  Biso   1.000  H
  H12      1.0000 0.23960  0.24460  0.34290  Biso   1.000  H
  H13      1.0000 0.07990  0.84940  0.34710  Biso   1.000  H
  H14      1.0000 0.06030  0.71800  0.33140  Biso   1.000  H
  H15      1.0000 0.36090  0.73820  0.29510  Biso   1.000  H
  H16      1.0000 0.37540  0.87370  0.30560  Biso   1.000  H
  H17      1.0000 0.98260  0.79840  0.25140  Biso   1.000  H
  H18      1.0000 0.08430  0.69070  0.23820  Biso   1.000  H
  H19      1.0000 0.34150  0.84070  0.21690  Biso   1.000  H
  H20      1.0000 0.24160  0.94790  0.22920  Biso   1.000  H
  H21      1.0000 0.12270  0.23880  0.25280  Biso   1.000  H
  H22      1.0000 0.02210  0.34540  0.23780  Biso   1.000  H
  H23      1.0000 0.76860  0.19170  0.21440  Biso   1.000  H
  H24      1.0000 0.87390  0.08350  0.22800  Biso   1.000  H
  H25      1.0000 0.47720  0.81930  0.84850  Biso   1.000  H
  H26      1.0000 0.45980  0.68540  0.83540  Biso   1.000  H
  H27      1.0000 0.75350  0.70930  0.79280  Biso   1.000  H
  H28      1.0000 0.76900  0.84360  0.80670  Biso   1.000  H
  H29      1.0000 0.66770  0.01100  0.88610  Biso   1.000  H
  H30      1.0000 0.72280  0.08530  0.92880  Biso   1.000  H
  H31      1.0000 0.66410  0.28420  0.88390  Biso   1.000  H
  H32      1.0000 0.63180  0.21180  0.83890  Biso   1.000  H
  H33      1.0000 0.23900  0.96250  0.88830  Biso   1.000  H
  H34      1.0000 0.22530  0.89360  0.93460  Biso   1.000  H
  H35      1.0000 0.24660  0.68640  0.88920  Biso   1.000  H
  H36      1.0000 0.26040  0.75540  0.84290  Biso   1.000  H
  H37      1.0000 0.42010  0.15060  0.84710  Biso   1.000  H
  H38      1.0000 0.43970  0.28200  0.83140  Biso   1.000  H
  H39      1.0000 0.13910  0.26180  0.79510  Biso   1.000  H
  H40      1.0000 0.12460  0.12630  0.80560  Biso   1.000  H
  H41      1.0000 0.51740  0.20160  0.75140  Biso   1.000  H
  H42      1.0000 0.41570  0.30930  0.73820  Biso   1.000  H
  H43      1.0000 0.15850  0.15930  0.71690  Biso   1.000  H
  H44      1.0000 0.25840  0.05210  0.72920  Biso   1.000  H
  H45      1.0000 0.37730  0.76120  0.75280  Biso   1.000  H
  H46      1.0000 0.47790  0.65460  0.73780  Biso   1.000  H
  H47      1.0000 0.73140  0.80830  0.71440  Biso   1.000  H
  H48      1.0000 0.62610  0.91650  0.72800  Biso   1.000  H
  H49      1.0000 0.97720  0.81930  0.65150  Biso   1.000  H
  H50      1.0000 0.95980  0.68540  0.66460  Biso   1.000  H
  H51      1.0000 0.25350  0.70930  0.70720  Biso   1.000  H
  H52      1.0000 0.26900  0.84360  0.69330  Biso   1.000  H
  H53      1.0000 0.16770  0.01100  0.61390  Biso   1.000  H
  H54      1.0000 0.22280  0.08530  0.57120  Biso   1.000  H
  H55      1.0000 0.16410  0.28420  0.61610  Biso   1.000  H
  H56      1.0000 0.13180  0.21180  0.66110  Biso   1.000  H
  H57      1.0000 0.73900  0.96250  0.61170  Biso   1.000  H
  H58      1.0000 0.72530  0.89360  0.56540  Biso   1.000  H
  H59      1.0000 0.74660  0.68640  0.61080  Biso   1.000  H
  H60      1.0000 0.76040  0.75540  0.65710  Biso   1.000  H
  H61      1.0000 0.92010  0.15060  0.65290  Biso   1.000  H
  H62      1.0000 0.93970  0.28200  0.66860  Biso   1.000  H
  H63      1.0000 0.63910  0.26180  0.70490  Biso   1.000  H
  H64      1.0000 0.62460  0.12630  0.69440  Biso   1.000  H
  H65      1.0000 0.01740  0.20160  0.74860  Biso   1.000  H
  H66      1.0000 0.91570  0.30930  0.76180  Biso   1.000  H
  H67      1.0000 0.65850  0.15930  0.78310  Biso   1.000  H
  H68      1.0000 0.75840  0.05210  0.77080  Biso   1.000  H
  H69      1.0000 0.87730  0.76120  0.74720  Biso   1.000  H
  H70      1.0000 0.97790  0.65460  0.76220  Biso   1.000  H
  H71      1.0000 0.23140  0.80830  0.78560  Biso   1.000  H
  H72      1.0000 0.12610  0.91650  0.77200  Biso   1.000  H
  H73      1.0000 0.52280  0.18070  0.15150  Biso   1.000  H
  H74      1.0000 0.54020  0.31460  0.16460  Biso   1.000  H
  H75      1.0000 0.24650  0.29070  0.20720  Biso   1.000  H
  H76      1.0000 0.23100  0.15640  0.19330  Biso   1.000  H
  H77      1.0000 0.33230  0.98900  0.11390  Biso   1.000  H
  H78      1.0000 0.27720  0.91470  0.07120  Biso   1.000  H
  H79      1.0000 0.33590  0.71580  0.11610  Biso   1.000  H
  H80      1.0000 0.36820  0.78820  0.16110  Biso   1.000  H
  H81      1.0000 0.76100  0.03750  0.11170  Biso   1.000  H
  H82      1.0000 0.77470  0.10640  0.06540  Biso   1.000  H
  H83      1.0000 0.75340  0.31360  0.11080  Biso   1.000  H
  H84      1.0000 0.73960  0.24460  0.15710  Biso   1.000  H
  H85      1.0000 0.57990  0.84940  0.15290  Biso   1.000  H
  H86      1.0000 0.56030  0.71800  0.16860  Biso   1.000  H
  H87      1.0000 0.86090  0.73820  0.20490  Biso   1.000  H
  H88      1.0000 0.87540  0.87370  0.19440  Biso   1.000  H
  H89      1.0000 0.48260  0.79840  0.24860  Biso   1.000  H
  H90      1.0000 0.58430  0.69070  0.26180  Biso   1.000  H
  H91      1.0000 0.84150  0.84070  0.28310  Biso   1.000  H
  H92      1.0000 0.74160  0.94790  0.27080  Biso   1.000  H
  H93      1.0000 0.62270  0.23880  0.24720  Biso   1.000  H
  H94      1.0000 0.52210  0.34540  0.26220  Biso   1.000  H
  H95      1.0000 0.26860  0.19170  0.28560  Biso   1.000  H
  H96      1.0000 0.37390  0.08350  0.27200  Biso   1.000  H
  C1       1.0000 0.87630  0.15890  0.32830  Biso   1.000  C
  C2       1.0000 0.96800  0.20350  0.33710  Biso   1.000  C
  C3       1.0000 0.97850  0.28340  0.32900  Biso   1.000  C
  C4       1.0000 0.89720  0.31850  0.31110  Biso   1.000  C
  C5       1.0000 0.80350  0.26910  0.30360  Biso   1.000  C
  C6       1.0000 0.79310  0.18860  0.31210  Biso   1.000  C
  C7       1.0000 0.91090  0.40260  0.30270  Biso   1.000  C
  C8       1.0000 0.85120  0.89490  0.35890  Biso   1.000  C
  C9       1.0000 0.82900  0.93350  0.38540  Biso   1.000  C
  C10      1.0000 0.80140  0.88940  0.41120  Biso   1.000  C
  C11      1.0000 0.80960  0.80600  0.41130  Biso   1.000  C
  C12      1.0000 0.83320  0.77100  0.38440  Biso   1.000  C
  C13      1.0000 0.85360  0.81380  0.35730  Biso   1.000  C
  C14      1.0000 0.24900  0.13420  0.36097  Biso   1.000  C
  C15      1.0000 0.25950  0.09280  0.38844  Biso   1.000  C
  C16      1.0000 0.26770  0.13410  0.41619  Biso   1.000  C
  C17      1.0000 0.26540  0.21680  0.41647  Biso   1.000  C
  C18      1.0000 0.25490  0.25820  0.38900  Biso   1.000  C
  C19      1.0000 0.24670  0.21690  0.36125  Biso   1.000  C
  C20      1.0000 0.26990  0.25850  0.44610  Biso   1.000  C
  C21      1.0000 0.22970  0.87290  0.32900  Biso   1.000  C
  C22      1.0000 0.13610  0.82720  0.33620  Biso   1.000  C
  C23      1.0000 0.12470  0.74900  0.32720  Biso   1.000  C
  C24      1.0000 0.21280  0.71660  0.31150  Biso   1.000  C
  C25      1.0000 0.30300  0.76150  0.30490  Biso   1.000  C
  C26      1.0000 0.31420  0.84180  0.31200  Biso   1.000  C
  C27      1.0000 0.20740  0.62970  0.30440  Biso   1.000  C
  C28      1.0000 0.10160  0.88440  0.24060  Biso   1.000  C
  C29      1.0000 0.05420  0.80700  0.24400  Biso   1.000  C
  C30      1.0000 0.11580  0.74250  0.23630  Biso   1.000  C
  C31      1.0000 0.22380  0.75480  0.22580  Biso   1.000  C
  C32      1.0000 0.26900  0.83190  0.22350  Biso   1.000  C
  C33      1.0000 0.20930  0.89640  0.23080  Biso   1.000  C
  C34      1.0000 0.29030  0.68570  0.21780  Biso   1.000  C
  C35      1.0000 0.00670  0.15210  0.24060  Biso   1.000  C
  C36      1.0000 0.05240  0.22980  0.24460  Biso   1.000  C
  C37      1.0000 0.99180  0.29330  0.23610  Biso   1.000  C
  C38      1.0000 0.88590  0.27850  0.22510  Biso   1.000  C
  C39      1.0000 0.84000  0.20080  0.22180  Biso   1.000  C
  C40      1.0000 0.90300  0.13590  0.22990  Biso   1.000  C
  C41      1.0000 0.81970  0.34640  0.21570  Biso   1.000  C
  C42      1.0000 0.79140  0.76030  0.43990  Biso   1.000  C
  C43      1.0000 0.62370  0.84110  0.82830  Biso   1.000  C
  C44      1.0000 0.53200  0.79650  0.83710  Biso   1.000  C
  C45      1.0000 0.52150  0.71660  0.82900  Biso   1.000  C
  C46      1.0000 0.60280  0.68150  0.81110  Biso   1.000  C
  C47      1.0000 0.69650  0.73090  0.80360  Biso   1.000  C
  C48      1.0000 0.70690  0.81140  0.81210  Biso   1.000  C
  C49      1.0000 0.58910  0.59740  0.80270  Biso   1.000  C
  C50      1.0000 0.64880  0.10510  0.85890  Biso   1.000  C
  C51      1.0000 0.67100  0.06650  0.88540  Biso   1.000  C
  C52      1.0000 0.69860  0.11060  0.91120  Biso   1.000  C
  C53      1.0000 0.69040  0.19400  0.91130  Biso   1.000  C
  C54      1.0000 0.66680  0.22900  0.88440  Biso   1.000  C
  C55      1.0000 0.64640  0.18620  0.85730  Biso   1.000  C
  C56      1.0000 0.25100  0.86580  0.86097  Biso   1.000  C
  C57      1.0000 0.24050  0.90720  0.88844  Biso   1.000  C
  C58      1.0000 0.23230  0.86590  0.91619  Biso   1.000  C
  C59      1.0000 0.23460  0.78320  0.91647  Biso   1.000  C
  C60      1.0000 0.24510  0.74180  0.88900  Biso   1.000  C
  C61      1.0000 0.25330  0.78310  0.86125  Biso   1.000  C
  C62      1.0000 0.23010  0.74150  0.94610  Biso   1.000  C
  C63      1.0000 0.27030  0.12710  0.82900  Biso   1.000  C
  C64      1.0000 0.36390  0.17280  0.83620  Biso   1.000  C
  C65      1.0000 0.37530  0.25100  0.82720  Biso   1.000  C
  C66      1.0000 0.28720  0.28340  0.81150  Biso   1.000  C
  C67      1.0000 0.19700  0.23850  0.80490  Biso   1.000  C
  C68      1.0000 0.18580  0.15820  0.81200  Biso   1.000  C
  C69      1.0000 0.29260  0.37030  0.80440  Biso   1.000  C
  C70      1.0000 0.39840  0.11560  0.74060  Biso   1.000  C
  C71      1.0000 0.44580  0.19300  0.74400  Biso   1.000  C
  C72      1.0000 0.38420  0.25750  0.73630  Biso   1.000  C
  C73      1.0000 0.27620  0.24520  0.72580  Biso   1.000  C
  C74      1.0000 0.23100  0.16810  0.72350  Biso   1.000  C
  C75      1.0000 0.29070  0.10360  0.73080  Biso   1.000  C
  C76      1.0000 0.20970  0.31430  0.71780  Biso   1.000  C
  C77      1.0000 0.49330  0.84790  0.74060  Biso   1.000  C
  C78      1.0000 0.44760  0.77020  0.74460  Biso   1.000  C
  C79      1.0000 0.50820  0.70670  0.73610  Biso   1.000  C
  C80      1.0000 0.61410  0.72150  0.72510  Biso   1.000  C
  C81      1.0000 0.66000  0.79920  0.72180  Biso   1.000  C
  C82      1.0000 0.59700  0.86410  0.72990  Biso   1.000  C
  C83      1.0000 0.68030  0.65360  0.71570  Biso   1.000  C
  C84      1.0000 0.70860  0.23970  0.93990  Biso   1.000  C
  C85      1.0000 0.12370  0.84110  0.67170  Biso   1.000  C
  C86      1.0000 0.03200  0.79650  0.66290  Biso   1.000  C
  C87      1.0000 0.02150  0.71660  0.67100  Biso   1.000  C
  C88      1.0000 0.10280  0.68150  0.68890  Biso   1.000  C
  C89      1.0000 0.19650  0.73090  0.69640  Biso   1.000  C
  C90      1.0000 0.20690  0.81140  0.68790  Biso   1.000  C
  C91      1.0000 0.08910  0.59740  0.69730  Biso   1.000  C
  C92      1.0000 0.14880  0.10510  0.64110  Biso   1.000  C
  C93      1.0000 0.17100  0.06650  0.61460  Biso   1.000  C
  C94      1.0000 0.19860  0.11060  0.58880  Biso   1.000  C
  C95      1.0000 0.19040  0.19400  0.58870  Biso   1.000  C
  C96      1.0000 0.16680  0.22900  0.61560  Biso   1.000  C
  C97      1.0000 0.14640  0.18620  0.64270  Biso   1.000  C
  C98      1.0000 0.75100  0.86580  0.63903  Biso   1.000  C
  C99      1.0000 0.74050  0.90720  0.61156  Biso   1.000  C
  C100     1.0000 0.73230  0.86590  0.58381  Biso   1.000  C
  C101     1.0000 0.73460  0.78320  0.58353  Biso   1.000  C
  C102     1.0000 0.74510  0.74180  0.61100  Biso   1.000  C
  C103     1.0000 0.75330  0.78310  0.63875  Biso   1.000  C
  C104     1.0000 0.73010  0.74150  0.55390  Biso   1.000  C
  C105     1.0000 0.77030  0.12710  0.67100  Biso   1.000  C
  C106     1.0000 0.86390  0.17280  0.66380  Biso   1.000  C
  C107     1.0000 0.87530  0.25100  0.67280  Biso   1.000  C
  C108     1.0000 0.78720  0.28340  0.68850  Biso   1.000  C
  C109     1.0000 0.69700  0.23850  0.69510  Biso   1.000  C
  C110     1.0000 0.68580  0.15820  0.68800  Biso   1.000  C
  C111     1.0000 0.79260  0.37030  0.69560  Biso   1.000  C
  C112     1.0000 0.89840  0.11560  0.75940  Biso   1.000  C
  C113     1.0000 0.94580  0.19300  0.75600  Biso   1.000  C
  C114     1.0000 0.88420  0.25750  0.76370  Biso   1.000  C
  C115     1.0000 0.77620  0.24520  0.77420  Biso   1.000  C
  C116     1.0000 0.73100  0.16810  0.77650  Biso   1.000  C
  C117     1.0000 0.79070  0.10360  0.76920  Biso   1.000  C
  C118     1.0000 0.70970  0.31430  0.78220  Biso   1.000  C
  C119     1.0000 0.99330  0.84790  0.75940  Biso   1.000  C
  C120     1.0000 0.94760  0.77020  0.75540  Biso   1.000  C
  C121     1.0000 0.00820  0.70670  0.76390  Biso   1.000  C
  C122     1.0000 0.11410  0.72150  0.77490  Biso   1.000  C
  C123     1.0000 0.16000  0.79920  0.77820  Biso   1.000  C
  C124     1.0000 0.09700  0.86410  0.77010  Biso   1.000  C
  C125     1.0000 0.18030  0.65360  0.78430  Biso   1.000  C
  C126     1.0000 0.20860  0.23970  0.56010  Biso   1.000  C
  C127     1.0000 0.37630  0.15890  0.17170  Biso   1.000  C
  C128     1.0000 0.46800  0.20350  0.16290  Biso   1.000  C
  C129     1.0000 0.47850  0.28340  0.17100  Biso   1.000  C
  C130     1.0000 0.39720  0.31850  0.18890  Biso   1.000  C
  C131     1.0000 0.30350  0.26910  0.19640  Biso   1.000  C
  C132     1.0000 0.29310  0.18860  0.18790  Biso   1.000  C
  C133     1.0000 0.41090  0.40260  0.19730  Biso   1.000  C
  C134     1.0000 0.35120  0.89490  0.14110  Biso   1.000  C
  C135     1.0000 0.32900  0.93350  0.11460  Biso   1.000  C
  C136     1.0000 0.30140  0.88940  0.08880  Biso   1.000  C
  C137     1.0000 0.30960  0.80600  0.08870  Biso   1.000  C
  C138     1.0000 0.33320  0.77100  0.11560  Biso   1.000  C
  C139     1.0000 0.35360  0.81380  0.14270  Biso   1.000  C
  C140     1.0000 0.74900  0.13420  0.13903  Biso   1.000  C
  C141     1.0000 0.75950  0.09280  0.11156  Biso   1.000  C
  C142     1.0000 0.76770  0.13410  0.08381  Biso   1.000  C
  C143     1.0000 0.76540  0.21680  0.08353  Biso   1.000  C
  C144     1.0000 0.75490  0.25820  0.11100  Biso   1.000  C
  C145     1.0000 0.74670  0.21690  0.13875  Biso   1.000  C
  C146     1.0000 0.76990  0.25850  0.05390  Biso   1.000  C
  C147     1.0000 0.72970  0.87290  0.17100  Biso   1.000  C
  C148     1.0000 0.63610  0.82720  0.16380  Biso   1.000  C
  C149     1.0000 0.62470  0.74900  0.17280  Biso   1.000  C
  C150     1.0000 0.71280  0.71660  0.18850  Biso   1.000  C
  C151     1.0000 0.80300  0.76150  0.19510  Biso   1.000  C
  C152     1.0000 0.81420  0.84180  0.18800  Biso   1.000  C
  C153     1.0000 0.70740  0.62970  0.19560  Biso   1.000  C
  C154     1.0000 0.60160  0.88440  0.25940  Biso   1.000  C
  C155     1.0000 0.55420  0.80700  0.25600  Biso   1.000  C
  C156     1.0000 0.61580  0.74250  0.26370  Biso   1.000  C
  C157     1.0000 0.72380  0.75480  0.27420  Biso   1.000  C
  C158     1.0000 0.76900  0.83190  0.27650  Biso   1.000  C
  C159     1.0000 0.70930  0.89640  0.26920  Biso   1.000  C
  C160     1.0000 0.79030  0.68570  0.28220  Biso   1.000  C
  C161     1.0000 0.50670  0.15210  0.25940  Biso   1.000  C
  C162     1.0000 0.55240  0.22980  0.25540  Biso   1.000  C
  C163     1.0000 0.49180  0.29330  0.26390  Biso   1.000  C
  C164     1.0000 0.38590  0.27850  0.27490  Biso   1.000  C
  C165     1.0000 0.34000  0.20080  0.27820  Biso   1.000  C
  C166     1.0000 0.40300  0.13590  0.27010  Biso   1.000  C
  C167     1.0000 0.31970  0.34640  0.28430  Biso   1.000  C
  C168     1.0000 0.29140  0.76030  0.06010  Biso   1.000  C
  N1       1.0000 0.05470  0.01720  0.34260  Biso   1.000  N
  N2       1.0000 0.16590  0.01010  0.28810  Biso   1.000  N
  N3       1.0000 0.94700  0.02570  0.28820  Biso   1.000  N
  N4       1.0000 0.44530  0.98280  0.84260  Biso   1.000  N
  N5       1.0000 0.33410  0.98990  0.78810  Biso   1.000  N
  N6       1.0000 0.55300  0.97430  0.78820  Biso   1.000  N
  N7       1.0000 0.94530  0.98280  0.65740  Biso   1.000  N
  N8       1.0000 0.83410  0.98990  0.71190  Biso   1.000  N
  N9       1.0000 0.05300  0.97430  0.71180  Biso   1.000  N
  N10      1.0000 0.55470  0.01720  0.15740  Biso   1.000  N
  N11      1.0000 0.66590  0.01010  0.21190  Biso   1.000  N
  N12      1.0000 0.44700  0.02570  0.21180  Biso   1.000  N
  O1       1.0000 0.86210  0.07770  0.33801  Biso   1.000  O
  O2       1.0000 0.99710  0.44330  0.30377  Biso   1.000  O
  O3       1.0000 0.82290  0.43650  0.29419  Biso   1.000  O
  O4       1.0000 0.86800  0.93530  0.33071  Biso   1.000  O
  O5       1.0000 0.24170  0.09710  0.33247  Biso   1.000  O
  O6       1.0000 0.28160  0.22220  0.46960  Biso   1.000  O
  O7       1.0000 0.26530  0.33110  0.44770  Biso   1.000  O
  O8       1.0000 0.24400  0.95320  0.33783  Biso   1.000  O
  O9       1.0000 0.10810  0.59010  0.30508  Biso   1.000  O
  O10      1.0000 0.28650  0.59290  0.29781  Biso   1.000  O
  O11      1.0000 0.03550  0.94590  0.24690  Biso   1.000  O
  O12      1.0000 0.38940  0.69860  0.21031  Biso   1.000  O
  O13      1.0000 0.24550  0.61700  0.21851  Biso   1.000  O
  O14      1.0000 0.07490  0.09010  0.24688  Biso   1.000  O
  O15      1.0000 0.86050  0.41770  0.21518  Biso   1.000  O
  O16      1.0000 0.71940  0.33160  0.20884  Biso   1.000  O
  O17      1.0000 0.20360  0.45760  0.35030  Biso   1.000  O
  O18      1.0000 0.15670  0.47550  0.24527  Biso   1.000  O
  O19      1.0000 0.89380  0.57410  0.34820  Biso   1.000  O
  O20      1.0000 0.95170  0.55710  0.24309  Biso   1.000  O
  O21      1.0000 0.79740  0.68920  0.44050  Biso   1.000  O
  O22      1.0000 0.76430  0.79590  0.46420  Biso   1.000  O
  O23      1.0000 0.23790  0.45510  0.49810  Biso   1.000  O
  O24      1.0000 0.04460  0.29950  0.49570  Biso   1.000  O
  O25      1.0000 0.63790  0.92230  0.83801  Biso   1.000  O
  O26      1.0000 0.50290  0.55670  0.80377  Biso   1.000  O
  O27      1.0000 0.67710  0.56350  0.79419  Biso   1.000  O
  O28      1.0000 0.63200  0.06470  0.83071  Biso   1.000  O
  O29      1.0000 0.25830  0.90290  0.83247  Biso   1.000  O
  O30      1.0000 0.21840  0.77780  0.96960  Biso   1.000  O
  O31      1.0000 0.23470  0.66890  0.94770  Biso   1.000  O
  O32      1.0000 0.25600  0.04680  0.83783  Biso   1.000  O
  O33      1.0000 0.39190  0.40990  0.80508  Biso   1.000  O
  O34      1.0000 0.21350  0.40710  0.79781  Biso   1.000  O
  O35      1.0000 0.46450  0.05410  0.74690  Biso   1.000  O
  O36      1.0000 0.11060  0.30140  0.71031  Biso   1.000  O
  O37      1.0000 0.25450  0.38300  0.71851  Biso   1.000  O
  O38      1.0000 0.42510  0.90990  0.74688  Biso   1.000  O
  O39      1.0000 0.63950  0.58230  0.71518  Biso   1.000  O
  O40      1.0000 0.78060  0.66840  0.70884  Biso   1.000  O
  O41      1.0000 0.29640  0.54240  0.85030  Biso   1.000  O
  O42      1.0000 0.34330  0.52450  0.74527  Biso   1.000  O
  O43      1.0000 0.60620  0.42590  0.84820  Biso   1.000  O
  O44      1.0000 0.54830  0.44290  0.74309  Biso   1.000  O
  O45      1.0000 0.70260  0.31080  0.94050  Biso   1.000  O
  O46      1.0000 0.73570  0.20410  0.96420  Biso   1.000  O
  O47      1.0000 0.26210  0.54490  0.99810  Biso   1.000  O
  O48      1.0000 0.45540  0.70050  0.99570  Biso   1.000  O
  O49      1.0000 0.13790  0.92230  0.66199  Biso   1.000  O
  O50      1.0000 0.00290  0.55670  0.69623  Biso   1.000  O
  O51      1.0000 0.17710  0.56350  0.70581  Biso   1.000  O
  O52      1.0000 0.13200  0.06470  0.66929  Biso   1.000  O
  O53      1.0000 0.75830  0.90290  0.66753  Biso   1.000  O
  O54      1.0000 0.71840  0.77780  0.53040  Biso   1.000  O
  O55      1.0000 0.73470  0.66890  0.55230  Biso   1.000  O
  O56      1.0000 0.75600  0.04680  0.66217  Biso   1.000  O
  O57      1.0000 0.89190  0.40990  0.69492  Biso   1.000  O
  O58      1.0000 0.71350  0.40710  0.70219  Biso   1.000  O
  O59      1.0000 0.96450  0.05410  0.75310  Biso   1.000  O
  O60      1.0000 0.61060  0.30140  0.78969  Biso   1.000  O
  O61      1.0000 0.75450  0.38300  0.78149  Biso   1.000  O
  O62      1.0000 0.92510  0.90990  0.75312  Biso   1.000  O
  O63      1.0000 0.13950  0.58230  0.78482  Biso   1.000  O
  O64      1.0000 0.28060  0.66840  0.79116  Biso   1.000  O
  O65      1.0000 0.79640  0.54240  0.64970  Biso   1.000  O
  O66      1.0000 0.84330  0.52450  0.75473  Biso   1.000  O
  O67      1.0000 0.10620  0.42590  0.65180  Biso   1.000  O
  O68      1.0000 0.04830  0.44290  0.75691  Biso   1.000  O
  O69      1.0000 0.20260  0.31080  0.55950  Biso   1.000  O
  O70      1.0000 0.23570  0.20410  0.53580  Biso   1.000  O
  O71      1.0000 0.76210  0.54490  0.50190  Biso   1.000  O
  O72      1.0000 0.95540  0.70050  0.50430  Biso   1.000  O
  O73      1.0000 0.36210  0.07770  0.16199  Biso   1.000  O
  O74      1.0000 0.49710  0.44330  0.19623  Biso   1.000  O
  O75      1.0000 0.32290  0.43650  0.20581  Biso   1.000  O
  O76      1.0000 0.36800  0.93530  0.16929  Biso   1.000  O
  O77      1.0000 0.74170  0.09710  0.16753  Biso   1.000  O
  O78      1.0000 0.78160  0.22220  0.03040  Biso   1.000  O
  O79      1.0000 0.76530  0.33110  0.05230  Biso   1.000  O
  O80      1.0000 0.74400  0.95320  0.16217  Biso   1.000  O
  O81      1.0000 0.60810  0.59010  0.19492  Biso   1.000  O
  O82      1.0000 0.78650  0.59290  0.20219  Biso   1.000  O
  O83      1.0000 0.53550  0.94590  0.25310  Biso   1.000  O
  O84      1.0000 0.88940  0.69860  0.28969  Biso   1.000  O
  O85      1.0000 0.74550  0.61700  0.28149  Biso   1.000  O
  O86      1.0000 0.57490  0.09010  0.25312  Biso   1.000  O
  O87      1.0000 0.36050  0.41770  0.28482  Biso   1.000  O
  O88      1.0000 0.21940  0.33160  0.29116  Biso   1.000  O
  O89      1.0000 0.70360  0.45760  0.14970  Biso   1.000  O
  O90      1.0000 0.65670  0.47550  0.25473  Biso   1.000  O
  O91      1.0000 0.39380  0.57410  0.15180  Biso   1.000  O
  O92      1.0000 0.45170  0.55710  0.25691  Biso   1.000  O
  O93      1.0000 0.29740  0.68920  0.05950  Biso   1.000  O
  O94      1.0000 0.26430  0.79590  0.03580  Biso   1.000  O
  O95      1.0000 0.73790  0.45510  0.00190  Biso   1.000  O
  O96      1.0000 0.54460  0.29950  0.00430  Biso   1.000  O
