data_image0
_cell_length_a       6.25865
_cell_length_b       15.1538
_cell_length_c       15.1538
_cell_angle_alpha    61.8637
_cell_angle_beta     82.087
_cell_angle_gamma    97.913

_symmetry_space_group_name_H-M    P 1
_symmetry_int_tables_number       1

loop_
  _symmetry_equiv_pos_as_xyz
  'x, y, z'

loop_
  _atom_site_label
  _atom_site_occupancy
  _atom_site_fract_x
  _atom_site_fract_y
  _atom_site_fract_z
  _atom_site_thermal_displace_type
  _atom_site_B_iso_or_equiv
  _atom_site_type_symbol
  Cu1      1.0000 0.92905  0.26049  0.43333  Biso   1.000  Cu
  Cu2      1.0000 0.36238  0.43333  0.30618  Biso   1.000  Cu
  Cu3      1.0000 0.66856  0.30618  0.26049  Biso   1.000  Cu
  Cu4      1.0000 0.07095  0.73951  0.56667  Biso   1.000  Cu
  Cu5      1.0000 0.63762  0.56667  0.69382  Biso   1.000  Cu
  Cu6      1.0000 0.33144  0.69382  0.73951  Biso   1.000  Cu
  H1       1.0000 0.31470  0.43960  0.53900  Biso   1.000  H
  H2       1.0000 0.85370  0.53900  0.02140  Biso   1.000  H
  H3       1.0000 0.87510  0.02140  0.43960  Biso   1.000  H
  H4       1.0000 0.68530  0.56040  0.46100  Biso   1.000  H
  H5       1.0000 0.14630  0.46100  0.97860  Biso   1.000  H
  H6       1.0000 0.12490  0.97860  0.56040  Biso   1.000  H
  C1       1.0000 0.18550  0.46390  0.52280  Biso   1.000  C
  C2       1.0000 0.71820  0.42990  0.39850  Biso   1.000  C
  C3       1.0000 0.06390  0.42860  0.47130  Biso   1.000  C
  C4       1.0000 0.87250  0.46670  0.44850  Biso   1.000  C
  C5       1.0000 0.70830  0.52280  0.01330  Biso   1.000  C
  C6       1.0000 0.11670  0.39850  0.17160  Biso   1.000  C
  C7       1.0000 0.53520  0.47130  0.10010  Biso   1.000  C
  C8       1.0000 0.32100  0.44850  0.08480  Biso   1.000  C
  C9       1.0000 0.72160  0.01330  0.46390  Biso   1.000  C
  C10      1.0000 0.28830  0.17160  0.42990  Biso   1.000  C
  C11      1.0000 0.63530  0.10010  0.42860  Biso   1.000  C
  C12      1.0000 0.40580  0.08480  0.46670  Biso   1.000  C
  C13      1.0000 0.81450  0.53610  0.47720  Biso   1.000  C
  C14      1.0000 0.28180  0.57010  0.60150  Biso   1.000  C
  C15      1.0000 0.93610  0.57140  0.52870  Biso   1.000  C
  C16      1.0000 0.12750  0.53330  0.55150  Biso   1.000  C
  C17      1.0000 0.29170  0.47720  0.98670  Biso   1.000  C
  C18      1.0000 0.88330  0.60150  0.82840  Biso   1.000  C
  C19      1.0000 0.46480  0.52870  0.89990  Biso   1.000  C
  C20      1.0000 0.67900  0.55150  0.91520  Biso   1.000  C
  C21      1.0000 0.27840  0.98670  0.53610  Biso   1.000  C
  C22      1.0000 0.71170  0.82840  0.57010  Biso   1.000  C
  C23      1.0000 0.36470  0.89990  0.57140  Biso   1.000  C
  C24      1.0000 0.59420  0.91520  0.53330  Biso   1.000  C
  O1       1.0000 0.13822  0.36365  0.44289  Biso   1.000  O
  O2       1.0000 0.71667  0.34634  0.39963  Biso   1.000  O
  O3       1.0000 0.58641  0.48460  0.35837  Biso   1.000  O
  O4       1.0000 0.58111  0.44289  0.19346  Biso   1.000  O
  O5       1.0000 0.11630  0.39963  0.25403  Biso   1.000  O
  O6       1.0000 0.94478  0.35837  0.15703  Biso   1.000  O
  O7       1.0000 0.77457  0.19346  0.36365  Biso   1.000  O
  O8       1.0000 0.37033  0.25403  0.34634  Biso   1.000  O
  O9       1.0000 0.10181  0.15703  0.48460  Biso   1.000  O
  O10      1.0000 0.86178  0.63635  0.55711  Biso   1.000  O
  O11      1.0000 0.28333  0.65366  0.60037  Biso   1.000  O
  O12      1.0000 0.41359  0.51540  0.64163  Biso   1.000  O
  O13      1.0000 0.41889  0.55711  0.80654  Biso   1.000  O
  O14      1.0000 0.88370  0.60037  0.74597  Biso   1.000  O
  O15      1.0000 0.05522  0.64163  0.84297  Biso   1.000  O
  O16      1.0000 0.22543  0.80654  0.63635  Biso   1.000  O
  O17      1.0000 0.62967  0.74597  0.65366  Biso   1.000  O
  O18      1.0000 0.89819  0.84297  0.51540  Biso   1.000  O
