data_image0
_cell_length_a       7.0373
_cell_length_b       10.4399
_cell_length_c       13.3105
_cell_angle_alpha    90
_cell_angle_beta     90
_cell_angle_gamma    90

_symmetry_space_group_name_H-M    P 1
_symmetry_int_tables_number       1

loop_
  _symmetry_equiv_pos_as_xyz
  'x, y, z'

loop_
  _atom_site_label
  _atom_site_occupancy
  _atom_site_fract_x
  _atom_site_fract_y
  _atom_site_fract_z
  _atom_site_thermal_displace_type
  _atom_site_B_iso_or_equiv
  _atom_site_type_symbol
  Ag1      1.0000 0.78115  0.89395  0.31970  Biso   1.000  Ag
  Ag2      1.0000 0.71885  0.10605  0.81970  Biso   1.000  Ag
  H1       1.0000 0.95790  0.42300  0.35970  Biso   1.000  H
  H2       1.0000 0.82390  0.66040  0.68910  Biso   1.000  H
  H3       1.0000 0.81730  0.81020  0.81370  Biso   1.000  H
  H4       1.0000 0.95690  0.08070  0.62790  Biso   1.000  H
  H5       1.0000 0.97610  0.93930  0.49670  Biso   1.000  H
  H6       1.0000 0.54210  0.57700  0.85970  Biso   1.000  H
  H7       1.0000 0.67610  0.33960  0.18910  Biso   1.000  H
  H8       1.0000 0.68270  0.18980  0.31370  Biso   1.000  H
  H9       1.0000 0.54310  0.91930  0.12790  Biso   1.000  H
  H10      1.0000 0.52390  0.06070  0.99670  Biso   1.000  H
  C1       1.0000 0.88660  0.62140  0.22580  Biso   1.000  C
  C2       1.0000 0.90250  0.61050  0.33880  Biso   1.000  C
  C3       1.0000 0.93930  0.50260  0.38950  Biso   1.000  C
  C4       1.0000 0.90140  0.69030  0.49370  Biso   1.000  C
  C5       1.0000 0.89450  0.78320  0.57680  Biso   1.000  C
  C6       1.0000 0.85000  0.74570  0.67450  Biso   1.000  C
  C7       1.0000 0.84550  0.83670  0.74870  Biso   1.000  C
  C8       1.0000 0.92830  0.99510  0.63990  Biso   1.000  C
  C9       1.0000 0.93950  0.91110  0.56000  Biso   1.000  C
  C10      1.0000 0.61340  0.37860  0.72580  Biso   1.000  C
  C11      1.0000 0.59750  0.38950  0.83880  Biso   1.000  C
  C12      1.0000 0.56070  0.49740  0.88950  Biso   1.000  C
  C13      1.0000 0.59860  0.30970  0.99370  Biso   1.000  C
  C14      1.0000 0.60550  0.21680  0.07680  Biso   1.000  C
  C15      1.0000 0.65000  0.25430  0.17450  Biso   1.000  C
  C16      1.0000 0.65450  0.16330  0.24870  Biso   1.000  C
  C17      1.0000 0.57170  0.00490  0.13990  Biso   1.000  C
  C18      1.0000 0.56050  0.08890  0.06000  Biso   1.000  C
  S1       1.0000 0.94758  0.53002  0.51592  Biso   1.000  S
  S2       1.0000 0.55242  0.46998  0.01592  Biso   1.000  S
  N1       1.0000 0.87930  0.71810  0.39870  Biso   1.000  N
  N2       1.0000 0.87930  0.96180  0.73340  Biso   1.000  N
  N3       1.0000 0.62070  0.28190  0.89870  Biso   1.000  N
  N4       1.0000 0.62070  0.03820  0.23340  Biso   1.000  N
  O1       1.0000 0.84330  0.72730  0.19020  Biso   1.000  O
  O2       1.0000 0.91990  0.52020  0.17720  Biso   1.000  O
  O3       1.0000 0.65670  0.27270  0.69020  Biso   1.000  O
  O4       1.0000 0.58010  0.47980  0.67720  Biso   1.000  O
  Ag3      1.0000 0.21885  0.39395  0.18030  Biso   1.000  Ag
  Ag4      1.0000 0.28115  0.60605  0.68030  Biso   1.000  Ag
  H11      1.0000 0.04210  0.92300  0.14030  Biso   1.000  H
  H12      1.0000 0.17610  0.16040  0.81090  Biso   1.000  H
  H13      1.0000 0.18270  0.31020  0.68630  Biso   1.000  H
  H14      1.0000 0.04310  0.58070  0.87210  Biso   1.000  H
  H15      1.0000 0.02390  0.43930  0.00330  Biso   1.000  H
  H16      1.0000 0.45790  0.07700  0.64030  Biso   1.000  H
  H17      1.0000 0.32390  0.83960  0.31090  Biso   1.000  H
  H18      1.0000 0.31730  0.68980  0.18630  Biso   1.000  H
  H19      1.0000 0.45690  0.41930  0.37210  Biso   1.000  H
  H20      1.0000 0.47610  0.56070  0.50330  Biso   1.000  H
  C19      1.0000 0.11340  0.12140  0.27420  Biso   1.000  C
  C20      1.0000 0.09750  0.11050  0.16120  Biso   1.000  C
  C21      1.0000 0.06070  0.00260  0.11050  Biso   1.000  C
  C22      1.0000 0.09860  0.19030  0.00630  Biso   1.000  C
  C23      1.0000 0.10550  0.28320  0.92320  Biso   1.000  C
  C24      1.0000 0.15000  0.24570  0.82550  Biso   1.000  C
  C25      1.0000 0.15450  0.33670  0.75130  Biso   1.000  C
  C26      1.0000 0.07170  0.49510  0.86010  Biso   1.000  C
  C27      1.0000 0.06050  0.41110  0.94000  Biso   1.000  C
  C28      1.0000 0.38660  0.87860  0.77420  Biso   1.000  C
  C29      1.0000 0.40250  0.88950  0.66120  Biso   1.000  C
  C30      1.0000 0.43930  0.99740  0.61050  Biso   1.000  C
  C31      1.0000 0.40140  0.80970  0.50630  Biso   1.000  C
  C32      1.0000 0.39450  0.71680  0.42320  Biso   1.000  C
  C33      1.0000 0.35000  0.75430  0.32550  Biso   1.000  C
  C34      1.0000 0.34550  0.66330  0.25130  Biso   1.000  C
  C35      1.0000 0.42830  0.50490  0.36010  Biso   1.000  C
  C36      1.0000 0.43950  0.58890  0.44000  Biso   1.000  C
  S3       1.0000 0.05242  0.03002  0.98408  Biso   1.000  S
  S4       1.0000 0.44758  0.96998  0.48408  Biso   1.000  S
  N5       1.0000 0.12070  0.21810  0.10130  Biso   1.000  N
  N6       1.0000 0.12070  0.46180  0.76660  Biso   1.000  N
  N7       1.0000 0.37930  0.78190  0.60130  Biso   1.000  N
  N8       1.0000 0.37930  0.53820  0.26660  Biso   1.000  N
  O5       1.0000 0.15670  0.22730  0.30980  Biso   1.000  O
  O6       1.0000 0.08010  0.02020  0.32280  Biso   1.000  O
  O7       1.0000 0.34330  0.77270  0.80980  Biso   1.000  O
  O8       1.0000 0.41990  0.97980  0.82280  Biso   1.000  O
