data_image0
_cell_length_a       21.435
_cell_length_b       21.435
_cell_length_c       11.382
_cell_angle_alpha    90
_cell_angle_beta     90
_cell_angle_gamma    90

_symmetry_space_group_name_H-M    "P 1"
_symmetry_int_tables_number       1

loop_
  _symmetry_equiv_pos_as_xyz
  'x, y, z'

loop_
  _atom_site_label
  _atom_site_occupancy
  _atom_site_fract_x
  _atom_site_fract_y
  _atom_site_fract_z
  _atom_site_thermal_displace_type
  _atom_site_B_iso_or_equiv
  _atom_site_type_symbol
  O1       1.0000 0.29870  0.87622  0.92070  Biso   1.000  O
  N1       1.0000 0.20240  0.00320  0.09000  Biso   1.000  N
  C1       1.0000 0.17600  0.05290  0.03790  Biso   1.000  C
  H1       1.0000 0.18280  0.05890  0.95810  Biso   1.000  H
  C2       1.0000 0.13950  0.09520  0.09690  Biso   1.000  C
  H2       1.0000 0.12270  0.12940  0.05790  Biso   1.000  H
  C3       1.0000 0.12780  0.08590  0.21620  Biso   1.000  C
  C4       1.0000 0.15560  0.03460  0.27120  Biso   1.000  C
  H3       1.0000 0.14970  0.02730  0.35090  Biso   1.000  H
  C5       1.0000 0.19200  0.99520  0.20430  Biso   1.000  C
  H4       1.0000 0.21020  0.96110  0.24110  Biso   1.000  H
  C6       1.0000 0.29340  0.81620  0.93140  Biso   1.000  C
  C7       1.0000 0.34130  0.78130  0.85820  Biso   1.000  C
  H5       1.0000 0.35060  0.80480  0.78870  Biso   1.000  H
  H6       1.0000 0.32490  0.74120  0.83640  Biso   1.000  H
  H7       1.0000 0.37880  0.77560  0.90330  Biso   1.000  H
  O2       1.0000 0.20130  0.62378  0.92070  Biso   1.000  O
  N2       1.0000 0.29760  0.49680  0.09000  Biso   1.000  N
  C8       1.0000 0.32400  0.44710  0.03790  Biso   1.000  C
  H8       1.0000 0.31720  0.44110  0.95810  Biso   1.000  H
  C9       1.0000 0.36050  0.40480  0.09690  Biso   1.000  C
  H9       1.0000 0.37730  0.37060  0.05790  Biso   1.000  H
  C10      1.0000 0.37220  0.41410  0.21620  Biso   1.000  C
  C11      1.0000 0.34440  0.46540  0.27120  Biso   1.000  C
  H10      1.0000 0.35030  0.47270  0.35090  Biso   1.000  H
  C12      1.0000 0.30800  0.50480  0.20430  Biso   1.000  C
  H11      1.0000 0.28980  0.53890  0.24110  Biso   1.000  H
  C13      1.0000 0.20660  0.68380  0.93140  Biso   1.000  C
  C14      1.0000 0.15870  0.71870  0.85820  Biso   1.000  C
  H12      1.0000 0.14940  0.69520  0.78870  Biso   1.000  H
  H13      1.0000 0.17510  0.75880  0.83640  Biso   1.000  H
  H14      1.0000 0.12120  0.72440  0.90330  Biso   1.000  H
  O3       1.0000 0.62378  0.29870  0.42070  Biso   1.000  O
  N3       1.0000 0.49680  0.20240  0.59000  Biso   1.000  N
  C15      1.0000 0.44710  0.17600  0.53790  Biso   1.000  C
  H15      1.0000 0.44110  0.18280  0.45810  Biso   1.000  H
  C16      1.0000 0.40480  0.13950  0.59690  Biso   1.000  C
  H16      1.0000 0.37060  0.12270  0.55790  Biso   1.000  H
  C17      1.0000 0.41410  0.12780  0.71620  Biso   1.000  C
  C18      1.0000 0.46540  0.15560  0.77120  Biso   1.000  C
  H17      1.0000 0.47270  0.14970  0.85090  Biso   1.000  H
  C19      1.0000 0.50480  0.19200  0.70430  Biso   1.000  C
  H18      1.0000 0.53890  0.21020  0.74110  Biso   1.000  H
  C20      1.0000 0.68380  0.29340  0.43140  Biso   1.000  C
  C21      1.0000 0.71870  0.34130  0.35820  Biso   1.000  C
  H19      1.0000 0.69520  0.35060  0.28870  Biso   1.000  H
  H20      1.0000 0.75880  0.32490  0.33640  Biso   1.000  H
  H21      1.0000 0.72440  0.37880  0.40330  Biso   1.000  H
  O4       1.0000 0.87622  0.20130  0.42070  Biso   1.000  O
  N4       1.0000 0.00320  0.29760  0.59000  Biso   1.000  N
  C22      1.0000 0.05290  0.32400  0.53790  Biso   1.000  C
  H22      1.0000 0.05890  0.31720  0.45810  Biso   1.000  H
  C23      1.0000 0.09520  0.36050  0.59690  Biso   1.000  C
  H23      1.0000 0.12940  0.37730  0.55790  Biso   1.000  H
  C24      1.0000 0.08590  0.37220  0.71620  Biso   1.000  C
  C25      1.0000 0.03460  0.34440  0.77120  Biso   1.000  C
  H24      1.0000 0.02730  0.35030  0.85090  Biso   1.000  H
  C26      1.0000 0.99520  0.30800  0.70430  Biso   1.000  C
  H25      1.0000 0.96110  0.28980  0.74110  Biso   1.000  H
  C27      1.0000 0.81620  0.20660  0.43140  Biso   1.000  C
  C28      1.0000 0.78130  0.15870  0.35820  Biso   1.000  C
  H26      1.0000 0.80480  0.14940  0.28870  Biso   1.000  H
  H27      1.0000 0.74120  0.17510  0.33640  Biso   1.000  H
  H28      1.0000 0.77560  0.12120  0.40330  Biso   1.000  H
  O5       1.0000 0.20130  0.87622  0.07930  Biso   1.000  O
  N5       1.0000 0.29760  0.00320  0.91000  Biso   1.000  N
  C29      1.0000 0.32400  0.05290  0.96210  Biso   1.000  C
  H29      1.0000 0.31720  0.05890  0.04190  Biso   1.000  H
  C30      1.0000 0.36050  0.09520  0.90310  Biso   1.000  C
  H30      1.0000 0.37730  0.12940  0.94210  Biso   1.000  H
  C31      1.0000 0.37220  0.08590  0.78380  Biso   1.000  C
  C32      1.0000 0.34440  0.03460  0.72880  Biso   1.000  C
  H31      1.0000 0.35030  0.02730  0.64910  Biso   1.000  H
  C33      1.0000 0.30800  0.99520  0.79570  Biso   1.000  C
  H32      1.0000 0.28980  0.96110  0.75890  Biso   1.000  H
  C34      1.0000 0.20660  0.81620  0.06860  Biso   1.000  C
  C35      1.0000 0.15870  0.78130  0.14180  Biso   1.000  C
  H33      1.0000 0.14940  0.80480  0.21130  Biso   1.000  H
  H34      1.0000 0.17510  0.74120  0.16360  Biso   1.000  H
  H35      1.0000 0.12120  0.77560  0.09670  Biso   1.000  H
  O6       1.0000 0.29870  0.62378  0.07930  Biso   1.000  O
  N6       1.0000 0.20240  0.49680  0.91000  Biso   1.000  N
  C36      1.0000 0.17600  0.44710  0.96210  Biso   1.000  C
  H36      1.0000 0.18280  0.44110  0.04190  Biso   1.000  H
  C37      1.0000 0.13950  0.40480  0.90310  Biso   1.000  C
  H37      1.0000 0.12270  0.37060  0.94210  Biso   1.000  H
  C38      1.0000 0.12780  0.41410  0.78380  Biso   1.000  C
  C39      1.0000 0.15560  0.46540  0.72880  Biso   1.000  C
  H38      1.0000 0.14970  0.47270  0.64910  Biso   1.000  H
  C40      1.0000 0.19200  0.50480  0.79570  Biso   1.000  C
  H39      1.0000 0.21020  0.53890  0.75890  Biso   1.000  H
  C41      1.0000 0.29340  0.68380  0.06860  Biso   1.000  C
  C42      1.0000 0.34130  0.71870  0.14180  Biso   1.000  C
  H40      1.0000 0.35060  0.69520  0.21130  Biso   1.000  H
  H41      1.0000 0.32490  0.75880  0.16360  Biso   1.000  H
  H42      1.0000 0.37880  0.72440  0.09670  Biso   1.000  H
  O7       1.0000 0.87622  0.29870  0.57930  Biso   1.000  O
  N7       1.0000 0.00320  0.20240  0.41000  Biso   1.000  N
  C43      1.0000 0.05290  0.17600  0.46210  Biso   1.000  C
  H43      1.0000 0.05890  0.18280  0.54190  Biso   1.000  H
  C44      1.0000 0.09520  0.13950  0.40310  Biso   1.000  C
  H44      1.0000 0.12940  0.12270  0.44210  Biso   1.000  H
  C45      1.0000 0.08590  0.12780  0.28380  Biso   1.000  C
  C46      1.0000 0.03460  0.15560  0.22880  Biso   1.000  C
  H45      1.0000 0.02730  0.14970  0.14910  Biso   1.000  H
  C47      1.0000 0.99520  0.19200  0.29570  Biso   1.000  C
  H46      1.0000 0.96110  0.21020  0.25890  Biso   1.000  H
  C48      1.0000 0.81620  0.29340  0.56860  Biso   1.000  C
  C49      1.0000 0.78130  0.34130  0.64180  Biso   1.000  C
  H47      1.0000 0.80480  0.35060  0.71130  Biso   1.000  H
  H48      1.0000 0.74120  0.32490  0.66360  Biso   1.000  H
  H49      1.0000 0.77560  0.37880  0.59670  Biso   1.000  H
  O8       1.0000 0.62378  0.20130  0.57930  Biso   1.000  O
  N8       1.0000 0.49680  0.29760  0.41000  Biso   1.000  N
  C50      1.0000 0.44710  0.32400  0.46210  Biso   1.000  C
  H50      1.0000 0.44110  0.31720  0.54190  Biso   1.000  H
  C51      1.0000 0.40480  0.36050  0.40310  Biso   1.000  C
  H51      1.0000 0.37060  0.37730  0.44210  Biso   1.000  H
  C52      1.0000 0.41410  0.37220  0.28380  Biso   1.000  C
  C53      1.0000 0.46540  0.34440  0.22880  Biso   1.000  C
  H52      1.0000 0.47270  0.35030  0.14910  Biso   1.000  H
  C54      1.0000 0.50480  0.30800  0.29570  Biso   1.000  C
  H53      1.0000 0.53890  0.28980  0.25890  Biso   1.000  H
  C55      1.0000 0.68380  0.20660  0.56860  Biso   1.000  C
  C56      1.0000 0.71870  0.15870  0.64180  Biso   1.000  C
  H54      1.0000 0.69520  0.14940  0.71130  Biso   1.000  H
  H55      1.0000 0.75880  0.17510  0.66360  Biso   1.000  H
  H56      1.0000 0.72440  0.12120  0.59670  Biso   1.000  H
  Cu1      1.0000 0.25000  0.93806  0.00000  Biso   1.000  Cu
  C57      1.0000 0.25000  0.78540  0.00000  Biso   1.000  C
  Cu2      1.0000 0.25000  0.56194  0.00000  Biso   1.000  Cu
  C58      1.0000 0.25000  0.71460  0.00000  Biso   1.000  C
  Cu3      1.0000 0.56194  0.25000  0.50000  Biso   1.000  Cu
  C59      1.0000 0.71460  0.25000  0.50000  Biso   1.000  C
  Cu4      1.0000 0.93806  0.25000  0.50000  Biso   1.000  Cu
  C60      1.0000 0.78540  0.25000  0.50000  Biso   1.000  C
  O9       1.0000 0.70130  0.12378  0.07930  Biso   1.000  O
  N9       1.0000 0.79760  0.99680  0.91000  Biso   1.000  N
  C61      1.0000 0.82400  0.94710  0.96210  Biso   1.000  C
  H57      1.0000 0.81720  0.94110  0.04190  Biso   1.000  H
  C62      1.0000 0.86050  0.90480  0.90310  Biso   1.000  C
  H58      1.0000 0.87730  0.87060  0.94210  Biso   1.000  H
  C63      1.0000 0.87220  0.91410  0.78380  Biso   1.000  C
  C64      1.0000 0.84440  0.96540  0.72880  Biso   1.000  C
  H59      1.0000 0.85030  0.97270  0.64910  Biso   1.000  H
  C65      1.0000 0.80800  0.00480  0.79570  Biso   1.000  C
  H60      1.0000 0.78980  0.03890  0.75890  Biso   1.000  H
  C66      1.0000 0.70660  0.18380  0.06860  Biso   1.000  C
  C67      1.0000 0.65870  0.21870  0.14180  Biso   1.000  C
  H61      1.0000 0.64940  0.19520  0.21130  Biso   1.000  H
  H62      1.0000 0.67510  0.25880  0.16360  Biso   1.000  H
  H63      1.0000 0.62120  0.22440  0.09670  Biso   1.000  H
  O10      1.0000 0.79870  0.37622  0.07930  Biso   1.000  O
  N10      1.0000 0.70240  0.50320  0.91000  Biso   1.000  N
  C68      1.0000 0.67600  0.55290  0.96210  Biso   1.000  C
  H64      1.0000 0.68280  0.55890  0.04190  Biso   1.000  H
  C69      1.0000 0.63950  0.59520  0.90310  Biso   1.000  C
  H65      1.0000 0.62270  0.62940  0.94210  Biso   1.000  H
  C70      1.0000 0.62780  0.58590  0.78380  Biso   1.000  C
  C71      1.0000 0.65560  0.53460  0.72880  Biso   1.000  C
  H66      1.0000 0.64970  0.52730  0.64910  Biso   1.000  H
  C72      1.0000 0.69200  0.49520  0.79570  Biso   1.000  C
  H67      1.0000 0.71020  0.46110  0.75890  Biso   1.000  H
  C73      1.0000 0.79340  0.31620  0.06860  Biso   1.000  C
  C74      1.0000 0.84130  0.28130  0.14180  Biso   1.000  C
  H68      1.0000 0.85060  0.30480  0.21130  Biso   1.000  H
  H69      1.0000 0.82490  0.24120  0.16360  Biso   1.000  H
  H70      1.0000 0.87880  0.27560  0.09670  Biso   1.000  H
  O11      1.0000 0.37622  0.70130  0.57930  Biso   1.000  O
  N11      1.0000 0.50320  0.79760  0.41000  Biso   1.000  N
  C75      1.0000 0.55290  0.82400  0.46210  Biso   1.000  C
  H71      1.0000 0.55890  0.81720  0.54190  Biso   1.000  H
  C76      1.0000 0.59520  0.86050  0.40310  Biso   1.000  C
  H72      1.0000 0.62940  0.87730  0.44210  Biso   1.000  H
  C77      1.0000 0.58590  0.87220  0.28380  Biso   1.000  C
  C78      1.0000 0.53460  0.84440  0.22880  Biso   1.000  C
  H73      1.0000 0.52730  0.85030  0.14910  Biso   1.000  H
  C79      1.0000 0.49520  0.80800  0.29570  Biso   1.000  C
  H74      1.0000 0.46110  0.78980  0.25890  Biso   1.000  H
  C80      1.0000 0.31620  0.70660  0.56860  Biso   1.000  C
  C81      1.0000 0.28130  0.65870  0.64180  Biso   1.000  C
  H75      1.0000 0.30480  0.64940  0.71130  Biso   1.000  H
  H76      1.0000 0.24120  0.67510  0.66360  Biso   1.000  H
  H77      1.0000 0.27560  0.62120  0.59670  Biso   1.000  H
  O12      1.0000 0.12378  0.79870  0.57930  Biso   1.000  O
  N12      1.0000 0.99680  0.70240  0.41000  Biso   1.000  N
  C82      1.0000 0.94710  0.67600  0.46210  Biso   1.000  C
  H78      1.0000 0.94110  0.68280  0.54190  Biso   1.000  H
  C83      1.0000 0.90480  0.63950  0.40310  Biso   1.000  C
  H79      1.0000 0.87060  0.62270  0.44210  Biso   1.000  H
  C84      1.0000 0.91410  0.62780  0.28380  Biso   1.000  C
  C85      1.0000 0.96540  0.65560  0.22880  Biso   1.000  C
  H80      1.0000 0.97270  0.64970  0.14910  Biso   1.000  H
  C86      1.0000 0.00480  0.69200  0.29570  Biso   1.000  C
  H81      1.0000 0.03890  0.71020  0.25890  Biso   1.000  H
  C87      1.0000 0.18380  0.79340  0.56860  Biso   1.000  C
  C88      1.0000 0.21870  0.84130  0.64180  Biso   1.000  C
  H82      1.0000 0.19520  0.85060  0.71130  Biso   1.000  H
  H83      1.0000 0.25880  0.82490  0.66360  Biso   1.000  H
  H84      1.0000 0.22440  0.87880  0.59670  Biso   1.000  H
  O13      1.0000 0.79870  0.12378  0.92070  Biso   1.000  O
  N13      1.0000 0.70240  0.99680  0.09000  Biso   1.000  N
  C89      1.0000 0.67600  0.94710  0.03790  Biso   1.000  C
  H85      1.0000 0.68280  0.94110  0.95810  Biso   1.000  H
  C90      1.0000 0.63950  0.90480  0.09690  Biso   1.000  C
  H86      1.0000 0.62270  0.87060  0.05790  Biso   1.000  H
  C91      1.0000 0.62780  0.91410  0.21620  Biso   1.000  C
  C92      1.0000 0.65560  0.96540  0.27120  Biso   1.000  C
  H87      1.0000 0.64970  0.97270  0.35090  Biso   1.000  H
  C93      1.0000 0.69200  0.00480  0.20430  Biso   1.000  C
  H88      1.0000 0.71020  0.03890  0.24110  Biso   1.000  H
  C94      1.0000 0.79340  0.18380  0.93140  Biso   1.000  C
  C95      1.0000 0.84130  0.21870  0.85820  Biso   1.000  C
  H89      1.0000 0.85060  0.19520  0.78870  Biso   1.000  H
  H90      1.0000 0.82490  0.25880  0.83640  Biso   1.000  H
  H91      1.0000 0.87880  0.22440  0.90330  Biso   1.000  H
  O14      1.0000 0.70130  0.37622  0.92070  Biso   1.000  O
  N14      1.0000 0.79760  0.50320  0.09000  Biso   1.000  N
  C96      1.0000 0.82400  0.55290  0.03790  Biso   1.000  C
  H92      1.0000 0.81720  0.55890  0.95810  Biso   1.000  H
  C97      1.0000 0.86050  0.59520  0.09690  Biso   1.000  C
  H93      1.0000 0.87730  0.62940  0.05790  Biso   1.000  H
  C98      1.0000 0.87220  0.58590  0.21620  Biso   1.000  C
  C99      1.0000 0.84440  0.53460  0.27120  Biso   1.000  C
  H94      1.0000 0.85030  0.52730  0.35090  Biso   1.000  H
  C100     1.0000 0.80800  0.49520  0.20430  Biso   1.000  C
  H95      1.0000 0.78980  0.46110  0.24110  Biso   1.000  H
  C101     1.0000 0.70660  0.31620  0.93140  Biso   1.000  C
  C102     1.0000 0.65870  0.28130  0.85820  Biso   1.000  C
  H96      1.0000 0.64940  0.30480  0.78870  Biso   1.000  H
  H97      1.0000 0.67510  0.24120  0.83640  Biso   1.000  H
  H98      1.0000 0.62120  0.27560  0.90330  Biso   1.000  H
  O15      1.0000 0.12378  0.70130  0.42070  Biso   1.000  O
  N15      1.0000 0.99680  0.79760  0.59000  Biso   1.000  N
  C103     1.0000 0.94710  0.82400  0.53790  Biso   1.000  C
  H99      1.0000 0.94110  0.81720  0.45810  Biso   1.000  H
  C104     1.0000 0.90480  0.86050  0.59690  Biso   1.000  C
  H100     1.0000 0.87060  0.87730  0.55790  Biso   1.000  H
  C105     1.0000 0.91410  0.87220  0.71620  Biso   1.000  C
  C106     1.0000 0.96540  0.84440  0.77120  Biso   1.000  C
  H101     1.0000 0.97270  0.85030  0.85090  Biso   1.000  H
  C107     1.0000 0.00480  0.80800  0.70430  Biso   1.000  C
  H102     1.0000 0.03890  0.78980  0.74110  Biso   1.000  H
  C108     1.0000 0.18380  0.70660  0.43140  Biso   1.000  C
  C109     1.0000 0.21870  0.65870  0.35820  Biso   1.000  C
  H103     1.0000 0.19520  0.64940  0.28870  Biso   1.000  H
  H104     1.0000 0.25880  0.67510  0.33640  Biso   1.000  H
  H105     1.0000 0.22440  0.62120  0.40330  Biso   1.000  H
  O16      1.0000 0.37622  0.79870  0.42070  Biso   1.000  O
  N16      1.0000 0.50320  0.70240  0.59000  Biso   1.000  N
  C110     1.0000 0.55290  0.67600  0.53790  Biso   1.000  C
  H106     1.0000 0.55890  0.68280  0.45810  Biso   1.000  H
  C111     1.0000 0.59520  0.63950  0.59690  Biso   1.000  C
  H107     1.0000 0.62940  0.62270  0.55790  Biso   1.000  H
  C112     1.0000 0.58590  0.62780  0.71620  Biso   1.000  C
  C113     1.0000 0.53460  0.65560  0.77120  Biso   1.000  C
  H108     1.0000 0.52730  0.64970  0.85090  Biso   1.000  H
  C114     1.0000 0.49520  0.69200  0.70430  Biso   1.000  C
  H109     1.0000 0.46110  0.71020  0.74110  Biso   1.000  H
  C115     1.0000 0.31620  0.79340  0.43140  Biso   1.000  C
  C116     1.0000 0.28130  0.84130  0.35820  Biso   1.000  C
  H110     1.0000 0.30480  0.85060  0.28870  Biso   1.000  H
  H111     1.0000 0.24120  0.82490  0.33640  Biso   1.000  H
  H112     1.0000 0.27560  0.87880  0.40330  Biso   1.000  H
  Cu5      1.0000 0.75000  0.06194  0.00000  Biso   1.000  Cu
  C117     1.0000 0.75000  0.21460  0.00000  Biso   1.000  C
  Cu6      1.0000 0.75000  0.43806  0.00000  Biso   1.000  Cu
  C118     1.0000 0.75000  0.28540  0.00000  Biso   1.000  C
  Cu7      1.0000 0.43806  0.75000  0.50000  Biso   1.000  Cu
  C119     1.0000 0.28540  0.75000  0.50000  Biso   1.000  C
  Cu8      1.0000 0.06194  0.75000  0.50000  Biso   1.000  Cu
  C120     1.0000 0.21460  0.75000  0.50000  Biso   1.000  C
