data_image0
_cell_length_a       23.162
_cell_length_b       23.162
_cell_length_c       23.162
_cell_angle_alpha    90
_cell_angle_beta     90
_cell_angle_gamma    90

_symmetry_space_group_name_H-M    "P 1"
_symmetry_int_tables_number       1

loop_
  _symmetry_equiv_pos_as_xyz
  'x, y, z'

loop_
  _atom_site_label
  _atom_site_occupancy
  _atom_site_fract_x
  _atom_site_fract_y
  _atom_site_fract_z
  _atom_site_thermal_displace_type
  _atom_site_B_iso_or_equiv
  _atom_site_type_symbol
  N1       1.0000 0.32300  0.34917  0.22039  Biso   1.000  N
  O1       1.0000 0.32356  0.29086  0.22360  Biso   1.000  O
  C1       1.0000 0.28810  0.37570  0.18330  Biso   1.000  C
  H1       1.0000 0.26400  0.35500  0.15880  Biso   1.000  H
  C2       1.0000 0.28920  0.43682  0.18260  Biso   1.000  C
  H2       1.0000 0.26280  0.45630  0.15950  Biso   1.000  H
  C3       1.0000 0.32790  0.46853  0.21480  Biso   1.000  C
  C4       1.0000 0.36554  0.43555  0.25080  Biso   1.000  C
  H3       1.0000 0.39290  0.45460  0.27310  Biso   1.000  H
  C5       1.0000 0.36247  0.37842  0.25309  Biso   1.000  C
  H4       1.0000 0.38740  0.35810  0.27720  Biso   1.000  H
  N2       1.0000 0.82300  0.84917  0.72039  Biso   1.000  N
  O2       1.0000 0.82356  0.79086  0.72360  Biso   1.000  O
  C6       1.0000 0.78810  0.87570  0.68330  Biso   1.000  C
  H5       1.0000 0.76400  0.85500  0.65880  Biso   1.000  H
  C7       1.0000 0.78920  0.93682  0.68260  Biso   1.000  C
  H6       1.0000 0.76280  0.95630  0.65950  Biso   1.000  H
  C8       1.0000 0.82790  0.96853  0.71480  Biso   1.000  C
  C9       1.0000 0.86554  0.93555  0.75080  Biso   1.000  C
  H7       1.0000 0.89290  0.95460  0.77310  Biso   1.000  H
  C10      1.0000 0.86247  0.87842  0.75309  Biso   1.000  C
  H8       1.0000 0.88740  0.85810  0.77720  Biso   1.000  H
  N3       1.0000 0.67700  0.65083  0.22039  Biso   1.000  N
  O3       1.0000 0.67644  0.70914  0.22360  Biso   1.000  O
  C11      1.0000 0.71190  0.62430  0.18330  Biso   1.000  C
  H9       1.0000 0.73600  0.64500  0.15880  Biso   1.000  H
  C12      1.0000 0.71080  0.56318  0.18260  Biso   1.000  C
  H10      1.0000 0.73720  0.54370  0.15950  Biso   1.000  H
  C13      1.0000 0.67210  0.53147  0.21480  Biso   1.000  C
  C14      1.0000 0.63446  0.56445  0.25080  Biso   1.000  C
  H11      1.0000 0.60710  0.54540  0.27310  Biso   1.000  H
  C15      1.0000 0.63753  0.62158  0.25309  Biso   1.000  C
  H12      1.0000 0.61260  0.64190  0.27720  Biso   1.000  H
  N4       1.0000 0.17700  0.15083  0.72039  Biso   1.000  N
  O4       1.0000 0.17644  0.20914  0.72360  Biso   1.000  O
  C16      1.0000 0.21190  0.12430  0.68330  Biso   1.000  C
  H13      1.0000 0.23600  0.14500  0.65880  Biso   1.000  H
  C17      1.0000 0.21080  0.06318  0.68260  Biso   1.000  C
  H14      1.0000 0.23720  0.04370  0.65950  Biso   1.000  H
  C18      1.0000 0.17210  0.03147  0.71480  Biso   1.000  C
  C19      1.0000 0.13446  0.06445  0.75080  Biso   1.000  C
  H15      1.0000 0.10710  0.04540  0.77310  Biso   1.000  H
  C20      1.0000 0.13753  0.12158  0.75309  Biso   1.000  C
  H16      1.0000 0.11260  0.14190  0.77720  Biso   1.000  H
  N5       1.0000 0.67700  0.34917  0.77961  Biso   1.000  N
  O5       1.0000 0.67644  0.29086  0.77640  Biso   1.000  O
  C21      1.0000 0.71190  0.37570  0.81670  Biso   1.000  C
  H17      1.0000 0.73600  0.35500  0.84120  Biso   1.000  H
  C22      1.0000 0.71080  0.43682  0.81740  Biso   1.000  C
  H18      1.0000 0.73720  0.45630  0.84050  Biso   1.000  H
  C23      1.0000 0.67210  0.46853  0.78520  Biso   1.000  C
  C24      1.0000 0.63446  0.43555  0.74920  Biso   1.000  C
  H19      1.0000 0.60710  0.45460  0.72690  Biso   1.000  H
  C25      1.0000 0.63753  0.37842  0.74691  Biso   1.000  C
  H20      1.0000 0.61260  0.35810  0.72280  Biso   1.000  H
  N6       1.0000 0.17700  0.84917  0.27961  Biso   1.000  N
  O6       1.0000 0.17644  0.79086  0.27640  Biso   1.000  O
  C26      1.0000 0.21190  0.87570  0.31670  Biso   1.000  C
  H21      1.0000 0.23600  0.85500  0.34120  Biso   1.000  H
  C27      1.0000 0.21080  0.93682  0.31740  Biso   1.000  C
  H22      1.0000 0.23720  0.95630  0.34050  Biso   1.000  H
  C28      1.0000 0.17210  0.96853  0.28520  Biso   1.000  C
  C29      1.0000 0.13446  0.93555  0.24920  Biso   1.000  C
  H23      1.0000 0.10710  0.95460  0.22690  Biso   1.000  H
  C30      1.0000 0.13753  0.87842  0.24691  Biso   1.000  C
  H24      1.0000 0.11260  0.85810  0.22280  Biso   1.000  H
  N7       1.0000 0.32300  0.65083  0.77961  Biso   1.000  N
  O7       1.0000 0.32356  0.70914  0.77640  Biso   1.000  O
  C31      1.0000 0.28810  0.62430  0.81670  Biso   1.000  C
  H25      1.0000 0.26400  0.64500  0.84120  Biso   1.000  H
  C32      1.0000 0.28920  0.56318  0.81740  Biso   1.000  C
  H26      1.0000 0.26280  0.54370  0.84050  Biso   1.000  H
  C33      1.0000 0.32790  0.53147  0.78520  Biso   1.000  C
  C34      1.0000 0.36554  0.56445  0.74920  Biso   1.000  C
  H27      1.0000 0.39290  0.54540  0.72690  Biso   1.000  H
  C35      1.0000 0.36247  0.62158  0.74691  Biso   1.000  C
  H28      1.0000 0.38740  0.64190  0.72280  Biso   1.000  H
  N8       1.0000 0.82300  0.15083  0.27961  Biso   1.000  N
  O8       1.0000 0.82356  0.20914  0.27640  Biso   1.000  O
  C36      1.0000 0.78810  0.12430  0.31670  Biso   1.000  C
  H29      1.0000 0.76400  0.14500  0.34120  Biso   1.000  H
  C37      1.0000 0.78920  0.06318  0.31740  Biso   1.000  C
  H30      1.0000 0.76280  0.04370  0.34050  Biso   1.000  H
  C38      1.0000 0.82790  0.03147  0.28520  Biso   1.000  C
  C39      1.0000 0.86554  0.06445  0.24920  Biso   1.000  C
  H31      1.0000 0.89290  0.04540  0.22690  Biso   1.000  H
  C40      1.0000 0.86247  0.12158  0.24691  Biso   1.000  C
  H32      1.0000 0.88740  0.14190  0.22280  Biso   1.000  H
  N9       1.0000 0.22039  0.32300  0.34917  Biso   1.000  N
  O9       1.0000 0.22360  0.32356  0.29086  Biso   1.000  O
  C41      1.0000 0.18330  0.28810  0.37570  Biso   1.000  C
  H33      1.0000 0.15880  0.26400  0.35500  Biso   1.000  H
  C42      1.0000 0.18260  0.28920  0.43682  Biso   1.000  C
  H34      1.0000 0.15950  0.26280  0.45630  Biso   1.000  H
  C43      1.0000 0.21480  0.32790  0.46853  Biso   1.000  C
  C44      1.0000 0.25080  0.36554  0.43555  Biso   1.000  C
  H35      1.0000 0.27310  0.39290  0.45460  Biso   1.000  H
  C45      1.0000 0.25309  0.36247  0.37842  Biso   1.000  C
  H36      1.0000 0.27720  0.38740  0.35810  Biso   1.000  H
  N10      1.0000 0.72039  0.82300  0.84917  Biso   1.000  N
  O10      1.0000 0.72360  0.82356  0.79086  Biso   1.000  O
  C46      1.0000 0.68330  0.78810  0.87570  Biso   1.000  C
  H37      1.0000 0.65880  0.76400  0.85500  Biso   1.000  H
  C47      1.0000 0.68260  0.78920  0.93682  Biso   1.000  C
  H38      1.0000 0.65950  0.76280  0.95630  Biso   1.000  H
  C48      1.0000 0.71480  0.82790  0.96853  Biso   1.000  C
  C49      1.0000 0.75080  0.86554  0.93555  Biso   1.000  C
  H39      1.0000 0.77310  0.89290  0.95460  Biso   1.000  H
  C50      1.0000 0.75309  0.86247  0.87842  Biso   1.000  C
  H40      1.0000 0.77720  0.88740  0.85810  Biso   1.000  H
  N11      1.0000 0.22039  0.67700  0.65083  Biso   1.000  N
  O11      1.0000 0.22360  0.67644  0.70914  Biso   1.000  O
  C51      1.0000 0.18330  0.71190  0.62430  Biso   1.000  C
  H41      1.0000 0.15880  0.73600  0.64500  Biso   1.000  H
  C52      1.0000 0.18260  0.71080  0.56318  Biso   1.000  C
  H42      1.0000 0.15950  0.73720  0.54370  Biso   1.000  H
  C53      1.0000 0.21480  0.67210  0.53147  Biso   1.000  C
  C54      1.0000 0.25080  0.63446  0.56445  Biso   1.000  C
  H43      1.0000 0.27310  0.60710  0.54540  Biso   1.000  H
  C55      1.0000 0.25309  0.63753  0.62158  Biso   1.000  C
  H44      1.0000 0.27720  0.61260  0.64190  Biso   1.000  H
  N12      1.0000 0.72039  0.17700  0.15083  Biso   1.000  N
  O12      1.0000 0.72360  0.17644  0.20914  Biso   1.000  O
  C56      1.0000 0.68330  0.21190  0.12430  Biso   1.000  C
  H45      1.0000 0.65880  0.23600  0.14500  Biso   1.000  H
  C57      1.0000 0.68260  0.21080  0.06318  Biso   1.000  C
  H46      1.0000 0.65950  0.23720  0.04370  Biso   1.000  H
  C58      1.0000 0.71480  0.17210  0.03147  Biso   1.000  C
  C59      1.0000 0.75080  0.13446  0.06445  Biso   1.000  C
  H47      1.0000 0.77310  0.10710  0.04540  Biso   1.000  H
  C60      1.0000 0.75309  0.13753  0.12158  Biso   1.000  C
  H48      1.0000 0.77720  0.11260  0.14190  Biso   1.000  H
  N13      1.0000 0.77961  0.67700  0.34917  Biso   1.000  N
  O13      1.0000 0.77640  0.67644  0.29086  Biso   1.000  O
  C61      1.0000 0.81670  0.71190  0.37570  Biso   1.000  C
  H49      1.0000 0.84120  0.73600  0.35500  Biso   1.000  H
  C62      1.0000 0.81740  0.71080  0.43682  Biso   1.000  C
  H50      1.0000 0.84050  0.73720  0.45630  Biso   1.000  H
  C63      1.0000 0.78520  0.67210  0.46853  Biso   1.000  C
  C64      1.0000 0.74920  0.63446  0.43555  Biso   1.000  C
  H51      1.0000 0.72690  0.60710  0.45460  Biso   1.000  H
  C65      1.0000 0.74691  0.63753  0.37842  Biso   1.000  C
  H52      1.0000 0.72280  0.61260  0.35810  Biso   1.000  H
  N14      1.0000 0.27961  0.17700  0.84917  Biso   1.000  N
  O14      1.0000 0.27640  0.17644  0.79086  Biso   1.000  O
  C66      1.0000 0.31670  0.21190  0.87570  Biso   1.000  C
  H53      1.0000 0.34120  0.23600  0.85500  Biso   1.000  H
  C67      1.0000 0.31740  0.21080  0.93682  Biso   1.000  C
  H54      1.0000 0.34050  0.23720  0.95630  Biso   1.000  H
  C68      1.0000 0.28520  0.17210  0.96853  Biso   1.000  C
  C69      1.0000 0.24920  0.13446  0.93555  Biso   1.000  C
  H55      1.0000 0.22690  0.10710  0.95460  Biso   1.000  H
  C70      1.0000 0.24691  0.13753  0.87842  Biso   1.000  C
  H56      1.0000 0.22280  0.11260  0.85810  Biso   1.000  H
  N15      1.0000 0.77961  0.32300  0.65083  Biso   1.000  N
  O15      1.0000 0.77640  0.32356  0.70914  Biso   1.000  O
  C71      1.0000 0.81670  0.28810  0.62430  Biso   1.000  C
  H57      1.0000 0.84120  0.26400  0.64500  Biso   1.000  H
  C72      1.0000 0.81740  0.28920  0.56318  Biso   1.000  C
  H58      1.0000 0.84050  0.26280  0.54370  Biso   1.000  H
  C73      1.0000 0.78520  0.32790  0.53147  Biso   1.000  C
  C74      1.0000 0.74920  0.36554  0.56445  Biso   1.000  C
  H59      1.0000 0.72690  0.39290  0.54540  Biso   1.000  H
  C75      1.0000 0.74691  0.36247  0.62158  Biso   1.000  C
  H60      1.0000 0.72280  0.38740  0.64190  Biso   1.000  H
  N16      1.0000 0.27961  0.82300  0.15083  Biso   1.000  N
  O16      1.0000 0.27640  0.82356  0.20914  Biso   1.000  O
  C76      1.0000 0.31670  0.78810  0.12430  Biso   1.000  C
  H61      1.0000 0.34120  0.76400  0.14500  Biso   1.000  H
  C77      1.0000 0.31740  0.78920  0.06318  Biso   1.000  C
  H62      1.0000 0.34050  0.76280  0.04370  Biso   1.000  H
  C78      1.0000 0.28520  0.82790  0.03147  Biso   1.000  C
  C79      1.0000 0.24920  0.86554  0.06445  Biso   1.000  C
  H63      1.0000 0.22690  0.89290  0.04540  Biso   1.000  H
  C80      1.0000 0.24691  0.86247  0.12158  Biso   1.000  C
  H64      1.0000 0.22280  0.88740  0.14190  Biso   1.000  H
  N17      1.0000 0.34917  0.22039  0.32300  Biso   1.000  N
  O17      1.0000 0.29086  0.22360  0.32356  Biso   1.000  O
  C81      1.0000 0.37570  0.18330  0.28810  Biso   1.000  C
  H65      1.0000 0.35500  0.15880  0.26400  Biso   1.000  H
  C82      1.0000 0.43682  0.18260  0.28920  Biso   1.000  C
  H66      1.0000 0.45630  0.15950  0.26280  Biso   1.000  H
  C83      1.0000 0.46853  0.21480  0.32790  Biso   1.000  C
  C84      1.0000 0.43555  0.25080  0.36554  Biso   1.000  C
  H67      1.0000 0.45460  0.27310  0.39290  Biso   1.000  H
  C85      1.0000 0.37842  0.25309  0.36247  Biso   1.000  C
  H68      1.0000 0.35810  0.27720  0.38740  Biso   1.000  H
  N18      1.0000 0.84917  0.72039  0.82300  Biso   1.000  N
  O18      1.0000 0.79086  0.72360  0.82356  Biso   1.000  O
  C86      1.0000 0.87570  0.68330  0.78810  Biso   1.000  C
  H69      1.0000 0.85500  0.65880  0.76400  Biso   1.000  H
  C87      1.0000 0.93682  0.68260  0.78920  Biso   1.000  C
  H70      1.0000 0.95630  0.65950  0.76280  Biso   1.000  H
  C88      1.0000 0.96853  0.71480  0.82790  Biso   1.000  C
  C89      1.0000 0.93555  0.75080  0.86554  Biso   1.000  C
  H71      1.0000 0.95460  0.77310  0.89290  Biso   1.000  H
  C90      1.0000 0.87842  0.75309  0.86247  Biso   1.000  C
  H72      1.0000 0.85810  0.77720  0.88740  Biso   1.000  H
  N19      1.0000 0.65083  0.22039  0.67700  Biso   1.000  N
  O19      1.0000 0.70914  0.22360  0.67644  Biso   1.000  O
  C91      1.0000 0.62430  0.18330  0.71190  Biso   1.000  C
  H73      1.0000 0.64500  0.15880  0.73600  Biso   1.000  H
  C92      1.0000 0.56318  0.18260  0.71080  Biso   1.000  C
  H74      1.0000 0.54370  0.15950  0.73720  Biso   1.000  H
  C93      1.0000 0.53147  0.21480  0.67210  Biso   1.000  C
  C94      1.0000 0.56445  0.25080  0.63446  Biso   1.000  C
  H75      1.0000 0.54540  0.27310  0.60710  Biso   1.000  H
  C95      1.0000 0.62158  0.25309  0.63753  Biso   1.000  C
  H76      1.0000 0.64190  0.27720  0.61260  Biso   1.000  H
  N20      1.0000 0.15083  0.72039  0.17700  Biso   1.000  N
  O20      1.0000 0.20914  0.72360  0.17644  Biso   1.000  O
  C96      1.0000 0.12430  0.68330  0.21190  Biso   1.000  C
  H77      1.0000 0.14500  0.65880  0.23600  Biso   1.000  H
  C97      1.0000 0.06318  0.68260  0.21080  Biso   1.000  C
  H78      1.0000 0.04370  0.65950  0.23720  Biso   1.000  H
  C98      1.0000 0.03147  0.71480  0.17210  Biso   1.000  C
  C99      1.0000 0.06445  0.75080  0.13446  Biso   1.000  C
  H79      1.0000 0.04540  0.77310  0.10710  Biso   1.000  H
  C100     1.0000 0.12158  0.75309  0.13753  Biso   1.000  C
  H80      1.0000 0.14190  0.77720  0.11260  Biso   1.000  H
  N21      1.0000 0.34917  0.77961  0.67700  Biso   1.000  N
  O21      1.0000 0.29086  0.77640  0.67644  Biso   1.000  O
  C101     1.0000 0.37570  0.81670  0.71190  Biso   1.000  C
  H81      1.0000 0.35500  0.84120  0.73600  Biso   1.000  H
  C102     1.0000 0.43682  0.81740  0.71080  Biso   1.000  C
  H82      1.0000 0.45630  0.84050  0.73720  Biso   1.000  H
  C103     1.0000 0.46853  0.78520  0.67210  Biso   1.000  C
  C104     1.0000 0.43555  0.74920  0.63446  Biso   1.000  C
  H83      1.0000 0.45460  0.72690  0.60710  Biso   1.000  H
  C105     1.0000 0.37842  0.74691  0.63753  Biso   1.000  C
  H84      1.0000 0.35810  0.72280  0.61260  Biso   1.000  H
  N22      1.0000 0.84917  0.27961  0.17700  Biso   1.000  N
  O22      1.0000 0.79086  0.27640  0.17644  Biso   1.000  O
  C106     1.0000 0.87570  0.31670  0.21190  Biso   1.000  C
  H85      1.0000 0.85500  0.34120  0.23600  Biso   1.000  H
  C107     1.0000 0.93682  0.31740  0.21080  Biso   1.000  C
  H86      1.0000 0.95630  0.34050  0.23720  Biso   1.000  H
  C108     1.0000 0.96853  0.28520  0.17210  Biso   1.000  C
  C109     1.0000 0.93555  0.24920  0.13446  Biso   1.000  C
  H87      1.0000 0.95460  0.22690  0.10710  Biso   1.000  H
  C110     1.0000 0.87842  0.24691  0.13753  Biso   1.000  C
  H88      1.0000 0.85810  0.22280  0.11260  Biso   1.000  H
  N23      1.0000 0.65083  0.77961  0.32300  Biso   1.000  N
  O23      1.0000 0.70914  0.77640  0.32356  Biso   1.000  O
  C111     1.0000 0.62430  0.81670  0.28810  Biso   1.000  C
  H89      1.0000 0.64500  0.84120  0.26400  Biso   1.000  H
  C112     1.0000 0.56318  0.81740  0.28920  Biso   1.000  C
  H90      1.0000 0.54370  0.84050  0.26280  Biso   1.000  H
  C113     1.0000 0.53147  0.78520  0.32790  Biso   1.000  C
  C114     1.0000 0.56445  0.74920  0.36554  Biso   1.000  C
  H91      1.0000 0.54540  0.72690  0.39290  Biso   1.000  H
  C115     1.0000 0.62158  0.74691  0.36247  Biso   1.000  C
  H92      1.0000 0.64190  0.72280  0.38740  Biso   1.000  H
  N24      1.0000 0.15083  0.27961  0.82300  Biso   1.000  N
  O24      1.0000 0.20914  0.27640  0.82356  Biso   1.000  O
  C116     1.0000 0.12430  0.31670  0.78810  Biso   1.000  C
  H93      1.0000 0.14500  0.34120  0.76400  Biso   1.000  H
  C117     1.0000 0.06318  0.31740  0.78920  Biso   1.000  C
  H94      1.0000 0.04370  0.34050  0.76280  Biso   1.000  H
  C118     1.0000 0.03147  0.28520  0.82790  Biso   1.000  C
  C119     1.0000 0.06445  0.24920  0.86554  Biso   1.000  C
  H95      1.0000 0.04540  0.22690  0.89290  Biso   1.000  H
  C120     1.0000 0.12158  0.24691  0.86247  Biso   1.000  C
  H96      1.0000 0.14190  0.22280  0.88740  Biso   1.000  H
  N25      1.0000 0.67700  0.65083  0.77961  Biso   1.000  N
  O25      1.0000 0.67644  0.70914  0.77640  Biso   1.000  O
  C121     1.0000 0.71190  0.62430  0.81670  Biso   1.000  C
  H97      1.0000 0.73600  0.64500  0.84120  Biso   1.000  H
  C122     1.0000 0.71080  0.56318  0.81740  Biso   1.000  C
  H98      1.0000 0.73720  0.54370  0.84050  Biso   1.000  H
  C123     1.0000 0.67210  0.53147  0.78520  Biso   1.000  C
  C124     1.0000 0.63446  0.56445  0.74920  Biso   1.000  C
  H99      1.0000 0.60710  0.54540  0.72690  Biso   1.000  H
  C125     1.0000 0.63753  0.62158  0.74691  Biso   1.000  C
  H100     1.0000 0.61260  0.64190  0.72280  Biso   1.000  H
  N26      1.0000 0.17700  0.15083  0.27961  Biso   1.000  N
  O26      1.0000 0.17644  0.20914  0.27640  Biso   1.000  O
  C126     1.0000 0.21190  0.12430  0.31670  Biso   1.000  C
  H101     1.0000 0.23600  0.14500  0.34120  Biso   1.000  H
  C127     1.0000 0.21080  0.06318  0.31740  Biso   1.000  C
  H102     1.0000 0.23720  0.04370  0.34050  Biso   1.000  H
  C128     1.0000 0.17210  0.03147  0.28520  Biso   1.000  C
  C129     1.0000 0.13446  0.06445  0.24920  Biso   1.000  C
  H103     1.0000 0.10710  0.04540  0.22690  Biso   1.000  H
  C130     1.0000 0.13753  0.12158  0.24691  Biso   1.000  C
  H104     1.0000 0.11260  0.14190  0.22280  Biso   1.000  H
  N27      1.0000 0.32300  0.34917  0.77961  Biso   1.000  N
  O27      1.0000 0.32356  0.29086  0.77640  Biso   1.000  O
  C131     1.0000 0.28810  0.37570  0.81670  Biso   1.000  C
  H105     1.0000 0.26400  0.35500  0.84120  Biso   1.000  H
  C132     1.0000 0.28920  0.43682  0.81740  Biso   1.000  C
  H106     1.0000 0.26280  0.45630  0.84050  Biso   1.000  H
  C133     1.0000 0.32790  0.46853  0.78520  Biso   1.000  C
  C134     1.0000 0.36554  0.43555  0.74920  Biso   1.000  C
  H107     1.0000 0.39290  0.45460  0.72690  Biso   1.000  H
  C135     1.0000 0.36247  0.37842  0.74691  Biso   1.000  C
  H108     1.0000 0.38740  0.35810  0.72280  Biso   1.000  H
  N28      1.0000 0.82300  0.84917  0.27961  Biso   1.000  N
  O28      1.0000 0.82356  0.79086  0.27640  Biso   1.000  O
  C136     1.0000 0.78810  0.87570  0.31670  Biso   1.000  C
  H109     1.0000 0.76400  0.85500  0.34120  Biso   1.000  H
  C137     1.0000 0.78920  0.93682  0.31740  Biso   1.000  C
  H110     1.0000 0.76280  0.95630  0.34050  Biso   1.000  H
  C138     1.0000 0.82790  0.96853  0.28520  Biso   1.000  C
  C139     1.0000 0.86554  0.93555  0.24920  Biso   1.000  C
  H111     1.0000 0.89290  0.95460  0.22690  Biso   1.000  H
  C140     1.0000 0.86247  0.87842  0.24691  Biso   1.000  C
  H112     1.0000 0.88740  0.85810  0.22280  Biso   1.000  H
  N29      1.0000 0.32300  0.65083  0.22039  Biso   1.000  N
  O29      1.0000 0.32356  0.70914  0.22360  Biso   1.000  O
  C141     1.0000 0.28810  0.62430  0.18330  Biso   1.000  C
  H113     1.0000 0.26400  0.64500  0.15880  Biso   1.000  H
  C142     1.0000 0.28920  0.56318  0.18260  Biso   1.000  C
  H114     1.0000 0.26280  0.54370  0.15950  Biso   1.000  H
  C143     1.0000 0.32790  0.53147  0.21480  Biso   1.000  C
  C144     1.0000 0.36554  0.56445  0.25080  Biso   1.000  C
  H115     1.0000 0.39290  0.54540  0.27310  Biso   1.000  H
  C145     1.0000 0.36247  0.62158  0.25309  Biso   1.000  C
  H116     1.0000 0.38740  0.64190  0.27720  Biso   1.000  H
  N30      1.0000 0.82300  0.15083  0.72039  Biso   1.000  N
  O30      1.0000 0.82356  0.20914  0.72360  Biso   1.000  O
  C146     1.0000 0.78810  0.12430  0.68330  Biso   1.000  C
  H117     1.0000 0.76400  0.14500  0.65880  Biso   1.000  H
  C147     1.0000 0.78920  0.06318  0.68260  Biso   1.000  C
  H118     1.0000 0.76280  0.04370  0.65950  Biso   1.000  H
  C148     1.0000 0.82790  0.03147  0.71480  Biso   1.000  C
  C149     1.0000 0.86554  0.06445  0.75080  Biso   1.000  C
  H119     1.0000 0.89290  0.04540  0.77310  Biso   1.000  H
  C150     1.0000 0.86247  0.12158  0.75309  Biso   1.000  C
  H120     1.0000 0.88740  0.14190  0.77720  Biso   1.000  H
  N31      1.0000 0.67700  0.34917  0.22039  Biso   1.000  N
  O31      1.0000 0.67644  0.29086  0.22360  Biso   1.000  O
  C151     1.0000 0.71190  0.37570  0.18330  Biso   1.000  C
  H121     1.0000 0.73600  0.35500  0.15880  Biso   1.000  H
  C152     1.0000 0.71080  0.43682  0.18260  Biso   1.000  C
  H122     1.0000 0.73720  0.45630  0.15950  Biso   1.000  H
  C153     1.0000 0.67210  0.46853  0.21480  Biso   1.000  C
  C154     1.0000 0.63446  0.43555  0.25080  Biso   1.000  C
  H123     1.0000 0.60710  0.45460  0.27310  Biso   1.000  H
  C155     1.0000 0.63753  0.37842  0.25309  Biso   1.000  C
  H124     1.0000 0.61260  0.35810  0.27720  Biso   1.000  H
  N32      1.0000 0.17700  0.84917  0.72039  Biso   1.000  N
  O32      1.0000 0.17644  0.79086  0.72360  Biso   1.000  O
  C156     1.0000 0.21190  0.87570  0.68330  Biso   1.000  C
  H125     1.0000 0.23600  0.85500  0.65880  Biso   1.000  H
  C157     1.0000 0.21080  0.93682  0.68260  Biso   1.000  C
  H126     1.0000 0.23720  0.95630  0.65950  Biso   1.000  H
  C158     1.0000 0.17210  0.96853  0.71480  Biso   1.000  C
  C159     1.0000 0.13446  0.93555  0.75080  Biso   1.000  C
  H127     1.0000 0.10710  0.95460  0.77310  Biso   1.000  H
  C160     1.0000 0.13753  0.87842  0.75309  Biso   1.000  C
  H128     1.0000 0.11260  0.85810  0.77720  Biso   1.000  H
  N33      1.0000 0.77961  0.67700  0.65083  Biso   1.000  N
  O33      1.0000 0.77640  0.67644  0.70914  Biso   1.000  O
  C161     1.0000 0.81670  0.71190  0.62430  Biso   1.000  C
  H129     1.0000 0.84120  0.73600  0.64500  Biso   1.000  H
  C162     1.0000 0.81740  0.71080  0.56318  Biso   1.000  C
  H130     1.0000 0.84050  0.73720  0.54370  Biso   1.000  H
  C163     1.0000 0.78520  0.67210  0.53147  Biso   1.000  C
  C164     1.0000 0.74920  0.63446  0.56445  Biso   1.000  C
  H131     1.0000 0.72690  0.60710  0.54540  Biso   1.000  H
  C165     1.0000 0.74691  0.63753  0.62158  Biso   1.000  C
  H132     1.0000 0.72280  0.61260  0.64190  Biso   1.000  H
  N34      1.0000 0.27961  0.17700  0.15083  Biso   1.000  N
  O34      1.0000 0.27640  0.17644  0.20914  Biso   1.000  O
  C166     1.0000 0.31670  0.21190  0.12430  Biso   1.000  C
  H133     1.0000 0.34120  0.23600  0.14500  Biso   1.000  H
  C167     1.0000 0.31740  0.21080  0.06318  Biso   1.000  C
  H134     1.0000 0.34050  0.23720  0.04370  Biso   1.000  H
  C168     1.0000 0.28520  0.17210  0.03147  Biso   1.000  C
  C169     1.0000 0.24920  0.13446  0.06445  Biso   1.000  C
  H135     1.0000 0.22690  0.10710  0.04540  Biso   1.000  H
  C170     1.0000 0.24691  0.13753  0.12158  Biso   1.000  C
  H136     1.0000 0.22280  0.11260  0.14190  Biso   1.000  H
  N35      1.0000 0.77961  0.32300  0.34917  Biso   1.000  N
  O35      1.0000 0.77640  0.32356  0.29086  Biso   1.000  O
  C171     1.0000 0.81670  0.28810  0.37570  Biso   1.000  C
  H137     1.0000 0.84120  0.26400  0.35500  Biso   1.000  H
  C172     1.0000 0.81740  0.28920  0.43682  Biso   1.000  C
  H138     1.0000 0.84050  0.26280  0.45630  Biso   1.000  H
  C173     1.0000 0.78520  0.32790  0.46853  Biso   1.000  C
  C174     1.0000 0.74920  0.36554  0.43555  Biso   1.000  C
  H139     1.0000 0.72690  0.39290  0.45460  Biso   1.000  H
  C175     1.0000 0.74691  0.36247  0.37842  Biso   1.000  C
  H140     1.0000 0.72280  0.38740  0.35810  Biso   1.000  H
  N36      1.0000 0.27961  0.82300  0.84917  Biso   1.000  N
  O36      1.0000 0.27640  0.82356  0.79086  Biso   1.000  O
  C176     1.0000 0.31670  0.78810  0.87570  Biso   1.000  C
  H141     1.0000 0.34120  0.76400  0.85500  Biso   1.000  H
  C177     1.0000 0.31740  0.78920  0.93682  Biso   1.000  C
  H142     1.0000 0.34050  0.76280  0.95630  Biso   1.000  H
  C178     1.0000 0.28520  0.82790  0.96853  Biso   1.000  C
  C179     1.0000 0.24920  0.86554  0.93555  Biso   1.000  C
  H143     1.0000 0.22690  0.89290  0.95460  Biso   1.000  H
  C180     1.0000 0.24691  0.86247  0.87842  Biso   1.000  C
  H144     1.0000 0.22280  0.88740  0.85810  Biso   1.000  H
  N37      1.0000 0.22039  0.32300  0.65083  Biso   1.000  N
  O37      1.0000 0.22360  0.32356  0.70914  Biso   1.000  O
  C181     1.0000 0.18330  0.28810  0.62430  Biso   1.000  C
  H145     1.0000 0.15880  0.26400  0.64500  Biso   1.000  H
  C182     1.0000 0.18260  0.28920  0.56318  Biso   1.000  C
  H146     1.0000 0.15950  0.26280  0.54370  Biso   1.000  H
  C183     1.0000 0.21480  0.32790  0.53147  Biso   1.000  C
  C184     1.0000 0.25080  0.36554  0.56445  Biso   1.000  C
  H147     1.0000 0.27310  0.39290  0.54540  Biso   1.000  H
  C185     1.0000 0.25309  0.36247  0.62158  Biso   1.000  C
  H148     1.0000 0.27720  0.38740  0.64190  Biso   1.000  H
  N38      1.0000 0.72039  0.82300  0.15083  Biso   1.000  N
  O38      1.0000 0.72360  0.82356  0.20914  Biso   1.000  O
  C186     1.0000 0.68330  0.78810  0.12430  Biso   1.000  C
  H149     1.0000 0.65880  0.76400  0.14500  Biso   1.000  H
  C187     1.0000 0.68260  0.78920  0.06318  Biso   1.000  C
  H150     1.0000 0.65950  0.76280  0.04370  Biso   1.000  H
  C188     1.0000 0.71480  0.82790  0.03147  Biso   1.000  C
  C189     1.0000 0.75080  0.86554  0.06445  Biso   1.000  C
  H151     1.0000 0.77310  0.89290  0.04540  Biso   1.000  H
  C190     1.0000 0.75309  0.86247  0.12158  Biso   1.000  C
  H152     1.0000 0.77720  0.88740  0.14190  Biso   1.000  H
  N39      1.0000 0.22039  0.67700  0.34917  Biso   1.000  N
  O39      1.0000 0.22360  0.67644  0.29086  Biso   1.000  O
  C191     1.0000 0.18330  0.71190  0.37570  Biso   1.000  C
  H153     1.0000 0.15880  0.73600  0.35500  Biso   1.000  H
  C192     1.0000 0.18260  0.71080  0.43682  Biso   1.000  C
  H154     1.0000 0.15950  0.73720  0.45630  Biso   1.000  H
  C193     1.0000 0.21480  0.67210  0.46853  Biso   1.000  C
  C194     1.0000 0.25080  0.63446  0.43555  Biso   1.000  C
  H155     1.0000 0.27310  0.60710  0.45460  Biso   1.000  H
  C195     1.0000 0.25309  0.63753  0.37842  Biso   1.000  C
  H156     1.0000 0.27720  0.61260  0.35810  Biso   1.000  H
  N40      1.0000 0.72039  0.17700  0.84917  Biso   1.000  N
  O40      1.0000 0.72360  0.17644  0.79086  Biso   1.000  O
  C196     1.0000 0.68330  0.21190  0.87570  Biso   1.000  C
  H157     1.0000 0.65880  0.23600  0.85500  Biso   1.000  H
  C197     1.0000 0.68260  0.21080  0.93682  Biso   1.000  C
  H158     1.0000 0.65950  0.23720  0.95630  Biso   1.000  H
  C198     1.0000 0.71480  0.17210  0.96853  Biso   1.000  C
  C199     1.0000 0.75080  0.13446  0.93555  Biso   1.000  C
  H159     1.0000 0.77310  0.10710  0.95460  Biso   1.000  H
  C200     1.0000 0.75309  0.13753  0.87842  Biso   1.000  C
  H160     1.0000 0.77720  0.11260  0.85810  Biso   1.000  H
  N41      1.0000 0.65083  0.77961  0.67700  Biso   1.000  N
  O41      1.0000 0.70914  0.77640  0.67644  Biso   1.000  O
  C201     1.0000 0.62430  0.81670  0.71190  Biso   1.000  C
  H161     1.0000 0.64500  0.84120  0.73600  Biso   1.000  H
  C202     1.0000 0.56318  0.81740  0.71080  Biso   1.000  C
  H162     1.0000 0.54370  0.84050  0.73720  Biso   1.000  H
  C203     1.0000 0.53147  0.78520  0.67210  Biso   1.000  C
  C204     1.0000 0.56445  0.74920  0.63446  Biso   1.000  C
  H163     1.0000 0.54540  0.72690  0.60710  Biso   1.000  H
  C205     1.0000 0.62158  0.74691  0.63753  Biso   1.000  C
  H164     1.0000 0.64190  0.72280  0.61260  Biso   1.000  H
  N42      1.0000 0.15083  0.27961  0.17700  Biso   1.000  N
  O42      1.0000 0.20914  0.27640  0.17644  Biso   1.000  O
  C206     1.0000 0.12430  0.31670  0.21190  Biso   1.000  C
  H165     1.0000 0.14500  0.34120  0.23600  Biso   1.000  H
  C207     1.0000 0.06318  0.31740  0.21080  Biso   1.000  C
  H166     1.0000 0.04370  0.34050  0.23720  Biso   1.000  H
  C208     1.0000 0.03147  0.28520  0.17210  Biso   1.000  C
  C209     1.0000 0.06445  0.24920  0.13446  Biso   1.000  C
  H167     1.0000 0.04540  0.22690  0.10710  Biso   1.000  H
  C210     1.0000 0.12158  0.24691  0.13753  Biso   1.000  C
  H168     1.0000 0.14190  0.22280  0.11260  Biso   1.000  H
  N43      1.0000 0.34917  0.77961  0.32300  Biso   1.000  N
  O43      1.0000 0.29086  0.77640  0.32356  Biso   1.000  O
  C211     1.0000 0.37570  0.81670  0.28810  Biso   1.000  C
  H169     1.0000 0.35500  0.84120  0.26400  Biso   1.000  H
  C212     1.0000 0.43682  0.81740  0.28920  Biso   1.000  C
  H170     1.0000 0.45630  0.84050  0.26280  Biso   1.000  H
  C213     1.0000 0.46853  0.78520  0.32790  Biso   1.000  C
  C214     1.0000 0.43555  0.74920  0.36554  Biso   1.000  C
  H171     1.0000 0.45460  0.72690  0.39290  Biso   1.000  H
  C215     1.0000 0.37842  0.74691  0.36247  Biso   1.000  C
  H172     1.0000 0.35810  0.72280  0.38740  Biso   1.000  H
  N44      1.0000 0.84917  0.27961  0.82300  Biso   1.000  N
  O44      1.0000 0.79086  0.27640  0.82356  Biso   1.000  O
  C216     1.0000 0.87570  0.31670  0.78810  Biso   1.000  C
  H173     1.0000 0.85500  0.34120  0.76400  Biso   1.000  H
  C217     1.0000 0.93682  0.31740  0.78920  Biso   1.000  C
  H174     1.0000 0.95630  0.34050  0.76280  Biso   1.000  H
  C218     1.0000 0.96853  0.28520  0.82790  Biso   1.000  C
  C219     1.0000 0.93555  0.24920  0.86554  Biso   1.000  C
  H175     1.0000 0.95460  0.22690  0.89290  Biso   1.000  H
  C220     1.0000 0.87842  0.24691  0.86247  Biso   1.000  C
  H176     1.0000 0.85810  0.22280  0.88740  Biso   1.000  H
  N45      1.0000 0.65083  0.22039  0.32300  Biso   1.000  N
  O45      1.0000 0.70914  0.22360  0.32356  Biso   1.000  O
  C221     1.0000 0.62430  0.18330  0.28810  Biso   1.000  C
  H177     1.0000 0.64500  0.15880  0.26400  Biso   1.000  H
  C222     1.0000 0.56318  0.18260  0.28920  Biso   1.000  C
  H178     1.0000 0.54370  0.15950  0.26280  Biso   1.000  H
  C223     1.0000 0.53147  0.21480  0.32790  Biso   1.000  C
  C224     1.0000 0.56445  0.25080  0.36554  Biso   1.000  C
  H179     1.0000 0.54540  0.27310  0.39290  Biso   1.000  H
  C225     1.0000 0.62158  0.25309  0.36247  Biso   1.000  C
  H180     1.0000 0.64190  0.27720  0.38740  Biso   1.000  H
  N46      1.0000 0.15083  0.72039  0.82300  Biso   1.000  N
  O46      1.0000 0.20914  0.72360  0.82356  Biso   1.000  O
  C226     1.0000 0.12430  0.68330  0.78810  Biso   1.000  C
  H181     1.0000 0.14500  0.65880  0.76400  Biso   1.000  H
  C227     1.0000 0.06318  0.68260  0.78920  Biso   1.000  C
  H182     1.0000 0.04370  0.65950  0.76280  Biso   1.000  H
  C228     1.0000 0.03147  0.71480  0.82790  Biso   1.000  C
  C229     1.0000 0.06445  0.75080  0.86554  Biso   1.000  C
  H183     1.0000 0.04540  0.77310  0.89290  Biso   1.000  H
  C230     1.0000 0.12158  0.75309  0.86247  Biso   1.000  C
  H184     1.0000 0.14190  0.77720  0.88740  Biso   1.000  H
  N47      1.0000 0.34917  0.22039  0.67700  Biso   1.000  N
  O47      1.0000 0.29086  0.22360  0.67644  Biso   1.000  O
  C231     1.0000 0.37570  0.18330  0.71190  Biso   1.000  C
  H185     1.0000 0.35500  0.15880  0.73600  Biso   1.000  H
  C232     1.0000 0.43682  0.18260  0.71080  Biso   1.000  C
  H186     1.0000 0.45630  0.15950  0.73720  Biso   1.000  H
  C233     1.0000 0.46853  0.21480  0.67210  Biso   1.000  C
  C234     1.0000 0.43555  0.25080  0.63446  Biso   1.000  C
  H187     1.0000 0.45460  0.27310  0.60710  Biso   1.000  H
  C235     1.0000 0.37842  0.25309  0.63753  Biso   1.000  C
  H188     1.0000 0.35810  0.27720  0.61260  Biso   1.000  H
  N48      1.0000 0.84917  0.72039  0.17700  Biso   1.000  N
  O48      1.0000 0.79086  0.72360  0.17644  Biso   1.000  O
  C236     1.0000 0.87570  0.68330  0.21190  Biso   1.000  C
  H189     1.0000 0.85500  0.65880  0.23600  Biso   1.000  H
  C237     1.0000 0.93682  0.68260  0.21080  Biso   1.000  C
  H190     1.0000 0.95630  0.65950  0.23720  Biso   1.000  H
  C238     1.0000 0.96853  0.71480  0.17210  Biso   1.000  C
  C239     1.0000 0.93555  0.75080  0.13446  Biso   1.000  C
  H191     1.0000 0.95460  0.77310  0.10710  Biso   1.000  H
  C240     1.0000 0.87842  0.75309  0.13753  Biso   1.000  C
  H192     1.0000 0.85810  0.77720  0.11260  Biso   1.000  H
  Co1      1.0000 0.25000  0.25000  0.25000  Biso   1.000  Co
  Co2      1.0000 0.75000  0.75000  0.25000  Biso   1.000  Co
  Co3      1.0000 0.75000  0.25000  0.75000  Biso   1.000  Co
  Co4      1.0000 0.25000  0.75000  0.75000  Biso   1.000  Co
  Co5      1.0000 0.75000  0.75000  0.75000  Biso   1.000  Co
  Co6      1.0000 0.25000  0.25000  0.75000  Biso   1.000  Co
  Co7      1.0000 0.25000  0.75000  0.25000  Biso   1.000  Co
  Co8      1.0000 0.75000  0.25000  0.25000  Biso   1.000  Co
