data_image0
_cell_length_a       10.1069
_cell_length_b       12.6649
_cell_length_c       13.0427
_cell_angle_alpha    70.7735
_cell_angle_beta     67.2038
_cell_angle_gamma    66.4835

_symmetry_space_group_name_H-M    P 1
_symmetry_int_tables_number       1

loop_
  _symmetry_equiv_pos_as_xyz
  'x, y, z'

loop_
  _atom_site_label
  _atom_site_occupancy
  _atom_site_fract_x
  _atom_site_fract_y
  _atom_site_fract_z
  _atom_site_thermal_displace_type
  _atom_site_B_iso_or_equiv
  _atom_site_type_symbol
  Co1      1.0000 0.97773  0.60122  0.88458  Biso   1.000  Co
  Co2      1.0000 0.18595  0.23856  0.33088  Biso   1.000  Co
  Co3      1.0000 0.46353  0.89878  0.61542  Biso   1.000  Co
  Co4      1.0000 0.75539  0.26144  0.16912  Biso   1.000  Co
  Co5      1.0000 0.02227  0.39878  0.11542  Biso   1.000  Co
  Co6      1.0000 0.81405  0.76144  0.66912  Biso   1.000  Co
  Co7      1.0000 0.53647  0.10122  0.38458  Biso   1.000  Co
  Co8      1.0000 0.24461  0.73856  0.83088  Biso   1.000  Co
  H1       1.0000 0.40110  0.34940  0.60840  Biso   1.000  H
  H2       1.0000 0.29450  0.46060  0.74560  Biso   1.000  H
  H3       1.0000 0.88730  0.47060  0.77700  Biso   1.000  H
  H4       1.0000 0.98020  0.36930  0.63270  Biso   1.000  H
  H5       1.0000 0.32800  0.75940  0.54800  Biso   1.000  H
  H6       1.0000 0.12600  0.90430  0.48570  Biso   1.000  H
  H7       1.0000 0.08610  0.97020  0.58420  Biso   1.000  H
  H8       1.0000 0.35890  0.15060  0.89160  Biso   1.000  H
  H9       1.0000 0.50070  0.03940  0.75440  Biso   1.000  H
  H10      1.0000 0.13490  0.02940  0.72300  Biso   1.000  H
  H11      1.0000 0.98220  0.13070  0.86730  Biso   1.000  H
  H12      1.0000 0.63540  0.74060  0.95200  Biso   1.000  H
  H13      1.0000 0.51600  0.59570  0.01430  Biso   1.000  H
  H14      1.0000 0.64050  0.52980  0.91580  Biso   1.000  H
  H15      1.0000 0.59890  0.65060  0.39160  Biso   1.000  H
  H16      1.0000 0.70550  0.53940  0.25440  Biso   1.000  H
  H17      1.0000 0.11270  0.52940  0.22300  Biso   1.000  H
  H18      1.0000 0.01980  0.63070  0.36730  Biso   1.000  H
  H19      1.0000 0.67200  0.24060  0.45200  Biso   1.000  H
  H20      1.0000 0.87400  0.09570  0.51430  Biso   1.000  H
  H21      1.0000 0.91390  0.02980  0.41580  Biso   1.000  H
  H22      1.0000 0.64110  0.84940  0.10840  Biso   1.000  H
  H23      1.0000 0.49930  0.96060  0.24560  Biso   1.000  H
  H24      1.0000 0.86510  0.97060  0.27700  Biso   1.000  H
  H25      1.0000 0.01780  0.86930  0.13270  Biso   1.000  H
  H26      1.0000 0.36460  0.25940  0.04800  Biso   1.000  H
  H27      1.0000 0.48400  0.40430  0.98570  Biso   1.000  H
  H28      1.0000 0.35950  0.47020  0.08420  Biso   1.000  H
  C1       1.0000 0.26610  0.28100  0.50940  Biso   1.000  C
  C2       1.0000 0.20300  0.34880  0.60240  Biso   1.000  C
  C3       1.0000 0.29440  0.37590  0.63990  Biso   1.000  C
  C4       1.0000 0.23000  0.44070  0.72310  Biso   1.000  C
  C5       1.0000 0.99300  0.44790  0.74030  Biso   1.000  C
  C6       1.0000 0.04730  0.38630  0.65510  Biso   1.000  C
  C7       1.0000 0.11680  0.74970  0.66370  Biso   1.000  C
  C8       1.0000 0.24210  0.80940  0.59980  Biso   1.000  C
  C9       1.0000 0.17040  0.92210  0.53130  Biso   1.000  C
  C10      1.0000 0.27300  0.99700  0.45020  Biso   1.000  C
  C11      1.0000 0.05650  0.21900  0.99060  Biso   1.000  C
  C12      1.0000 0.15420  0.15120  0.89760  Biso   1.000  C
  C13      1.0000 0.31020  0.12410  0.86010  Biso   1.000  C
  C14      1.0000 0.39380  0.05930  0.77690  Biso   1.000  C
  C15      1.0000 0.18120  0.05210  0.75970  Biso   1.000  C
  C16      1.0000 0.08870  0.11370  0.84490  Biso   1.000  C
  C17      1.0000 0.53020  0.75030  0.83630  Biso   1.000  C
  C18      1.0000 0.65130  0.69060  0.90020  Biso   1.000  C
  C19      1.0000 0.62380  0.57790  0.96870  Biso   1.000  C
  C20      1.0000 0.72020  0.50300  0.04980  Biso   1.000  C
  C21      1.0000 0.73390  0.71900  0.49060  Biso   1.000  C
  C22      1.0000 0.79700  0.65120  0.39760  Biso   1.000  C
  C23      1.0000 0.70560  0.62410  0.36010  Biso   1.000  C
  C24      1.0000 0.77000  0.55930  0.27690  Biso   1.000  C
  C25      1.0000 0.00700  0.55210  0.25970  Biso   1.000  C
  C26      1.0000 0.95270  0.61370  0.34490  Biso   1.000  C
  C27      1.0000 0.88320  0.25030  0.33630  Biso   1.000  C
  C28      1.0000 0.75790  0.19060  0.40020  Biso   1.000  C
  C29      1.0000 0.82960  0.07790  0.46870  Biso   1.000  C
  C30      1.0000 0.72700  0.00300  0.54980  Biso   1.000  C
  C31      1.0000 0.94350  0.78100  0.00940  Biso   1.000  C
  C32      1.0000 0.84580  0.84880  0.10240  Biso   1.000  C
  C33      1.0000 0.68980  0.87590  0.13990  Biso   1.000  C
  C34      1.0000 0.60620  0.94070  0.22310  Biso   1.000  C
  C35      1.0000 0.81880  0.94790  0.24030  Biso   1.000  C
  C36      1.0000 0.91130  0.88630  0.15510  Biso   1.000  C
  C37      1.0000 0.46980  0.24970  0.16370  Biso   1.000  C
  C38      1.0000 0.34870  0.30940  0.09980  Biso   1.000  C
  C39      1.0000 0.37620  0.42210  0.03130  Biso   1.000  C
  C40      1.0000 0.27980  0.49700  0.95020  Biso   1.000  C
  N1       1.0000 0.08000  0.47770  0.77430  Biso   1.000  N
  N2       1.0000 0.33200  0.02230  0.72570  Biso   1.000  N
  N3       1.0000 0.92000  0.52230  0.22570  Biso   1.000  N
  N4       1.0000 0.66800  0.97770  0.27430  Biso   1.000  N
  O1       1.0000 0.40421  0.22608  0.48530  Biso   1.000  O
  O2       1.0000 0.17120  0.28520  0.46600  Biso   1.000  O
  O3       1.0000 0.10524  0.70752  0.76600  Biso   1.000  O
  O4       1.0000 0.04460  0.73790  0.61130  Biso   1.000  O
  O5       1.0000 0.29538  0.82744  0.67660  Biso   1.000  O
  O6       1.0000 0.22360  0.06410  0.36970  Biso   1.000  O
  O7       1.0000 0.37861  0.00428  0.47730  Biso   1.000  O
  O8       1.0000 0.11559  0.27392  0.01470  Biso   1.000  O
  O9       1.0000 0.92240  0.21480  0.03400  Biso   1.000  O
  O10      1.0000 0.57876  0.79248  0.73400  Biso   1.000  O
  O11      1.0000 0.39380  0.76210  0.88870  Biso   1.000  O
  O12      1.0000 0.79942  0.67256  0.82340  Biso   1.000  O
  O13      1.0000 0.65740  0.43590  0.13030  Biso   1.000  O
  O14      1.0000 0.86019  0.49572  0.02270  Biso   1.000  O
  O15      1.0000 0.59579  0.77392  0.51470  Biso   1.000  O
  O16      1.0000 0.82880  0.71480  0.53400  Biso   1.000  O
  O17      1.0000 0.89476  0.29248  0.23400  Biso   1.000  O
  O18      1.0000 0.95540  0.26210  0.38870  Biso   1.000  O
  O19      1.0000 0.70462  0.17256  0.32340  Biso   1.000  O
  O20      1.0000 0.77640  0.93590  0.63030  Biso   1.000  O
  O21      1.0000 0.62139  0.99572  0.52270  Biso   1.000  O
  O22      1.0000 0.88441  0.72608  0.98530  Biso   1.000  O
  O23      1.0000 0.07760  0.78520  0.96600  Biso   1.000  O
  O24      1.0000 0.42124  0.20752  0.26600  Biso   1.000  O
  O25      1.0000 0.60620  0.23790  0.11130  Biso   1.000  O
  O26      1.0000 0.20058  0.32744  0.17660  Biso   1.000  O
  O27      1.0000 0.34260  0.56410  0.86970  Biso   1.000  O
  O28      1.0000 0.13981  0.50428  0.97730  Biso   1.000  O
