data_image0
_cell_length_a       10.104
_cell_length_b       12.8282
_cell_length_c       13.0415
_cell_angle_alpha    71.1983
_cell_angle_beta     67.2084
_cell_angle_gamma    66.8076

_symmetry_space_group_name_H-M    P 1
_symmetry_int_tables_number       1

loop_
  _symmetry_equiv_pos_as_xyz
  'x, y, z'

loop_
  _atom_site_label
  _atom_site_occupancy
  _atom_site_fract_x
  _atom_site_fract_y
  _atom_site_fract_z
  _atom_site_thermal_displace_type
  _atom_site_B_iso_or_equiv
  _atom_site_type_symbol
  Co1      1.0000 0.96756  0.61481  0.89725  Biso   1.000  Co
  Co2      1.0000 0.24910  0.16662  0.26526  Biso   1.000  Co
  Co3      1.0000 0.47962  0.88519  0.60275  Biso   1.000  Co
  Co4      1.0000 0.68098  0.33338  0.23474  Biso   1.000  Co
  Co5      1.0000 0.03244  0.38519  0.10275  Biso   1.000  Co
  Co6      1.0000 0.75090  0.83338  0.73474  Biso   1.000  Co
  Co7      1.0000 0.52038  0.11481  0.39725  Biso   1.000  Co
  Co8      1.0000 0.31902  0.66662  0.76526  Biso   1.000  Co
  H1       1.0000 0.85180  0.88250  0.15970  Biso   1.000  H
  H2       1.0000 0.99520  0.74600  0.05040  Biso   1.000  H
  H3       1.0000 0.63790  0.73790  0.01070  Biso   1.000  H
  H4       1.0000 0.48680  0.87610  0.11610  Biso   1.000  H
  H5       1.0000 0.13700  0.95690  0.73770  Biso   1.000  H
  H6       1.0000 0.13880  0.91230  0.53870  Biso   1.000  H
  H7       1.0000 0.02060  0.01590  0.59510  Biso   1.000  H
  H8       1.0000 0.89400  0.61750  0.34030  Biso   1.000  H
  H9       1.0000 0.79160  0.75400  0.44960  Biso   1.000  H
  H10      1.0000 0.38650  0.76210  0.48930  Biso   1.000  H
  H11      1.0000 0.47900  0.62390  0.38390  Biso   1.000  H
  H12      1.0000 0.83160  0.54310  0.76230  Biso   1.000  H
  H13      1.0000 0.58980  0.58770  0.96130  Biso   1.000  H
  H14      1.0000 0.63160  0.48410  0.90490  Biso   1.000  H
  H15      1.0000 0.14820  0.11750  0.84030  Biso   1.000  H
  H16      1.0000 0.00480  0.25400  0.94960  Biso   1.000  H
  H17      1.0000 0.36210  0.26210  0.98930  Biso   1.000  H
  H18      1.0000 0.51320  0.12390  0.88390  Biso   1.000  H
  H19      1.0000 0.86300  0.04310  0.26230  Biso   1.000  H
  H20      1.0000 0.86120  0.08770  0.46130  Biso   1.000  H
  H21      1.0000 0.97940  0.98410  0.40490  Biso   1.000  H
  H22      1.0000 0.10600  0.38250  0.65970  Biso   1.000  H
  H23      1.0000 0.20840  0.24600  0.55040  Biso   1.000  H
  H24      1.0000 0.61350  0.23790  0.51070  Biso   1.000  H
  H25      1.0000 0.52100  0.37610  0.61610  Biso   1.000  H
  H26      1.0000 0.16840  0.45690  0.23770  Biso   1.000  H
  H27      1.0000 0.41020  0.41230  0.03870  Biso   1.000  H
  H28      1.0000 0.36840  0.51590  0.09510  Biso   1.000  H
  C1       1.0000 0.55220  0.98690  0.22190  Biso   1.000  C
  C2       1.0000 0.65310  0.89530  0.15050  Biso   1.000  C
  C3       1.0000 0.80560  0.85480  0.12940  Biso   1.000  C
  C4       1.0000 0.89140  0.77250  0.06330  Biso   1.000  C
  C5       1.0000 0.68230  0.76840  0.03980  Biso   1.000  C
  C6       1.0000 0.59040  0.85060  0.10400  Biso   1.000  C
  C7       1.0000 0.03420  0.83800  0.75240  Biso   1.000  C
  C8       1.0000 0.15280  0.90240  0.69280  Biso   1.000  C
  C9       1.0000 0.12550  0.96820  0.58000  Biso   1.000  C
  C10      1.0000 0.22110  0.04530  0.50230  Biso   1.000  C
  C11      1.0000 0.76100  0.51310  0.27810  Biso   1.000  C
  C12      1.0000 0.69890  0.60470  0.34950  Biso   1.000  C
  C13      1.0000 0.78980  0.64520  0.37060  Biso   1.000  C
  C14      1.0000 0.72720  0.72750  0.43670  Biso   1.000  C
  C15      1.0000 0.49050  0.73160  0.46020  Biso   1.000  C
  C16      1.0000 0.54500  0.64940  0.39600  Biso   1.000  C
  C17      1.0000 0.62460  0.66200  0.74760  Biso   1.000  C
  C18      1.0000 0.74800  0.59760  0.80720  Biso   1.000  C
  C19      1.0000 0.67370  0.53180  0.92000  Biso   1.000  C
  C20      1.0000 0.76870  0.45470  0.99770  Biso   1.000  C
  C21      1.0000 0.44780  0.01310  0.77810  Biso   1.000  C
  C22      1.0000 0.34690  0.10470  0.84950  Biso   1.000  C
  C23      1.0000 0.19440  0.14520  0.87060  Biso   1.000  C
  C24      1.0000 0.10860  0.22750  0.93670  Biso   1.000  C
  C25      1.0000 0.31770  0.23160  0.96020  Biso   1.000  C
  C26      1.0000 0.40960  0.14940  0.89600  Biso   1.000  C
  C27      1.0000 0.96580  0.16200  0.24760  Biso   1.000  C
  C28      1.0000 0.84720  0.09760  0.30720  Biso   1.000  C
  C29      1.0000 0.87450  0.03180  0.42000  Biso   1.000  C
  C30      1.0000 0.77890  0.95470  0.49770  Biso   1.000  C
  C31      1.0000 0.23900  0.48690  0.72190  Biso   1.000  C
  C32      1.0000 0.30110  0.39530  0.65050  Biso   1.000  C
  C33      1.0000 0.21020  0.35480  0.62940  Biso   1.000  C
  C34      1.0000 0.27280  0.27250  0.56330  Biso   1.000  C
  C35      1.0000 0.50950  0.26840  0.53980  Biso   1.000  C
  C36      1.0000 0.45500  0.35060  0.60400  Biso   1.000  C
  C37      1.0000 0.37540  0.33800  0.25240  Biso   1.000  C
  C38      1.0000 0.25200  0.40240  0.19280  Biso   1.000  C
  C39      1.0000 0.32630  0.46820  0.08000  Biso   1.000  C
  C40      1.0000 0.23130  0.54530  0.00230  Biso   1.000  C
  N1       1.0000 0.83280  0.72920  0.01660  Biso   1.000  N
  N2       1.0000 0.57860  0.77080  0.48340  Biso   1.000  N
  N3       1.0000 0.16720  0.27080  0.98340  Biso   1.000  N
  N4       1.0000 0.42140  0.22920  0.51660  Biso   1.000  N
  O1       1.0000 0.60995  0.00690  0.27960  Biso   1.000  O
  O2       1.0000 0.42040  0.03210  0.21590  Biso   1.000  O
  O3       1.0000 0.08240  0.73430  0.79630  Biso   1.000  O
  O4       1.0000 0.89930  0.89200  0.75880  Biso   1.000  O
  O5       1.0000 0.30140  0.82340  0.67740  Biso   1.000  O
  O6       1.0000 0.35823  0.02244  0.49870  Biso   1.000  O
  O7       1.0000 0.16030  0.12140  0.43300  Biso   1.000  O
  O8       1.0000 0.89645  0.49310  0.22040  Biso   1.000  O
  O9       1.0000 0.66840  0.46790  0.28410  Biso   1.000  O
  O10      1.0000 0.61300  0.76570  0.70370  Biso   1.000  O
  O11      1.0000 0.55010  0.60800  0.74120  Biso   1.000  O
  O12      1.0000 0.80220  0.67660  0.82260  Biso   1.000  O
  O13      1.0000 0.87937  0.47756  0.00130  Biso   1.000  O
  O14      1.0000 0.71470  0.37860  0.06700  Biso   1.000  O
  O15      1.0000 0.39005  0.99310  0.72040  Biso   1.000  O
  O16      1.0000 0.57960  0.96790  0.78410  Biso   1.000  O
  O17      1.0000 0.91760  0.26570  0.20370  Biso   1.000  O
  O18      1.0000 0.10070  0.10800  0.24120  Biso   1.000  O
  O19      1.0000 0.69860  0.17660  0.32260  Biso   1.000  O
  O20      1.0000 0.64177  0.97756  0.50130  Biso   1.000  O
  O21      1.0000 0.83970  0.87860  0.56700  Biso   1.000  O
  O22      1.0000 0.10355  0.50690  0.77960  Biso   1.000  O
  O23      1.0000 0.33160  0.53210  0.71590  Biso   1.000  O
  O24      1.0000 0.38700  0.23430  0.29630  Biso   1.000  O
  O25      1.0000 0.44990  0.39200  0.25880  Biso   1.000  O
  O26      1.0000 0.19780  0.32340  0.17740  Biso   1.000  O
  O27      1.0000 0.12063  0.52244  0.99870  Biso   1.000  O
  O28      1.0000 0.28530  0.62140  0.93300  Biso   1.000  O
