data_image0
_cell_length_a       7.4022
_cell_length_b       11.0853
_cell_length_c       19.2932
_cell_angle_alpha    90
_cell_angle_beta     90
_cell_angle_gamma    90

_symmetry_space_group_name_H-M    "P 1"
_symmetry_int_tables_number       1

loop_
  _symmetry_equiv_pos_as_xyz
  'x, y, z'

loop_
  _atom_site_label
  _atom_site_occupancy
  _atom_site_fract_x
  _atom_site_fract_y
  _atom_site_fract_z
  _atom_site_thermal_displace_type
  _atom_site_B_iso_or_equiv
  _atom_site_type_symbol
  N1       1.0000 0.15980  0.06700  0.84010  Biso   1.000  N
  N2       1.0000 0.84500  0.93110  0.98770  Biso   1.000  N
  C1       1.0000 0.10400  0.12480  0.78430  Biso   1.000  C
  H1       1.0000 0.98370  0.13680  0.77210  Biso   1.000  H
  C2       1.0000 0.89060  0.86920  0.04400  Biso   1.000  C
  H2       1.0000 0.01000  0.85380  0.05620  Biso   1.000  H
  N3       1.0000 0.65980  0.56700  0.34010  Biso   1.000  N
  N4       1.0000 0.34500  0.43110  0.48770  Biso   1.000  N
  C3       1.0000 0.60400  0.62480  0.28430  Biso   1.000  C
  H3       1.0000 0.48370  0.63680  0.27210  Biso   1.000  H
  C4       1.0000 0.39060  0.36920  0.54400  Biso   1.000  C
  H4       1.0000 0.51000  0.35380  0.55620  Biso   1.000  H
  N5       1.0000 0.84020  0.93300  0.84010  Biso   1.000  N
  N6       1.0000 0.15500  0.06890  0.98770  Biso   1.000  N
  C5       1.0000 0.89600  0.87520  0.78430  Biso   1.000  C
  H5       1.0000 0.01630  0.86320  0.77210  Biso   1.000  H
  C6       1.0000 0.10940  0.13080  0.04400  Biso   1.000  C
  H6       1.0000 0.99000  0.14620  0.05620  Biso   1.000  H
  N7       1.0000 0.34020  0.43300  0.34010  Biso   1.000  N
  N8       1.0000 0.65500  0.56890  0.48770  Biso   1.000  N
  C7       1.0000 0.39600  0.37520  0.28430  Biso   1.000  C
  H7       1.0000 0.51630  0.36320  0.27210  Biso   1.000  H
  C8       1.0000 0.60940  0.63080  0.54400  Biso   1.000  C
  H8       1.0000 0.49000  0.64620  0.55620  Biso   1.000  H
  N9       1.0000 0.65980  0.93300  0.84010  Biso   1.000  N
  N10      1.0000 0.34500  0.06890  0.98770  Biso   1.000  N
  C9       1.0000 0.60400  0.87520  0.78430  Biso   1.000  C
  H9       1.0000 0.48370  0.86320  0.77210  Biso   1.000  H
  C10      1.0000 0.39060  0.13080  0.04400  Biso   1.000  C
  H10      1.0000 0.51000  0.14620  0.05620  Biso   1.000  H
  N11      1.0000 0.15980  0.43300  0.34010  Biso   1.000  N
  N12      1.0000 0.84500  0.56890  0.48770  Biso   1.000  N
  C11      1.0000 0.10400  0.37520  0.28430  Biso   1.000  C
  H11      1.0000 0.98370  0.36320  0.27210  Biso   1.000  H
  C12      1.0000 0.89060  0.63080  0.54400  Biso   1.000  C
  H12      1.0000 0.01000  0.64620  0.55620  Biso   1.000  H
  N13      1.0000 0.34020  0.06700  0.84010  Biso   1.000  N
  N14      1.0000 0.65500  0.93110  0.98770  Biso   1.000  N
  C13      1.0000 0.39600  0.12480  0.78430  Biso   1.000  C
  H13      1.0000 0.51630  0.13680  0.77210  Biso   1.000  H
  C14      1.0000 0.60940  0.86920  0.04400  Biso   1.000  C
  H14      1.0000 0.49000  0.85380  0.05620  Biso   1.000  H
  N15      1.0000 0.84020  0.56700  0.34010  Biso   1.000  N
  N16      1.0000 0.15500  0.43110  0.48770  Biso   1.000  N
  C15      1.0000 0.89600  0.62480  0.28430  Biso   1.000  C
  H15      1.0000 0.01630  0.63680  0.27210  Biso   1.000  H
  C16      1.0000 0.10940  0.36920  0.54400  Biso   1.000  C
  H16      1.0000 0.99000  0.35380  0.55620  Biso   1.000  H
  Cu1      1.0000 0.00000  0.00000  0.91473  Biso   1.000  Cu
  Cu2      1.0000 0.50000  0.50000  0.41473  Biso   1.000  Cu
  Cu3      1.0000 0.50000  0.00000  0.91473  Biso   1.000  Cu
  Cu4      1.0000 0.00000  0.50000  0.41473  Biso   1.000  Cu
  Cu5      1.0000 0.25000  0.24450  0.66273  Biso   1.000  Cu
  N17      1.0000 0.25000  0.16460  0.74700  Biso   1.000  N
  N18      1.0000 0.25000  0.33070  0.58170  Biso   1.000  N
  Cu6      1.0000 0.75000  0.74450  0.16273  Biso   1.000  Cu
  N19      1.0000 0.75000  0.66460  0.24700  Biso   1.000  N
  N20      1.0000 0.75000  0.83070  0.08170  Biso   1.000  N
  Cu7      1.0000 0.75000  0.75550  0.66273  Biso   1.000  Cu
  N21      1.0000 0.75000  0.83540  0.74700  Biso   1.000  N
  N22      1.0000 0.75000  0.66930  0.58170  Biso   1.000  N
  Cu8      1.0000 0.25000  0.25550  0.16273  Biso   1.000  Cu
  N23      1.0000 0.25000  0.33540  0.24700  Biso   1.000  N
  N24      1.0000 0.25000  0.16930  0.08170  Biso   1.000  N
