data_LETQAE01_ion_b
_audit_creation_date              2014-07-02
_audit_creation_method            'Materials Studio'
_symmetry_space_group_name_H-M    'CMCA'
_symmetry_Int_Tables_number       64
_symmetry_cell_setting            orthorhombic
loop_
_symmetry_equiv_pos_as_xyz
  x,y,z
  -x,-y+1/2,z+1/2
  -x,y+1/2,-z+1/2
  x,-y,-z
  -x,-y,-z
  x,y+1/2,-z+1/2
  x,-y+1/2,z+1/2
  -x,y,z
  x+1/2,y+1/2,z
  -x+1/2,-y,z+1/2
  -x+1/2,y,-z+1/2
  x+1/2,-y+1/2,-z
  -x+1/2,-y+1/2,-z
  x+1/2,y,-z+1/2
  x+1/2,-y,z+1/2
  -x+1/2,y+1/2,z
_cell_length_a                    48.5610
_cell_length_b                    66.3400
_cell_length_c                    10.0376
_cell_angle_alpha                 90.0000
_cell_angle_beta                  90.0000
_cell_angle_gamma                 90.0000
loop_
_atom_site_label
_atom_site_type_symbol
_atom_site_fract_x
_atom_site_fract_y
_atom_site_fract_z
_atom_site_U_iso_or_equiv
_atom_site_adp_type
_atom_site_occupancy
Zn1    Zn    0.23525   0.09093   1.43139   0.00000  Uiso   1.00
Zn2    Zn    0.06307   0.01404   1.32851   0.00000  Uiso   1.00
Zn3    Zn    0.23064   0.13721   0.92292   0.00000  Uiso   1.00
Zn4    Zn    0.12618  -0.00958   1.18091   0.00000  Uiso   1.00
P5     P     0.19080  -0.00366   1.22110   0.00000  Uiso   1.00
P6     P     0.24243   0.04361   1.47449   0.00000  Uiso   1.00
P7     P     0.10206   0.03054   1.09549   0.00000  Uiso   1.00
P8     P     0.20855   0.10735   1.15093   0.00000  Uiso   1.00
P9     P     0.21190   0.12136   0.63686   0.00000  Uiso   1.00
P10    P     0.21155   0.18254   1.00918   0.00000  Uiso   1.00
P11    P     0.08587  -0.02799   1.38873   0.00000  Uiso   1.00
O12    O     0.21452  -0.02076   1.18666   0.00000  Uiso   1.00
O13    O     0.16379  -0.01796   1.18461   0.00000  Uiso   1.00
O14    O     0.18992  -0.00768   1.38201   0.00000  Uiso   1.00
O15    O     0.21894   0.02631   1.44156   0.00000  Uiso   1.00
O16    O     0.26176  -0.04348   1.13654   0.00000  Uiso   1.00
O17    O     0.22266   0.06356   1.44435   0.00000  Uiso   1.00
O18    O     0.12763   0.01665   1.14236   0.00000  Uiso   1.00
O19    O     0.07761   0.01578   1.15361   0.00000  Uiso   1.00
O20    O     0.10170  -0.02189   1.05788   0.00000  Uiso   1.00
O21    O     0.22835   0.12574   1.09645   0.00000  Uiso   1.00
O22    O     0.21805   0.10850   1.30782   0.00000  Uiso   1.00
O23    O     0.27070   0.08907   1.38542   0.00000  Uiso   1.00
O24    O     0.23365   0.10351   0.59700   0.00000  Uiso   1.00
O25    O     0.21635   0.11943   0.79808   0.00000  Uiso   1.00
O26    O     0.26652   0.13981   0.88236   0.00000  Uiso   1.00
O27    O     0.24251   0.18125   1.06935   0.00000  Uiso   1.00
O28    O     0.21525   0.16351   0.90489   0.00000  Uiso   1.00
O29    O     0.11020  -0.01198   1.34925   0.00000  Uiso   1.00
O30    O     0.08823   0.02471   1.44977   0.00000  Uiso   1.00
O31    O     0.06039  -0.01238   1.36887   0.00000  Uiso   1.00
O32    O     0.02679   0.02507   1.35006   0.00000  Uiso   1.00
O33    O     0.02715  -0.01910   1.02281   0.00000  Uiso   1.00
O34    O     0.22464   0.16128   1.28549   0.00000  Uiso   1.00
O35    O     0.22410   0.20115   1.27269   0.00000  Uiso   1.00
F36    F     0.25945  -0.00661   1.12365   0.00000  Uiso   1.00
Zn37   Zn    0.23246   0.22742   0.92074   0.00000  Uiso   1.00
P38    P    -0.20976  -0.25624   0.85668   0.00000  Uiso   1.00
O39    O     0.21800   0.20073   0.90128   0.00000  Uiso   1.00
O40    O     0.26866   0.22554   0.88487   0.00000  Uiso   1.00
O41    O     0.21766   0.24596   0.80105   0.00000  Uiso   1.00
O42    O     0.22971   0.23788   1.09280   0.00000  Uiso   1.00
N43    N     0.29851  -0.07345   1.32626   0.00000  Uiso   1.00
C44    C     0.32625  -0.06648   1.35821   0.00000  Uiso   1.00
C45    C     0.34732  -0.08363   1.34892   0.00000  Uiso   1.00
C46    C     0.37604  -0.07576   1.38553   0.00000  Uiso   1.00
C47    C     0.39840  -0.09148   1.36158   0.00000  Uiso   1.00
H48    H     0.02669  -0.02432   1.11513   0.00000  Uiso   1.00
H49    H     0.20562   0.16639   1.27395   0.00000  Uiso   1.00
H50    H     0.21425   0.19873   1.35768   0.00000  Uiso   1.00
H51    H     0.28469  -0.06179   1.34507   0.00000  Uiso   1.00
H52    H     0.29318  -0.08565   1.38609   0.00000  Uiso   1.00
H53    H     0.32630  -0.06000   1.46038   0.00000  Uiso   1.00
H54    H     0.33200  -0.05455   1.28621   0.00000  Uiso   1.00
H55    H     0.34739  -0.08972   1.24580   0.00000  Uiso   1.00
H56    H     0.34141  -0.09597   1.41839   0.00000  Uiso   1.00
H57    H     0.37625  -0.07136   1.49241   0.00000  Uiso   1.00
H58    H     0.38094  -0.06221   1.32494   0.00000  Uiso   1.00
H59    H     0.41868  -0.08499   1.38944   0.00000  Uiso   1.00
H60    H     0.39904  -0.09578   1.25477   0.00000  Uiso   1.00
H61    H     0.39464  -0.10509   1.42343   0.00000  Uiso   1.00
H62    H     0.79734   0.57739   0.77423   0.00000  Uiso   1.00
Ga63   Ga    0.25000  -0.02382   1.25000   0.00000  Uiso   1.00
Zn64   Zn    0.25000   0.18124   1.25000   0.00000  Uiso   1.00
Ga65   Ga    0.21631   0.00000   0.50000   0.00000  Uiso   1.00
Zn66   Zn    0.00000   0.00000   1.00000   0.00000  Uiso   1.00
P67    P     0.00000   0.02689   1.24903   0.00000  Uiso   1.00
O68    O     0.00000   0.00475   1.18089   0.00000  Uiso   1.00
H69    H     0.00000   0.04395   1.15886   0.00000  Uiso   1.00
loop_
_geom_bond_atom_site_label_1
_geom_bond_atom_site_label_2
_geom_bond_distance
_geom_bond_site_symmetry_2
_ccdc_geom_bond_type
Zn1    O17     1.920   .     S
Zn1    O22     1.896   .     S
Zn1    O23     1.787   .     S
Zn1    O24     1.862   1_556 S
Zn2    O19     1.896   .     S
Zn2    O30     1.864   .     S
Zn2    O31     1.804   .     S
Zn2    O32     1.920   .     S
Zn3    O21     1.904   .     S
Zn3    O25     1.856   .     S
Zn3    O26     1.798   .     S
Zn3    O28     1.907   .     S
Zn4    O13     1.909   .     S
Zn4    O18     1.784   .     S
Zn4    O20     1.899   .     S
Zn4    O29     1.866   .     S
P5     O12     1.653   .     S
P5     O13     1.660   .     S
P5     O14     1.638   .     D
P6     O15     1.652   .     S
P6     O17     1.663   .     S
P6     O16     1.639   10    S
P7     O18     1.616   .     S
P7     O19     1.646   .     S
P7     O20     1.643   4_557 S
P8     O21     1.647   .     S
P8     O22     1.643   .     S
P8     O23     1.618   11_557 S
P9     O24     1.636   .     S
P9     O25     1.638   .     S
P9     O26     1.623   11_556 S
P10    O27     1.622   .     D
P10    O28     1.650   .     S
P10    O39     1.651   .     D
P11    O29     1.637   .     S
P11    O31     1.626   .     S
P11    O30     1.640   4_558 S
O12    Ga63    1.848   .     S
O14    Ga65    1.818   1_556 S
O15    Ga65    1.846   1_556 S
O16    Ga63    1.823   .     S
O16    P6      1.639   10_554 S
O20    P7      1.643   4_557 S
O23    P8      1.618   11_557 S
O24    Zn1     1.862   1_554 S
O26    P9      1.623   11_556 S
O27    Zn64    1.849   .     S
O30    P11     1.640   4_558 S
O32    P67     1.654   .     S
O33    Zn66    1.843   .     S
O33    H48     0.990   .     S
O34    Zn64    1.843   .     S
O34    H49     0.991   .     S
O35    Zn64    1.838   .     S
O35    H50     0.991   .     S
F36    Ga63    1.767   .     S
F36    Ga65    1.766   10    S
Zn37   O39     1.915   .     S
Zn37   O40     1.799   .     S
Zn37   O41     1.864   .     S
Zn37   O42     1.866   .     S
P38    O40     1.625   9_445 S
P38    O41     1.636   3_546 S
P38    O42     1.637   5_557 D
O40    P38     1.625   9     S
O41    P38     1.636   3_556 S
O42    P38     1.637   5_557 D
N43    C44     1.460   .     S
N43    H51     1.041   .     S
N43    H52     1.041   .     S
N43    H62     1.044   12_457 S
C44    C45     1.533   .     S
C44    H53     1.112   .     S
C44    H54     1.108   .     S
C45    C46     1.534   .     S
C45    H55     1.111   .     S
C45    H56     1.113   .     S
C46    C47     1.525   .     S
C46    H57     1.112   .     S
C46    H58     1.111   .     S
C47    H59     1.111   .     S
C47    H60     1.110   .     S
C47    H61     1.111   .     S
H62    N43     1.044   12_557 S
Ga63   O12     1.848   11_557 S
Ga63   O16     1.823   11_557 S
Ga63   F36     1.767   11_557 S
Zn64   O27     1.849   11_557 S
Zn64   O34     1.843   11_557 S
Zn64   O35     1.838   11_557 S
Ga65   O14     1.818   1_554 S
Ga65   O14     1.818   4_557 S
Ga65   O15     1.846   1_554 S
Ga65   O15     1.846   4_557 S
Ga65   F36     1.766   10_554 S
Ga65   F36     1.766   11_556 S
Zn66   O33     1.843   4_557 S
Zn66   O33     1.843   5_557 S
Zn66   O33     1.843   8     S
Zn66   O68     1.843   .     S
Zn66   O68     1.843   4_557 S
P67    O32     1.654   8     S
P67    O68     1.620   .     D
P67    H69     1.449   .     S
