data_image0
_cell_length_a       8.01733
_cell_length_b       15.5052
_cell_length_c       18.3232
_cell_angle_alpha    74.6311
_cell_angle_beta     77.3629
_cell_angle_gamma    75.0168

_symmetry_space_group_name_H-M    P 1
_symmetry_int_tables_number       1

loop_
  _symmetry_equiv_pos_as_xyz
  'x, y, z'

loop_
  _atom_site_label
  _atom_site_occupancy
  _atom_site_fract_x
  _atom_site_fract_y
  _atom_site_fract_z
  _atom_site_thermal_displace_type
  _atom_site_B_iso_or_equiv
  _atom_site_type_symbol
  Co1      1.0000 0.14522  0.87324  0.89760  Biso   1.000  Co
  Co2      1.0000 0.82203  0.97806  0.99354  Biso   1.000  Co
  Co3      1.0000 0.88274  0.74885  0.98683  Biso   1.000  Co
  Co4      1.0000 0.91606  0.62676  0.60240  Biso   1.000  Co
  Co5      1.0000 0.79363  0.52194  0.50646  Biso   1.000  Co
  Co6      1.0000 0.61842  0.75115  0.51317  Biso   1.000  Co
  Co7      1.0000 0.85478  0.12676  0.10240  Biso   1.000  Co
  Co8      1.0000 0.17797  0.02194  0.00646  Biso   1.000  Co
  Co9      1.0000 0.11726  0.25115  0.01317  Biso   1.000  Co
  Co10     1.0000 0.08394  0.37324  0.39760  Biso   1.000  Co
  Co11     1.0000 0.20637  0.47806  0.49354  Biso   1.000  Co
  Co12     1.0000 0.38158  0.24885  0.48683  Biso   1.000  Co
  H1       1.0000 0.04240  0.82180  0.04760  Biso   1.000  H
  H2       1.0000 0.04520  0.05500  0.87860  Biso   1.000  H
  H3       1.0000 0.28190  0.97610  0.77670  Biso   1.000  H
  H4       1.0000 0.50190  0.72500  0.86580  Biso   1.000  H
  H5       1.0000 0.67190  0.69160  0.89500  Biso   1.000  H
  H6       1.0000 0.51470  0.94400  0.08520  Biso   1.000  H
  H7       1.0000 0.64260  0.85840  0.10020  Biso   1.000  H
  H8       1.0000 0.59590  0.32510  0.24930  Biso   1.000  H
  H9       1.0000 0.88880  0.48940  0.09940  Biso   1.000  H
  H10      1.0000 0.56510  0.57630  0.27890  Biso   1.000  H
  H11      1.0000 0.12810  0.86400  0.73500  Biso   1.000  H
  H12      1.0000 0.15490  0.95900  0.68260  Biso   1.000  H
  H13      1.0000 0.31630  0.87700  0.69440  Biso   1.000  H
  H14      1.0000 0.91180  0.67820  0.45240  Biso   1.000  H
  H15      1.0000 0.97880  0.44500  0.62140  Biso   1.000  H
  H16      1.0000 0.03470  0.52390  0.72330  Biso   1.000  H
  H17      1.0000 0.09270  0.77500  0.63420  Biso   1.000  H
  H18      1.0000 0.25850  0.80840  0.60500  Biso   1.000  H
  H19      1.0000 0.54390  0.55600  0.41480  Biso   1.000  H
  H20      1.0000 0.60120  0.64160  0.39980  Biso   1.000  H
  H21      1.0000 0.17030  0.17490  0.25070  Biso   1.000  H
  H22      1.0000 0.47760  0.01060  0.40060  Biso   1.000  H
  H23      1.0000 0.42030  0.92370  0.22110  Biso   1.000  H
  H24      1.0000 0.72710  0.63600  0.76500  Biso   1.000  H
  H25      1.0000 0.79650  0.54100  0.81740  Biso   1.000  H
  H26      1.0000 0.88770  0.62300  0.80560  Biso   1.000  H
  H27      1.0000 0.95760  0.17820  0.95240  Biso   1.000  H
  H28      1.0000 0.95480  0.94500  0.12140  Biso   1.000  H
  H29      1.0000 0.71810  0.02390  0.22330  Biso   1.000  H
  H30      1.0000 0.49810  0.27500  0.13420  Biso   1.000  H
  H31      1.0000 0.32810  0.30840  0.10500  Biso   1.000  H
  H32      1.0000 0.48530  0.05600  0.91480  Biso   1.000  H
  H33      1.0000 0.35740  0.14160  0.89980  Biso   1.000  H
  H34      1.0000 0.40410  0.67490  0.75070  Biso   1.000  H
  H35      1.0000 0.11120  0.51060  0.90060  Biso   1.000  H
  H36      1.0000 0.43490  0.42370  0.72110  Biso   1.000  H
  H37      1.0000 0.87190  0.13600  0.26500  Biso   1.000  H
  H38      1.0000 0.84510  0.04100  0.31740  Biso   1.000  H
  H39      1.0000 0.68370  0.12300  0.30560  Biso   1.000  H
  H40      1.0000 0.08820  0.32180  0.54760  Biso   1.000  H
  H41      1.0000 0.02120  0.55500  0.37860  Biso   1.000  H
  H42      1.0000 0.96530  0.47610  0.27670  Biso   1.000  H
  H43      1.0000 0.90730  0.22500  0.36580  Biso   1.000  H
  H44      1.0000 0.74150  0.19160  0.39500  Biso   1.000  H
  H45      1.0000 0.45610  0.44400  0.58520  Biso   1.000  H
  H46      1.0000 0.39880  0.35840  0.60020  Biso   1.000  H
  H47      1.0000 0.82970  0.82510  0.74930  Biso   1.000  H
  H48      1.0000 0.52240  0.98940  0.59940  Biso   1.000  H
  H49      1.0000 0.57970  0.07630  0.77890  Biso   1.000  H
  H50      1.0000 0.27290  0.36400  0.23500  Biso   1.000  H
  H51      1.0000 0.20350  0.45900  0.18260  Biso   1.000  H
  H52      1.0000 0.11230  0.37700  0.19440  Biso   1.000  H
  C1       1.0000 0.51948  0.79054  0.93970  Biso   1.000  C
  C2       1.0000 0.52887  0.86856  0.01710  Biso   1.000  C
  C3       1.0000 0.56048  0.44824  0.27560  Biso   1.000  C
  C4       1.0000 0.63136  0.38058  0.23350  Biso   1.000  C
  C5       1.0000 0.75529  0.39622  0.16780  Biso   1.000  C
  C6       1.0000 0.80667  0.47886  0.14340  Biso   1.000  C
  C7       1.0000 0.73460  0.54620  0.18520  Biso   1.000  C
  C8       1.0000 0.61216  0.53088  0.25120  Biso   1.000  C
  C9       1.0000 0.42881  0.43118  0.34700  Biso   1.000  C
  C10      1.0000 0.84076  0.32228  0.12420  Biso   1.000  C
  C11      1.0000 0.20490  0.90630  0.71850  Biso   1.000  C
  C12      1.0000 0.24972  0.70946  0.56030  Biso   1.000  C
  C13      1.0000 0.41453  0.63144  0.48290  Biso   1.000  C
  C14      1.0000 0.28432  0.05176  0.22440  Biso   1.000  C
  C15      1.0000 0.24544  0.11942  0.26650  Biso   1.000  C
  C16      1.0000 0.31931  0.10378  0.33220  Biso   1.000  C
  C17      1.0000 0.42893  0.02114  0.35660  Biso   1.000  C
  C18      1.0000 0.46600  0.95380  0.31480  Biso   1.000  C
  C19      1.0000 0.39424  0.96912  0.24880  Biso   1.000  C
  C20      1.0000 0.20699  0.06882  0.15300  Biso   1.000  C
  C21      1.0000 0.28724  0.17772  0.37580  Biso   1.000  C
  C22      1.0000 0.82970  0.59370  0.78150  Biso   1.000  C
  C23      1.0000 0.48052  0.20946  0.06030  Biso   1.000  C
  C24      1.0000 0.47113  0.13144  0.98290  Biso   1.000  C
  C25      1.0000 0.43952  0.55176  0.72440  Biso   1.000  C
  C26      1.0000 0.36864  0.61942  0.76650  Biso   1.000  C
  C27      1.0000 0.24471  0.60378  0.83220  Biso   1.000  C
  C28      1.0000 0.19333  0.52114  0.85660  Biso   1.000  C
  C29      1.0000 0.26540  0.45380  0.81480  Biso   1.000  C
  C30      1.0000 0.38784  0.46912  0.74880  Biso   1.000  C
  C31      1.0000 0.57119  0.56882  0.65300  Biso   1.000  C
  C32      1.0000 0.15924  0.67772  0.87580  Biso   1.000  C
  C33      1.0000 0.79510  0.09370  0.28150  Biso   1.000  C
  C34      1.0000 0.75028  0.29054  0.43970  Biso   1.000  C
  C35      1.0000 0.58547  0.36856  0.51710  Biso   1.000  C
  C36      1.0000 0.71568  0.94824  0.77560  Biso   1.000  C
  C37      1.0000 0.75456  0.88058  0.73350  Biso   1.000  C
  C38      1.0000 0.68069  0.89622  0.66780  Biso   1.000  C
  C39      1.0000 0.57107  0.97886  0.64340  Biso   1.000  C
  C40      1.0000 0.53400  0.04620  0.68520  Biso   1.000  C
  C41      1.0000 0.60576  0.03088  0.75120  Biso   1.000  C
  C42      1.0000 0.79301  0.93118  0.84700  Biso   1.000  C
  C43      1.0000 0.71276  0.82228  0.62420  Biso   1.000  C
  C44      1.0000 0.17030  0.40630  0.21850  Biso   1.000  C
  S1       1.0000 0.81960  0.64570  0.16254  Biso   1.000  S
  S2       1.0000 0.62784  0.85430  0.33746  Biso   1.000  S
  S3       1.0000 0.18040  0.35430  0.83746  Biso   1.000  S
  S4       1.0000 0.37216  0.14570  0.66254  Biso   1.000  S
  N1       1.0000 0.37355  0.90085  0.99605  Biso   1.000  N
  N2       1.0000 0.36745  0.84976  0.94374  Biso   1.000  N
  N3       1.0000 0.62635  0.79885  0.98445  Biso   1.000  N
  N4       1.0000 0.57067  0.72806  0.89460  Biso   1.000  N
  N5       1.0000 0.60000  0.90421  0.06279  Biso   1.000  N
  N6       1.0000 0.27045  0.59915  0.50395  Biso   1.000  N
  N7       1.0000 0.16095  0.65024  0.55626  Biso   1.000  N
  N8       1.0000 0.40965  0.70115  0.51555  Biso   1.000  N
  N9       1.0000 0.19333  0.77194  0.60540  Biso   1.000  N
  N10      1.0000 0.56700  0.59579  0.43721  Biso   1.000  N
  N11      1.0000 0.62645  0.09915  0.00395  Biso   1.000  N
  N12      1.0000 0.63255  0.15024  0.05626  Biso   1.000  N
  N13      1.0000 0.37365  0.20115  0.01555  Biso   1.000  N
  N14      1.0000 0.42933  0.27194  0.10540  Biso   1.000  N
  N15      1.0000 0.40000  0.09579  0.93721  Biso   1.000  N
  N16      1.0000 0.72955  0.40085  0.49605  Biso   1.000  N
  N17      1.0000 0.83905  0.34976  0.44374  Biso   1.000  N
  N18      1.0000 0.59035  0.29885  0.48445  Biso   1.000  N
  N19      1.0000 0.80667  0.22806  0.39460  Biso   1.000  N
  N20      1.0000 0.43300  0.40421  0.56279  Biso   1.000  N
  O1       1.0000 0.39690  0.48378  0.39222  Biso   1.000  O
  O2       1.0000 0.36092  0.36325  0.35811  Biso   1.000  O
  O3       1.0000 0.76798  0.25679  0.13385  Biso   1.000  O
  O4       1.0000 0.98417  0.33231  0.08055  Biso   1.000  O
  O5       1.0000 0.93496  0.62793  0.21755  Biso   1.000  O
  O6       1.0000 0.91695  0.64960  0.08410  Biso   1.000  O
  O7       1.0000 0.67719  0.72254  0.16768  Biso   1.000  O
  O8       1.0000 0.98079  0.84203  0.00339  Biso   1.000  O
  O9       1.0000 0.05814  0.00365  0.92307  Biso   1.000  O
  O10      1.0000 0.22760  0.93377  0.78263  Biso   1.000  O
  O11      1.0000 0.27290  0.01622  0.10778  Biso   1.000  O
  O12      1.0000 0.08228  0.13675  0.14189  Biso   1.000  O
  O13      1.0000 0.15862  0.24321  0.36615  Biso   1.000  O
  O14      1.0000 0.39703  0.16769  0.41945  Biso   1.000  O
  O15      1.0000 0.78044  0.87207  0.28245  Biso   1.000  O
  O16      1.0000 0.65065  0.85040  0.41590  Biso   1.000  O
  O17      1.0000 0.56741  0.77746  0.33232  Biso   1.000  O
  O18      1.0000 0.82621  0.65797  0.49661  Biso   1.000  O
  O19      1.0000 0.98486  0.49635  0.57693  Biso   1.000  O
  O20      1.0000 0.94400  0.56623  0.71737  Biso   1.000  O
  O21      1.0000 0.60310  0.51622  0.60778  Biso   1.000  O
  O22      1.0000 0.63908  0.63675  0.64189  Biso   1.000  O
  O23      1.0000 0.23202  0.74321  0.86615  Biso   1.000  O
  O24      1.0000 0.01583  0.66769  0.91945  Biso   1.000  O
  O25      1.0000 0.06504  0.37207  0.78245  Biso   1.000  O
  O26      1.0000 0.08305  0.35040  0.91590  Biso   1.000  O
  O27      1.0000 0.32281  0.27746  0.83232  Biso   1.000  O
  O28      1.0000 0.01921  0.15797  0.99661  Biso   1.000  O
  O29      1.0000 0.94186  0.99635  0.07693  Biso   1.000  O
  O30      1.0000 0.77240  0.06623  0.21737  Biso   1.000  O
  O31      1.0000 0.72710  0.98378  0.89222  Biso   1.000  O
  O32      1.0000 0.91772  0.86325  0.85811  Biso   1.000  O
  O33      1.0000 0.84138  0.75679  0.63385  Biso   1.000  O
  O34      1.0000 0.60297  0.83231  0.58055  Biso   1.000  O
  O35      1.0000 0.21956  0.12793  0.71755  Biso   1.000  O
  O36      1.0000 0.34935  0.14960  0.58410  Biso   1.000  O
  O37      1.0000 0.43259  0.22254  0.66768  Biso   1.000  O
  O38      1.0000 0.17379  0.34203  0.50339  Biso   1.000  O
  O39      1.0000 0.01514  0.50365  0.42307  Biso   1.000  O
  O40      1.0000 0.05600  0.43377  0.28263  Biso   1.000  O
