data_image0
_cell_length_a       10.094
_cell_length_b       12.7697
_cell_length_c       13.0726
_cell_angle_alpha    71.1922
_cell_angle_beta     67.2896
_cell_angle_gamma    66.7195

_symmetry_space_group_name_H-M    P 1
_symmetry_int_tables_number       1

loop_
  _symmetry_equiv_pos_as_xyz
  'x, y, z'

loop_
  _atom_site_label
  _atom_site_occupancy
  _atom_site_fract_x
  _atom_site_fract_y
  _atom_site_fract_z
  _atom_site_thermal_displace_type
  _atom_site_B_iso_or_equiv
  _atom_site_type_symbol
  Co1      1.0000 0.96678  0.61474  0.89730  Biso   1.000  Co
  Co2      1.0000 0.24944  0.16696  0.26546  Biso   1.000  Co
  Co3      1.0000 0.47882  0.88526  0.60270  Biso   1.000  Co
  Co4      1.0000 0.68186  0.33304  0.23454  Biso   1.000  Co
  Co5      1.0000 0.03322  0.38526  0.10270  Biso   1.000  Co
  Co6      1.0000 0.75056  0.83304  0.73454  Biso   1.000  Co
  Co7      1.0000 0.52118  0.11474  0.39730  Biso   1.000  Co
  Co8      1.0000 0.31814  0.66696  0.76546  Biso   1.000  Co
  H1       1.0000 0.85490  0.88950  0.15170  Biso   1.000  H
  H2       1.0000 0.99820  0.75080  0.04240  Biso   1.000  H
  H3       1.0000 0.63770  0.73060  0.01840  Biso   1.000  H
  H4       1.0000 0.48630  0.87130  0.12490  Biso   1.000  H
  H5       1.0000 0.14620  0.92860  0.74440  Biso   1.000  H
  H6       1.0000 0.02350  0.01720  0.60080  Biso   1.000  H
  H7       1.0000 0.08880  0.06330  0.66130  Biso   1.000  H
  H8       1.0000 0.89610  0.61050  0.34830  Biso   1.000  H
  H9       1.0000 0.79140  0.74920  0.45760  Biso   1.000  H
  H10      1.0000 0.38670  0.76940  0.48160  Biso   1.000  H
  H11      1.0000 0.48250  0.62870  0.37510  Biso   1.000  H
  H12      1.0000 0.81920  0.57140  0.75560  Biso   1.000  H
  H13      1.0000 0.64150  0.48280  0.89920  Biso   1.000  H
  H14      1.0000 0.81340  0.43670  0.83870  Biso   1.000  H
  H15      1.0000 0.14510  0.11050  0.84830  Biso   1.000  H
  H16      1.0000 0.00180  0.24920  0.95760  Biso   1.000  H
  H17      1.0000 0.36230  0.26940  0.98160  Biso   1.000  H
  H18      1.0000 0.51370  0.12870  0.87510  Biso   1.000  H
  H19      1.0000 0.85380  0.07140  0.25560  Biso   1.000  H
  H20      1.0000 0.97650  0.98280  0.39920  Biso   1.000  H
  H21      1.0000 0.91120  0.93670  0.33870  Biso   1.000  H
  H22      1.0000 0.10390  0.38950  0.65170  Biso   1.000  H
  H23      1.0000 0.20860  0.25080  0.54240  Biso   1.000  H
  H24      1.0000 0.61330  0.23060  0.51840  Biso   1.000  H
  H25      1.0000 0.51750  0.37130  0.62490  Biso   1.000  H
  H26      1.0000 0.18080  0.42860  0.24440  Biso   1.000  H
  H27      1.0000 0.35850  0.51720  0.10080  Biso   1.000  H
  H28      1.0000 0.18660  0.56330  0.16130  Biso   1.000  H
  C1       1.0000 0.55440  0.98680  0.22220  Biso   1.000  C
  C2       1.0000 0.65420  0.89540  0.15080  Biso   1.000  C
  C3       1.0000 0.80800  0.85870  0.12490  Biso   1.000  C
  C4       1.0000 0.89360  0.77540  0.05840  Biso   1.000  C
  C5       1.0000 0.68300  0.76380  0.04400  Biso   1.000  C
  C6       1.0000 0.59060  0.84770  0.10950  Biso   1.000  C
  C7       1.0000 0.03240  0.83910  0.75190  Biso   1.000  C
  C8       1.0000 0.15450  0.89850  0.68130  Biso   1.000  C
  C9       1.0000 0.11560  0.00800  0.61480  Biso   1.000  C
  C10      1.0000 0.21920  0.04730  0.50290  Biso   1.000  C
  C11      1.0000 0.76340  0.51320  0.27780  Biso   1.000  C
  C12      1.0000 0.70040  0.60460  0.34920  Biso   1.000  C
  C13      1.0000 0.79160  0.64130  0.37510  Biso   1.000  C
  C14      1.0000 0.72740  0.72460  0.44160  Biso   1.000  C
  C15      1.0000 0.49080  0.73620  0.45600  Biso   1.000  C
  C16      1.0000 0.54780  0.65230  0.39050  Biso   1.000  C
  C17      1.0000 0.62340  0.66090  0.74810  Biso   1.000  C
  C18      1.0000 0.73430  0.60150  0.81870  Biso   1.000  C
  C19      1.0000 0.73840  0.49200  0.88520  Biso   1.000  C
  C20      1.0000 0.76940  0.45270  0.99710  Biso   1.000  C
  C21      1.0000 0.44560  0.01320  0.77780  Biso   1.000  C
  C22      1.0000 0.34580  0.10460  0.84920  Biso   1.000  C
  C23      1.0000 0.19200  0.14130  0.87510  Biso   1.000  C
  C24      1.0000 0.10640  0.22460  0.94160  Biso   1.000  C
  C25      1.0000 0.31700  0.23620  0.95600  Biso   1.000  C
  C26      1.0000 0.40940  0.15230  0.89050  Biso   1.000  C
  C27      1.0000 0.96760  0.16090  0.24810  Biso   1.000  C
  C28      1.0000 0.84550  0.10150  0.31870  Biso   1.000  C
  C29      1.0000 0.88440  0.99200  0.38520  Biso   1.000  C
  C30      1.0000 0.78080  0.95270  0.49710  Biso   1.000  C
  C31      1.0000 0.23660  0.48680  0.72220  Biso   1.000  C
  C32      1.0000 0.29960  0.39540  0.65080  Biso   1.000  C
  C33      1.0000 0.20840  0.35870  0.62490  Biso   1.000  C
  C34      1.0000 0.27260  0.27540  0.55840  Biso   1.000  C
  C35      1.0000 0.50920  0.26380  0.54400  Biso   1.000  C
  C36      1.0000 0.45220  0.34770  0.60950  Biso   1.000  C
  C37      1.0000 0.37660  0.33910  0.25190  Biso   1.000  C
  C38      1.0000 0.26570  0.39850  0.18130  Biso   1.000  C
  C39      1.0000 0.26160  0.50800  0.11480  Biso   1.000  C
  C40      1.0000 0.23060  0.54730  0.00290  Biso   1.000  C
  N1       1.0000 0.83400  0.72840  0.01600  Biso   1.000  N
  N2       1.0000 0.57840  0.77160  0.48400  Biso   1.000  N
  N3       1.0000 0.16600  0.27160  0.98400  Biso   1.000  N
  N4       1.0000 0.42160  0.22840  0.51600  Biso   1.000  N
  O1       1.0000 0.61150  0.00710  0.27990  Biso   1.000  O
  O2       1.0000 0.42130  0.03210  0.21690  Biso   1.000  O
  O3       1.0000 0.08165  0.73430  0.79620  Biso   1.000  O
  O4       1.0000 0.89700  0.89310  0.76030  Biso   1.000  O
  O5       1.0000 0.30129  0.82292  0.67570  Biso   1.000  O
  O6       1.0000 0.15860  0.12460  0.43300  Biso   1.000  O
  O7       1.0000 0.35814  0.02352  0.49720  Biso   1.000  O
  O8       1.0000 0.89850  0.49290  0.22010  Biso   1.000  O
  O9       1.0000 0.67030  0.46790  0.28310  Biso   1.000  O
  O10      1.0000 0.61215  0.76570  0.70380  Biso   1.000  O
  O11      1.0000 0.55040  0.60690  0.73970  Biso   1.000  O
  O12      1.0000 0.79991  0.67708  0.82430  Biso   1.000  O
  O13      1.0000 0.71620  0.37540  0.06700  Biso   1.000  O
  O14      1.0000 0.87886  0.47648  0.00280  Biso   1.000  O
  O15      1.0000 0.38850  0.99290  0.72010  Biso   1.000  O
  O16      1.0000 0.57870  0.96790  0.78310  Biso   1.000  O
  O17      1.0000 0.91835  0.26570  0.20380  Biso   1.000  O
  O18      1.0000 0.10300  0.10690  0.23970  Biso   1.000  O
  O19      1.0000 0.69871  0.17708  0.32430  Biso   1.000  O
  O20      1.0000 0.84140  0.87540  0.56700  Biso   1.000  O
  O21      1.0000 0.64186  0.97648  0.50280  Biso   1.000  O
  O22      1.0000 0.10150  0.50710  0.77990  Biso   1.000  O
  O23      1.0000 0.32970  0.53210  0.71690  Biso   1.000  O
  O24      1.0000 0.38785  0.23430  0.29620  Biso   1.000  O
  O25      1.0000 0.44960  0.39310  0.26030  Biso   1.000  O
  O26      1.0000 0.20009  0.32292  0.17570  Biso   1.000  O
  O27      1.0000 0.28380  0.62460  0.93300  Biso   1.000  O
  O28      1.0000 0.12114  0.52352  0.99720  Biso   1.000  O
