data_image0
_cell_length_a       10.0276
_cell_length_b       12.7848
_cell_length_c       12.9622
_cell_angle_alpha    71.1806
_cell_angle_beta     67.2445
_cell_angle_gamma    66.9106

_symmetry_space_group_name_H-M    P 1
_symmetry_int_tables_number       1

loop_
  _symmetry_equiv_pos_as_xyz
  'x, y, z'

loop_
  _atom_site_label
  _atom_site_occupancy
  _atom_site_fract_x
  _atom_site_fract_y
  _atom_site_fract_z
  _atom_site_thermal_displace_type
  _atom_site_B_iso_or_equiv
  _atom_site_type_symbol
  Co1      1.0000 0.96667  0.61352  0.89778  Biso   1.000  Co
  Co2      1.0000 0.25058  0.16721  0.26375  Biso   1.000  Co
  Co3      1.0000 0.47797  0.88648  0.60222  Biso   1.000  Co
  Co4      1.0000 0.68154  0.33279  0.23625  Biso   1.000  Co
  Co5      1.0000 0.03333  0.38648  0.10222  Biso   1.000  Co
  Co6      1.0000 0.74942  0.83279  0.73625  Biso   1.000  Co
  Co7      1.0000 0.52203  0.11352  0.39778  Biso   1.000  Co
  Co8      1.0000 0.31846  0.66721  0.76375  Biso   1.000  Co
  H1       1.0000 0.85920  0.88500  0.15540  Biso   1.000  H
  H2       1.0000 0.00360  0.75090  0.03950  Biso   1.000  H
  H3       1.0000 0.63680  0.72520  0.02080  Biso   1.000  H
  H4       1.0000 0.48370  0.86620  0.12820  Biso   1.000  H
  H5       1.0000 0.13780  0.95830  0.74190  Biso   1.000  H
  H6       1.0000 0.12610  0.91670  0.54110  Biso   1.000  H
  H7       1.0000 0.01130  0.02330  0.60070  Biso   1.000  H
  H8       1.0000 0.89960  0.61500  0.34460  Biso   1.000  H
  H9       1.0000 0.79400  0.74910  0.46050  Biso   1.000  H
  H10      1.0000 0.38280  0.77480  0.47920  Biso   1.000  H
  H11      1.0000 0.47810  0.63380  0.37180  Biso   1.000  H
  H12      1.0000 0.83800  0.54170  0.75810  Biso   1.000  H
  H13      1.0000 0.58390  0.58330  0.95890  Biso   1.000  H
  H14      1.0000 0.63530  0.47670  0.89930  Biso   1.000  H
  H15      1.0000 0.14080  0.11500  0.84460  Biso   1.000  H
  H16      1.0000 0.99640  0.24910  0.96050  Biso   1.000  H
  H17      1.0000 0.36320  0.27480  0.97920  Biso   1.000  H
  H18      1.0000 0.51630  0.13380  0.87180  Biso   1.000  H
  H19      1.0000 0.86220  0.04170  0.25810  Biso   1.000  H
  H20      1.0000 0.87390  0.08330  0.45890  Biso   1.000  H
  H21      1.0000 0.98870  0.97670  0.39930  Biso   1.000  H
  H22      1.0000 0.10040  0.38500  0.65540  Biso   1.000  H
  H23      1.0000 0.20600  0.25090  0.53950  Biso   1.000  H
  H24      1.0000 0.61720  0.22520  0.52080  Biso   1.000  H
  H25      1.0000 0.52190  0.36620  0.62820  Biso   1.000  H
  H26      1.0000 0.16200  0.45830  0.24190  Biso   1.000  H
  H27      1.0000 0.41610  0.41670  0.04110  Biso   1.000  H
  H28      1.0000 0.36470  0.52330  0.10070  Biso   1.000  H
  C1       1.0000 0.55550  0.98550  0.22270  Biso   1.000  C
  C2       1.0000 0.65480  0.89350  0.15230  Biso   1.000  C
  C3       1.0000 0.81060  0.85520  0.12640  Biso   1.000  C
  C4       1.0000 0.89610  0.77400  0.05840  Biso   1.000  C
  C5       1.0000 0.68310  0.76020  0.04640  Biso   1.000  C
  C6       1.0000 0.59080  0.84350  0.11150  Biso   1.000  C
  C7       1.0000 0.03100  0.83880  0.75420  Biso   1.000  C
  C8       1.0000 0.15100  0.90470  0.69470  Biso   1.000  C
  C9       1.0000 0.11810  0.97280  0.58260  Biso   1.000  C
  C10      1.0000 0.21800  0.04850  0.50130  Biso   1.000  C
  C11      1.0000 0.76370  0.51450  0.27730  Biso   1.000  C
  C12      1.0000 0.70060  0.60650  0.34770  Biso   1.000  C
  C13      1.0000 0.79220  0.64480  0.37360  Biso   1.000  C
  C14      1.0000 0.72850  0.72600  0.44160  Biso   1.000  C
  C15      1.0000 0.48970  0.73980  0.45360  Biso   1.000  C
  C16      1.0000 0.54580  0.65650  0.38850  Biso   1.000  C
  C17      1.0000 0.62400  0.66120  0.74580  Biso   1.000  C
  C18      1.0000 0.75040  0.59530  0.80530  Biso   1.000  C
  C19      1.0000 0.67350  0.52720  0.91740  Biso   1.000  C
  C20      1.0000 0.76780  0.45150  0.99870  Biso   1.000  C
  C21      1.0000 0.44450  0.01450  0.77730  Biso   1.000  C
  C22      1.0000 0.34520  0.10650  0.84770  Biso   1.000  C
  C23      1.0000 0.18940  0.14480  0.87360  Biso   1.000  C
  C24      1.0000 0.10390  0.22600  0.94160  Biso   1.000  C
  C25      1.0000 0.31690  0.23980  0.95360  Biso   1.000  C
  C26      1.0000 0.40920  0.15650  0.88850  Biso   1.000  C
  C27      1.0000 0.96900  0.16120  0.24580  Biso   1.000  C
  C28      1.0000 0.84900  0.09530  0.30530  Biso   1.000  C
  C29      1.0000 0.88190  0.02720  0.41740  Biso   1.000  C
  C30      1.0000 0.78200  0.95150  0.49870  Biso   1.000  C
  C31      1.0000 0.23630  0.48550  0.72270  Biso   1.000  C
  C32      1.0000 0.29940  0.39350  0.65230  Biso   1.000  C
  C33      1.0000 0.20780  0.35520  0.62640  Biso   1.000  C
  C34      1.0000 0.27150  0.27400  0.55840  Biso   1.000  C
  C35      1.0000 0.51030  0.26020  0.54640  Biso   1.000  C
  C36      1.0000 0.45420  0.34350  0.61150  Biso   1.000  C
  C37      1.0000 0.37600  0.33880  0.25420  Biso   1.000  C
  C38      1.0000 0.24960  0.40470  0.19470  Biso   1.000  C
  C39      1.0000 0.32650  0.47280  0.08260  Biso   1.000  C
  C40      1.0000 0.23220  0.54850  0.00130  Biso   1.000  C
  N1       1.0000 0.83430  0.72610  0.01790  Biso   1.000  N
  N2       1.0000 0.57830  0.77390  0.48210  Biso   1.000  N
  N3       1.0000 0.16570  0.27390  0.98210  Biso   1.000  N
  N4       1.0000 0.42170  0.22610  0.51790  Biso   1.000  N
  O1       1.0000 0.61424  0.00682  0.27970  Biso   1.000  O
  O2       1.0000 0.42287  0.03116  0.21550  Biso   1.000  O
  O3       1.0000 0.08026  0.73428  0.79580  Biso   1.000  O
  O4       1.0000 0.89450  0.89330  0.76430  Biso   1.000  O
  O5       1.0000 0.29965  0.82420  0.67490  Biso   1.000  O
  O6       1.0000 0.35685  0.02340  0.49670  Biso   1.000  O
  O7       1.0000 0.15490  0.12600  0.43180  Biso   1.000  O
  O8       1.0000 0.90076  0.49318  0.22030  Biso   1.000  O
  O9       1.0000 0.66953  0.46884  0.28450  Biso   1.000  O
  O10      1.0000 0.61034  0.76572  0.70420  Biso   1.000  O
  O11      1.0000 0.55210  0.60670  0.73570  Biso   1.000  O
  O12      1.0000 0.79875  0.67580  0.82510  Biso   1.000  O
  O13      1.0000 0.87695  0.47660  0.00330  Biso   1.000  O
  O14      1.0000 0.71270  0.37400  0.06820  Biso   1.000  O
  O15      1.0000 0.38576  0.99318  0.72030  Biso   1.000  O
  O16      1.0000 0.57713  0.96884  0.78450  Biso   1.000  O
  O17      1.0000 0.91974  0.26572  0.20420  Biso   1.000  O
  O18      1.0000 0.10550  0.10670  0.23570  Biso   1.000  O
  O19      1.0000 0.70035  0.17580  0.32510  Biso   1.000  O
  O20      1.0000 0.64315  0.97660  0.50330  Biso   1.000  O
  O21      1.0000 0.84510  0.87400  0.56820  Biso   1.000  O
  O22      1.0000 0.09924  0.50682  0.77970  Biso   1.000  O
  O23      1.0000 0.33047  0.53116  0.71550  Biso   1.000  O
  O24      1.0000 0.38966  0.23428  0.29580  Biso   1.000  O
  O25      1.0000 0.44790  0.39330  0.26430  Biso   1.000  O
  O26      1.0000 0.20125  0.32420  0.17490  Biso   1.000  O
  O27      1.0000 0.12305  0.52340  0.99670  Biso   1.000  O
  O28      1.0000 0.28730  0.62600  0.93180  Biso   1.000  O
