data_image0
_cell_length_a       10.0597
_cell_length_b       12.773
_cell_length_c       12.9948
_cell_angle_alpha    70.9178
_cell_angle_beta     67.2281
_cell_angle_gamma    66.8097

_symmetry_space_group_name_H-M    P 1
_symmetry_int_tables_number       1

loop_
  _symmetry_equiv_pos_as_xyz
  'x, y, z'

loop_
  _atom_site_label
  _atom_site_occupancy
  _atom_site_fract_x
  _atom_site_fract_y
  _atom_site_fract_z
  _atom_site_thermal_displace_type
  _atom_site_B_iso_or_equiv
  _atom_site_type_symbol
  Co1      1.0000 0.96665  0.61468  0.89688  Biso   1.000  Co
  Co2      1.0000 0.31765  0.66681  0.76403  Biso   1.000  Co
  Co3      1.0000 0.47821  0.88532  0.60312  Biso   1.000  Co
  Co4      1.0000 0.74849  0.83319  0.73597  Biso   1.000  Co
  Co5      1.0000 0.03335  0.38532  0.10312  Biso   1.000  Co
  Co6      1.0000 0.68235  0.33319  0.23597  Biso   1.000  Co
  Co7      1.0000 0.52179  0.11468  0.39688  Biso   1.000  Co
  Co8      1.0000 0.25151  0.16681  0.26403  Biso   1.000  Co
  H1       1.0000 0.10270  0.38990  0.65010  Biso   1.000  H
  H2       1.0000 0.20850  0.25660  0.53680  Biso   1.000  H
  H3       1.0000 0.61220  0.23010  0.51850  Biso   1.000  H
  H4       1.0000 0.51760  0.37090  0.62510  Biso   1.000  H
  H5       1.0000 0.13680  0.95630  0.73930  Biso   1.000  H
  H6       1.0000 0.01920  0.01920  0.59440  Biso   1.000  H
  H7       1.0000 0.13780  0.91580  0.53700  Biso   1.000  H
  H8       1.0000 0.14270  0.11010  0.84990  Biso   1.000  H
  H9       1.0000 0.00190  0.24340  0.96320  Biso   1.000  H
  H10      1.0000 0.36080  0.26990  0.98150  Biso   1.000  H
  H11      1.0000 0.51360  0.12910  0.87490  Biso   1.000  H
  H12      1.0000 0.83240  0.54370  0.76070  Biso   1.000  H
  H13      1.0000 0.63280  0.48080  0.90560  Biso   1.000  H
  H14      1.0000 0.59060  0.58420  0.96300  Biso   1.000  H
  H15      1.0000 0.89730  0.61010  0.34990  Biso   1.000  H
  H16      1.0000 0.79150  0.74340  0.46320  Biso   1.000  H
  H17      1.0000 0.38780  0.76990  0.48150  Biso   1.000  H
  H18      1.0000 0.48240  0.62910  0.37490  Biso   1.000  H
  H19      1.0000 0.86320  0.04370  0.26070  Biso   1.000  H
  H20      1.0000 0.98080  0.98080  0.40560  Biso   1.000  H
  H21      1.0000 0.86220  0.08420  0.46300  Biso   1.000  H
  H22      1.0000 0.85730  0.88990  0.15010  Biso   1.000  H
  H23      1.0000 0.99810  0.75660  0.03680  Biso   1.000  H
  H24      1.0000 0.63920  0.73010  0.01850  Biso   1.000  H
  H25      1.0000 0.48640  0.87090  0.12510  Biso   1.000  H
  H26      1.0000 0.16760  0.45630  0.23930  Biso   1.000  H
  H27      1.0000 0.36720  0.51920  0.09440  Biso   1.000  H
  H28      1.0000 0.40940  0.41580  0.03700  Biso   1.000  H
  C1       1.0000 0.23610  0.48690  0.72170  Biso   1.000  C
  C2       1.0000 0.30010  0.39620  0.64980  Biso   1.000  C
  C3       1.0000 0.20710  0.35990  0.62250  Biso   1.000  C
  C4       1.0000 0.27230  0.27970  0.55450  Biso   1.000  C
  C5       1.0000 0.50820  0.26380  0.54420  Biso   1.000  C
  C6       1.0000 0.45150  0.34810  0.60970  Biso   1.000  C
  C7       1.0000 0.03330  0.83890  0.74990  Biso   1.000  C
  C8       1.0000 0.15220  0.90290  0.69310  Biso   1.000  C
  C9       1.0000 0.12440  0.97130  0.57910  Biso   1.000  C
  C10      1.0000 0.22020  0.04900  0.50240  Biso   1.000  C
  C11      1.0000 0.44470  0.01310  0.77830  Biso   1.000  C
  C12      1.0000 0.34610  0.10380  0.85020  Biso   1.000  C
  C13      1.0000 0.18950  0.14010  0.87750  Biso   1.000  C
  C14      1.0000 0.10650  0.22030  0.94550  Biso   1.000  C
  C15      1.0000 0.31620  0.23620  0.95580  Biso   1.000  C
  C16      1.0000 0.40930  0.15190  0.89030  Biso   1.000  C
  C17      1.0000 0.62210  0.66110  0.75010  Biso   1.000  C
  C18      1.0000 0.74820  0.59710  0.80690  Biso   1.000  C
  C19      1.0000 0.67480  0.52870  0.92090  Biso   1.000  C
  C20      1.0000 0.77160  0.45100  0.99760  Biso   1.000  C
  C21      1.0000 0.76390  0.51310  0.27830  Biso   1.000  C
  C22      1.0000 0.69990  0.60380  0.35020  Biso   1.000  C
  C23      1.0000 0.79290  0.64010  0.37750  Biso   1.000  C
  C24      1.0000 0.72770  0.72030  0.44550  Biso   1.000  C
  C25      1.0000 0.49180  0.73620  0.45580  Biso   1.000  C
  C26      1.0000 0.54850  0.65190  0.39030  Biso   1.000  C
  C27      1.0000 0.96670  0.16110  0.25010  Biso   1.000  C
  C28      1.0000 0.84780  0.09710  0.30690  Biso   1.000  C
  C29      1.0000 0.87560  0.02870  0.42090  Biso   1.000  C
  C30      1.0000 0.77980  0.95100  0.49760  Biso   1.000  C
  C31      1.0000 0.55530  0.98690  0.22170  Biso   1.000  C
  C32      1.0000 0.65390  0.89620  0.14980  Biso   1.000  C
  C33      1.0000 0.81050  0.85990  0.12250  Biso   1.000  C
  C34      1.0000 0.89350  0.77970  0.05450  Biso   1.000  C
  C35      1.0000 0.68380  0.76380  0.04420  Biso   1.000  C
  C36      1.0000 0.59070  0.84810  0.10970  Biso   1.000  C
  C37      1.0000 0.37790  0.33890  0.24990  Biso   1.000  C
  C38      1.0000 0.25180  0.40290  0.19310  Biso   1.000  C
  C39      1.0000 0.32520  0.47130  0.07910  Biso   1.000  C
  C40      1.0000 0.22840  0.54900  0.00240  Biso   1.000  C
  N1       1.0000 0.42076  0.23008  0.51540  Biso   1.000  N
  N2       1.0000 0.16624  0.26992  0.98460  Biso   1.000  N
  N3       1.0000 0.57924  0.76992  0.48460  Biso   1.000  N
  N4       1.0000 0.83376  0.73008  0.01540  Biso   1.000  N
  O1       1.0000 0.33067  0.53046  0.71780  Biso   1.000  O
  O2       1.0000 0.10113  0.50714  0.77920  Biso   1.000  O
  O3       1.0000 0.08073  0.73444  0.79390  Biso   1.000  O
  O4       1.0000 0.89668  0.89374  0.75850  Biso   1.000  O
  O5       1.0000 0.29973  0.82434  0.67600  Biso   1.000  O
  O6       1.0000 0.35873  0.02364  0.49670  Biso   1.000  O
  O7       1.0000 0.15871  0.12828  0.43310  Biso   1.000  O
  O8       1.0000 0.57893  0.96954  0.78220  Biso   1.000  O
  O9       1.0000 0.38747  0.99286  0.72080  Biso   1.000  O
  O10      1.0000 0.60907  0.76556  0.70610  Biso   1.000  O
  O11      1.0000 0.54892  0.60626  0.74150  Biso   1.000  O
  O12      1.0000 0.80007  0.67566  0.82400  Biso   1.000  O
  O13      1.0000 0.87907  0.47636  0.00330  Biso   1.000  O
  O14      1.0000 0.72009  0.37172  0.06690  Biso   1.000  O
  O15      1.0000 0.66933  0.46954  0.28220  Biso   1.000  O
  O16      1.0000 0.89887  0.49286  0.22080  Biso   1.000  O
  O17      1.0000 0.91927  0.26556  0.20610  Biso   1.000  O
  O18      1.0000 0.10332  0.10626  0.24150  Biso   1.000  O
  O19      1.0000 0.70027  0.17566  0.32400  Biso   1.000  O
  O20      1.0000 0.64127  0.97636  0.50330  Biso   1.000  O
  O21      1.0000 0.84129  0.87172  0.56690  Biso   1.000  O
  O22      1.0000 0.42107  0.03046  0.21780  Biso   1.000  O
  O23      1.0000 0.61253  0.00714  0.27920  Biso   1.000  O
  O24      1.0000 0.39093  0.23444  0.29390  Biso   1.000  O
  O25      1.0000 0.45108  0.39374  0.25850  Biso   1.000  O
  O26      1.0000 0.19993  0.32434  0.17600  Biso   1.000  O
  O27      1.0000 0.12093  0.52364  0.99670  Biso   1.000  O
  O28      1.0000 0.27991  0.62828  0.93310  Biso   1.000  O
