data_image0
_cell_length_a       30.5536
_cell_length_b       15.643
_cell_length_c       21.9701
_cell_angle_alpha    90
_cell_angle_beta     133.091
_cell_angle_gamma    90

_symmetry_space_group_name_H-M    "P 1"
_symmetry_int_tables_number       1

loop_
  _symmetry_equiv_pos_as_xyz
  'x, y, z'

loop_
  _atom_site_label
  _atom_site_occupancy
  _atom_site_fract_x
  _atom_site_fract_y
  _atom_site_fract_z
  _atom_site_thermal_displace_type
  _atom_site_B_iso_or_equiv
  _atom_site_type_symbol
  Nd1      1.0000 0.33129  0.87170  0.48589  Biso   1.000  Nd
  Nd2      1.0000 0.61055  0.86345  0.67363  Biso   1.000  Nd
  O1       1.0000 0.25281  0.76910  0.37230  Biso   1.000  O
  O2       1.0000 0.22330  0.65210  0.29520  Biso   1.000  O
  O3       1.0000 0.44050  0.85700  0.56960  Biso   1.000  O
  O4       1.0000 0.52050  0.78480  0.61390  Biso   1.000  O
  O5       1.0000 0.63390  0.97210  0.61740  Biso   1.000  O
  O6       1.0000 0.67330  0.09590  0.62560  Biso   1.000  O
  O7       1.0000 0.62230  0.88280  0.79510  Biso   1.000  O
  O8       1.0000 0.65730  0.95270  0.90910  Biso   1.000  O
  O9       1.0000 0.24740  0.83760  0.48060  Biso   1.000  O
  H1       1.0000 0.23910  0.88700  0.48680  Biso   1.000  H
  H2       1.0000 0.21450  0.81420  0.43860  Biso   1.000  H
  O10      1.0000 0.24730  0.97230  0.38970  Biso   1.000  O
  H3       1.0000 0.24780  0.02180  0.37580  Biso   1.000  H
  H4       1.0000 0.21470  0.96410  0.37670  Biso   1.000  H
  O11      1.0000 0.37730  0.01720  0.51490  Biso   1.000  O
  H5       1.0000 0.36160  0.03780  0.46860  Biso   1.000  H
  H6       1.0000 0.38730  0.05670  0.54800  Biso   1.000  H
  O12      1.0000 0.36660  0.76510  0.60140  Biso   1.000  O
  H7       1.0000 0.40240  0.74630  0.63650  Biso   1.000  H
  H8       1.0000 0.36010  0.79170  0.62850  Biso   1.000  H
  O13      1.0000 0.52790  0.97640  0.62290  Biso   1.000  O
  H9       1.0000 0.54070  0.00540  0.66450  Biso   1.000  H
  H10      1.0000 0.49770  0.94840  0.60510  Biso   1.000  H
  O14      1.0000 0.53320  0.86840  0.51230  Biso   1.000  O
  H11      1.0000 0.51350  0.90860  0.47810  Biso   1.000  H
  H12      1.0000 0.52780  0.82390  0.48640  Biso   1.000  H
  O15      1.0000 0.63350  0.71900  0.73510  Biso   1.000  O
  H13      1.0000 0.61830  0.67150  0.71170  Biso   1.000  H
  H14      1.0000 0.67100  0.71490  0.77250  Biso   1.000  H
  O16      1.0000 0.65970  0.79100  0.63030  Biso   1.000  O
  H15      1.0000 0.64210  0.76290  0.58560  Biso   1.000  H
  H16      1.0000 0.68180  0.82840  0.63420  Biso   1.000  H
  N1       1.0000 0.36650  0.73450  0.46420  Biso   1.000  N
  N2       1.0000 0.66170  0.00130  0.75790  Biso   1.000  N
  C1       1.0000 0.32760  0.67640  0.40690  Biso   1.000  C
  C2       1.0000 0.34590  0.60110  0.39570  Biso   1.000  C
  H17      1.0000 0.31730  0.56090  0.35410  Biso   1.000  H
  C3       1.0000 0.40650  0.58650  0.44690  Biso   1.000  C
  H18      1.0000 0.42040  0.53510  0.44190  Biso   1.000  H
  C4       1.0000 0.44660  0.64700  0.50490  Biso   1.000  C
  H19      1.0000 0.48850  0.63850  0.53970  Biso   1.000  H
  C5       1.0000 0.42530  0.72040  0.51220  Biso   1.000  C
  C6       1.0000 0.26230  0.70110  0.35340  Biso   1.000  C
  C7       1.0000 0.46520  0.79210  0.57030  Biso   1.000  C
  C8       1.0000 0.68470  0.05460  0.73850  Biso   1.000  C
  C9       1.0000 0.72600  0.11790  0.79300  Biso   1.000  C
  H20      1.0000 0.74450  0.15220  0.78020  Biso   1.000  H
  C10      1.0000 0.73900  0.12860  0.86640  Biso   1.000  C
  H21      1.0000 0.76640  0.17170  0.90480  Biso   1.000  H
  C11      1.0000 0.71220  0.07650  0.88380  Biso   1.000  C
  H22      1.0000 0.71960  0.08480  0.93300  Biso   1.000  H
  C12      1.0000 0.67440  0.01230  0.82830  Biso   1.000  C
  C13      1.0000 0.66270  0.04050  0.65390  Biso   1.000  C
  C14      1.0000 0.64950  0.94570  0.84650  Biso   1.000  C
  Nd3      1.0000 0.83129  0.37170  0.48589  Biso   1.000  Nd
  Nd4      1.0000 0.11055  0.36345  0.67363  Biso   1.000  Nd
  O17      1.0000 0.75281  0.26910  0.37230  Biso   1.000  O
  O18      1.0000 0.72330  0.15210  0.29520  Biso   1.000  O
  O19      1.0000 0.94050  0.35700  0.56960  Biso   1.000  O
  O20      1.0000 0.02050  0.28480  0.61390  Biso   1.000  O
  O21      1.0000 0.13390  0.47210  0.61740  Biso   1.000  O
  O22      1.0000 0.17330  0.59590  0.62560  Biso   1.000  O
  O23      1.0000 0.12230  0.38280  0.79510  Biso   1.000  O
  O24      1.0000 0.15730  0.45270  0.90910  Biso   1.000  O
  O25      1.0000 0.74740  0.33760  0.48060  Biso   1.000  O
  H23      1.0000 0.73910  0.38700  0.48680  Biso   1.000  H
  H24      1.0000 0.71450  0.31420  0.43860  Biso   1.000  H
  O26      1.0000 0.74730  0.47230  0.38970  Biso   1.000  O
  H25      1.0000 0.74780  0.52180  0.37580  Biso   1.000  H
  H26      1.0000 0.71470  0.46410  0.37670  Biso   1.000  H
  O27      1.0000 0.87730  0.51720  0.51490  Biso   1.000  O
  H27      1.0000 0.86160  0.53780  0.46860  Biso   1.000  H
  H28      1.0000 0.88730  0.55670  0.54800  Biso   1.000  H
  O28      1.0000 0.86660  0.26510  0.60140  Biso   1.000  O
  H29      1.0000 0.90240  0.24630  0.63650  Biso   1.000  H
  H30      1.0000 0.86010  0.29170  0.62850  Biso   1.000  H
  O29      1.0000 0.02790  0.47640  0.62290  Biso   1.000  O
  H31      1.0000 0.04070  0.50540  0.66450  Biso   1.000  H
  H32      1.0000 0.99770  0.44840  0.60510  Biso   1.000  H
  O30      1.0000 0.03320  0.36840  0.51230  Biso   1.000  O
  H33      1.0000 0.01350  0.40860  0.47810  Biso   1.000  H
  H34      1.0000 0.02780  0.32390  0.48640  Biso   1.000  H
  O31      1.0000 0.13350  0.21900  0.73510  Biso   1.000  O
  H35      1.0000 0.11830  0.17150  0.71170  Biso   1.000  H
  H36      1.0000 0.17100  0.21490  0.77250  Biso   1.000  H
  O32      1.0000 0.15970  0.29100  0.63030  Biso   1.000  O
  H37      1.0000 0.14210  0.26290  0.58560  Biso   1.000  H
  H38      1.0000 0.18180  0.32840  0.63420  Biso   1.000  H
  N3       1.0000 0.86650  0.23450  0.46420  Biso   1.000  N
  N4       1.0000 0.16170  0.50130  0.75790  Biso   1.000  N
  C15      1.0000 0.82760  0.17640  0.40690  Biso   1.000  C
  C16      1.0000 0.84590  0.10110  0.39570  Biso   1.000  C
  H39      1.0000 0.81730  0.06090  0.35410  Biso   1.000  H
  C17      1.0000 0.90650  0.08650  0.44690  Biso   1.000  C
  H40      1.0000 0.92040  0.03510  0.44190  Biso   1.000  H
  C18      1.0000 0.94660  0.14700  0.50490  Biso   1.000  C
  H41      1.0000 0.98850  0.13850  0.53970  Biso   1.000  H
  C19      1.0000 0.92530  0.22040  0.51220  Biso   1.000  C
  C20      1.0000 0.76230  0.20110  0.35340  Biso   1.000  C
  C21      1.0000 0.96520  0.29210  0.57030  Biso   1.000  C
  C22      1.0000 0.18470  0.55460  0.73850  Biso   1.000  C
  C23      1.0000 0.22600  0.61790  0.79300  Biso   1.000  C
  H42      1.0000 0.24450  0.65220  0.78020  Biso   1.000  H
  C24      1.0000 0.23900  0.62860  0.86640  Biso   1.000  C
  H43      1.0000 0.26640  0.67170  0.90480  Biso   1.000  H
  C25      1.0000 0.21220  0.57650  0.88380  Biso   1.000  C
  H44      1.0000 0.21960  0.58480  0.93300  Biso   1.000  H
  C26      1.0000 0.17440  0.51230  0.82830  Biso   1.000  C
  C27      1.0000 0.16270  0.54050  0.65390  Biso   1.000  C
  C28      1.0000 0.14950  0.44570  0.84650  Biso   1.000  C
  Nd5      1.0000 0.66871  0.87170  0.01411  Biso   1.000  Nd
  Nd6      1.0000 0.38946  0.86345  0.82637  Biso   1.000  Nd
  O33      1.0000 0.74719  0.76910  0.12770  Biso   1.000  O
  O34      1.0000 0.77670  0.65210  0.20480  Biso   1.000  O
  O35      1.0000 0.55950  0.85700  0.93040  Biso   1.000  O
  O36      1.0000 0.47950  0.78480  0.88610  Biso   1.000  O
  O37      1.0000 0.36610  0.97210  0.88260  Biso   1.000  O
  O38      1.0000 0.32670  0.09590  0.87440  Biso   1.000  O
  O39      1.0000 0.37770  0.88280  0.70490  Biso   1.000  O
  O40      1.0000 0.34270  0.95270  0.59090  Biso   1.000  O
  O41      1.0000 0.75260  0.83760  0.01940  Biso   1.000  O
  H45      1.0000 0.76090  0.88700  0.01320  Biso   1.000  H
  H46      1.0000 0.78550  0.81420  0.06140  Biso   1.000  H
  O42      1.0000 0.75270  0.97230  0.11030  Biso   1.000  O
  H47      1.0000 0.75220  0.02180  0.12420  Biso   1.000  H
  H48      1.0000 0.78530  0.96410  0.12330  Biso   1.000  H
  O43      1.0000 0.62270  0.01720  0.98510  Biso   1.000  O
  H49      1.0000 0.63840  0.03780  0.03140  Biso   1.000  H
  H50      1.0000 0.61270  0.05670  0.95200  Biso   1.000  H
  O44      1.0000 0.63340  0.76510  0.89860  Biso   1.000  O
  H51      1.0000 0.59760  0.74630  0.86350  Biso   1.000  H
  H52      1.0000 0.63990  0.79170  0.87150  Biso   1.000  H
  O45      1.0000 0.47210  0.97640  0.87710  Biso   1.000  O
  H53      1.0000 0.45930  0.00540  0.83550  Biso   1.000  H
  H54      1.0000 0.50230  0.94840  0.89490  Biso   1.000  H
  O46      1.0000 0.46680  0.86840  0.98770  Biso   1.000  O
  H55      1.0000 0.48650  0.90860  0.02190  Biso   1.000  H
  H56      1.0000 0.47220  0.82390  0.01360  Biso   1.000  H
  O47      1.0000 0.36650  0.71900  0.76490  Biso   1.000  O
  H57      1.0000 0.38170  0.67150  0.78830  Biso   1.000  H
  H58      1.0000 0.32900  0.71490  0.72750  Biso   1.000  H
  O48      1.0000 0.34030  0.79100  0.86970  Biso   1.000  O
  H59      1.0000 0.35790  0.76290  0.91440  Biso   1.000  H
  H60      1.0000 0.31820  0.82840  0.86580  Biso   1.000  H
  N5       1.0000 0.63350  0.73450  0.03580  Biso   1.000  N
  N6       1.0000 0.33830  0.00130  0.74210  Biso   1.000  N
  C29      1.0000 0.67240  0.67640  0.09310  Biso   1.000  C
  C30      1.0000 0.65410  0.60110  0.10430  Biso   1.000  C
  H61      1.0000 0.68270  0.56090  0.14590  Biso   1.000  H
  C31      1.0000 0.59350  0.58650  0.05310  Biso   1.000  C
  H62      1.0000 0.57960  0.53510  0.05810  Biso   1.000  H
  C32      1.0000 0.55340  0.64700  0.99510  Biso   1.000  C
  H63      1.0000 0.51150  0.63850  0.96030  Biso   1.000  H
  C33      1.0000 0.57470  0.72040  0.98780  Biso   1.000  C
  C34      1.0000 0.73770  0.70110  0.14660  Biso   1.000  C
  C35      1.0000 0.53480  0.79210  0.92970  Biso   1.000  C
  C36      1.0000 0.31530  0.05460  0.76150  Biso   1.000  C
  C37      1.0000 0.27400  0.11790  0.70700  Biso   1.000  C
  H64      1.0000 0.25550  0.15220  0.71980  Biso   1.000  H
  C38      1.0000 0.26100  0.12860  0.63360  Biso   1.000  C
  H65      1.0000 0.23360  0.17170  0.59520  Biso   1.000  H
  C39      1.0000 0.28780  0.07650  0.61620  Biso   1.000  C
  H66      1.0000 0.28040  0.08480  0.56700  Biso   1.000  H
  C40      1.0000 0.32560  0.01230  0.67170  Biso   1.000  C
  C41      1.0000 0.33730  0.04050  0.84610  Biso   1.000  C
  C42      1.0000 0.35050  0.94570  0.65350  Biso   1.000  C
  Nd7      1.0000 0.16871  0.37170  0.01411  Biso   1.000  Nd
  Nd8      1.0000 0.88946  0.36345  0.82637  Biso   1.000  Nd
  O49      1.0000 0.24719  0.26910  0.12770  Biso   1.000  O
  O50      1.0000 0.27670  0.15210  0.20480  Biso   1.000  O
  O51      1.0000 0.05950  0.35700  0.93040  Biso   1.000  O
  O52      1.0000 0.97950  0.28480  0.88610  Biso   1.000  O
  O53      1.0000 0.86610  0.47210  0.88260  Biso   1.000  O
  O54      1.0000 0.82670  0.59590  0.87440  Biso   1.000  O
  O55      1.0000 0.87770  0.38280  0.70490  Biso   1.000  O
  O56      1.0000 0.84270  0.45270  0.59090  Biso   1.000  O
  O57      1.0000 0.25260  0.33760  0.01940  Biso   1.000  O
  H67      1.0000 0.26090  0.38700  0.01320  Biso   1.000  H
  H68      1.0000 0.28550  0.31420  0.06140  Biso   1.000  H
  O58      1.0000 0.25270  0.47230  0.11030  Biso   1.000  O
  H69      1.0000 0.25220  0.52180  0.12420  Biso   1.000  H
  H70      1.0000 0.28530  0.46410  0.12330  Biso   1.000  H
  O59      1.0000 0.12270  0.51720  0.98510  Biso   1.000  O
  H71      1.0000 0.13840  0.53780  0.03140  Biso   1.000  H
  H72      1.0000 0.11270  0.55670  0.95200  Biso   1.000  H
  O60      1.0000 0.13340  0.26510  0.89860  Biso   1.000  O
  H73      1.0000 0.09760  0.24630  0.86350  Biso   1.000  H
  H74      1.0000 0.13990  0.29170  0.87150  Biso   1.000  H
  O61      1.0000 0.97210  0.47640  0.87710  Biso   1.000  O
  H75      1.0000 0.95930  0.50540  0.83550  Biso   1.000  H
  H76      1.0000 0.00230  0.44840  0.89490  Biso   1.000  H
  O62      1.0000 0.96680  0.36840  0.98770  Biso   1.000  O
  H77      1.0000 0.98650  0.40860  0.02190  Biso   1.000  H
  H78      1.0000 0.97220  0.32390  0.01360  Biso   1.000  H
  O63      1.0000 0.86650  0.21900  0.76490  Biso   1.000  O
  H79      1.0000 0.88170  0.17150  0.78830  Biso   1.000  H
  H80      1.0000 0.82900  0.21490  0.72750  Biso   1.000  H
  O64      1.0000 0.84030  0.29100  0.86970  Biso   1.000  O
  H81      1.0000 0.85790  0.26290  0.91440  Biso   1.000  H
  H82      1.0000 0.81820  0.32840  0.86580  Biso   1.000  H
  N7       1.0000 0.13350  0.23450  0.03580  Biso   1.000  N
  N8       1.0000 0.83830  0.50130  0.74210  Biso   1.000  N
  C43      1.0000 0.17240  0.17640  0.09310  Biso   1.000  C
  C44      1.0000 0.15410  0.10110  0.10430  Biso   1.000  C
  H83      1.0000 0.18270  0.06090  0.14590  Biso   1.000  H
  C45      1.0000 0.09350  0.08650  0.05310  Biso   1.000  C
  H84      1.0000 0.07960  0.03510  0.05810  Biso   1.000  H
  C46      1.0000 0.05340  0.14700  0.99510  Biso   1.000  C
  H85      1.0000 0.01150  0.13850  0.96030  Biso   1.000  H
  C47      1.0000 0.07470  0.22040  0.98780  Biso   1.000  C
  C48      1.0000 0.23770  0.20110  0.14660  Biso   1.000  C
  C49      1.0000 0.03480  0.29210  0.92970  Biso   1.000  C
  C50      1.0000 0.81530  0.55460  0.76150  Biso   1.000  C
  C51      1.0000 0.77400  0.61790  0.70700  Biso   1.000  C
  H86      1.0000 0.75550  0.65220  0.71980  Biso   1.000  H
  C52      1.0000 0.76100  0.62860  0.63360  Biso   1.000  C
  H87      1.0000 0.73360  0.67170  0.59520  Biso   1.000  H
  C53      1.0000 0.78780  0.57650  0.61620  Biso   1.000  C
  H88      1.0000 0.78040  0.58480  0.56700  Biso   1.000  H
  C54      1.0000 0.82560  0.51230  0.67170  Biso   1.000  C
  C55      1.0000 0.83730  0.54050  0.84610  Biso   1.000  C
  C56      1.0000 0.85050  0.44570  0.65350  Biso   1.000  C
  Nd9      1.0000 0.66871  0.12830  0.51411  Biso   1.000  Nd
  Nd10     1.0000 0.38946  0.13655  0.32637  Biso   1.000  Nd
  O65      1.0000 0.74719  0.23090  0.62770  Biso   1.000  O
  O66      1.0000 0.77670  0.34790  0.70480  Biso   1.000  O
  O67      1.0000 0.55950  0.14300  0.43040  Biso   1.000  O
  O68      1.0000 0.47950  0.21520  0.38610  Biso   1.000  O
  O69      1.0000 0.36610  0.02790  0.38260  Biso   1.000  O
  O70      1.0000 0.32670  0.90410  0.37440  Biso   1.000  O
  O71      1.0000 0.37770  0.11720  0.20490  Biso   1.000  O
  O72      1.0000 0.34270  0.04730  0.09090  Biso   1.000  O
  O73      1.0000 0.75260  0.16240  0.51940  Biso   1.000  O
  H89      1.0000 0.76090  0.11300  0.51320  Biso   1.000  H
  H90      1.0000 0.78550  0.18580  0.56140  Biso   1.000  H
  O74      1.0000 0.75270  0.02770  0.61030  Biso   1.000  O
  H91      1.0000 0.75220  0.97820  0.62420  Biso   1.000  H
  H92      1.0000 0.78530  0.03590  0.62330  Biso   1.000  H
  O75      1.0000 0.62270  0.98280  0.48510  Biso   1.000  O
  H93      1.0000 0.63840  0.96220  0.53140  Biso   1.000  H
  H94      1.0000 0.61270  0.94330  0.45200  Biso   1.000  H
  O76      1.0000 0.63340  0.23490  0.39860  Biso   1.000  O
  H95      1.0000 0.59760  0.25370  0.36350  Biso   1.000  H
  H96      1.0000 0.63990  0.20830  0.37150  Biso   1.000  H
  O77      1.0000 0.47210  0.02360  0.37710  Biso   1.000  O
  H97      1.0000 0.45930  0.99460  0.33550  Biso   1.000  H
  H98      1.0000 0.50230  0.05160  0.39490  Biso   1.000  H
  O78      1.0000 0.46680  0.13160  0.48770  Biso   1.000  O
  H99      1.0000 0.48650  0.09140  0.52190  Biso   1.000  H
  H100     1.0000 0.47220  0.17610  0.51360  Biso   1.000  H
  O79      1.0000 0.36650  0.28100  0.26490  Biso   1.000  O
  H101     1.0000 0.38170  0.32850  0.28830  Biso   1.000  H
  H102     1.0000 0.32900  0.28510  0.22750  Biso   1.000  H
  O80      1.0000 0.34030  0.20900  0.36970  Biso   1.000  O
  H103     1.0000 0.35790  0.23710  0.41440  Biso   1.000  H
  H104     1.0000 0.31820  0.17160  0.36580  Biso   1.000  H
  N9       1.0000 0.63350  0.26550  0.53580  Biso   1.000  N
  N10      1.0000 0.33830  0.99870  0.24210  Biso   1.000  N
  C57      1.0000 0.67240  0.32360  0.59310  Biso   1.000  C
  C58      1.0000 0.65410  0.39890  0.60430  Biso   1.000  C
  H105     1.0000 0.68270  0.43910  0.64590  Biso   1.000  H
  C59      1.0000 0.59350  0.41350  0.55310  Biso   1.000  C
  H106     1.0000 0.57960  0.46490  0.55810  Biso   1.000  H
  C60      1.0000 0.55340  0.35300  0.49510  Biso   1.000  C
  H107     1.0000 0.51150  0.36150  0.46030  Biso   1.000  H
  C61      1.0000 0.57470  0.27960  0.48780  Biso   1.000  C
  C62      1.0000 0.73770  0.29890  0.64660  Biso   1.000  C
  C63      1.0000 0.53480  0.20790  0.42970  Biso   1.000  C
  C64      1.0000 0.31530  0.94540  0.26150  Biso   1.000  C
  C65      1.0000 0.27400  0.88210  0.20700  Biso   1.000  C
  H108     1.0000 0.25550  0.84780  0.21980  Biso   1.000  H
  C66      1.0000 0.26100  0.87140  0.13360  Biso   1.000  C
  H109     1.0000 0.23360  0.82830  0.09520  Biso   1.000  H
  C67      1.0000 0.28780  0.92350  0.11620  Biso   1.000  C
  H110     1.0000 0.28040  0.91520  0.06700  Biso   1.000  H
  C68      1.0000 0.32560  0.98770  0.17170  Biso   1.000  C
  C69      1.0000 0.33730  0.95950  0.34610  Biso   1.000  C
  C70      1.0000 0.35050  0.05430  0.15350  Biso   1.000  C
  Nd11     1.0000 0.16871  0.62830  0.51411  Biso   1.000  Nd
  Nd12     1.0000 0.88946  0.63655  0.32637  Biso   1.000  Nd
  O81      1.0000 0.24719  0.73090  0.62770  Biso   1.000  O
  O82      1.0000 0.27670  0.84790  0.70480  Biso   1.000  O
  O83      1.0000 0.05950  0.64300  0.43040  Biso   1.000  O
  O84      1.0000 0.97950  0.71520  0.38610  Biso   1.000  O
  O85      1.0000 0.86610  0.52790  0.38260  Biso   1.000  O
  O86      1.0000 0.82670  0.40410  0.37440  Biso   1.000  O
  O87      1.0000 0.87770  0.61720  0.20490  Biso   1.000  O
  O88      1.0000 0.84270  0.54730  0.09090  Biso   1.000  O
  O89      1.0000 0.25260  0.66240  0.51940  Biso   1.000  O
  H111     1.0000 0.26090  0.61300  0.51320  Biso   1.000  H
  H112     1.0000 0.28550  0.68580  0.56140  Biso   1.000  H
  O90      1.0000 0.25270  0.52770  0.61030  Biso   1.000  O
  H113     1.0000 0.25220  0.47820  0.62420  Biso   1.000  H
  H114     1.0000 0.28530  0.53590  0.62330  Biso   1.000  H
  O91      1.0000 0.12270  0.48280  0.48510  Biso   1.000  O
  H115     1.0000 0.13840  0.46220  0.53140  Biso   1.000  H
  H116     1.0000 0.11270  0.44330  0.45200  Biso   1.000  H
  O92      1.0000 0.13340  0.73490  0.39860  Biso   1.000  O
  H117     1.0000 0.09760  0.75370  0.36350  Biso   1.000  H
  H118     1.0000 0.13990  0.70830  0.37150  Biso   1.000  H
  O93      1.0000 0.97210  0.52360  0.37710  Biso   1.000  O
  H119     1.0000 0.95930  0.49460  0.33550  Biso   1.000  H
  H120     1.0000 0.00230  0.55160  0.39490  Biso   1.000  H
  O94      1.0000 0.96680  0.63160  0.48770  Biso   1.000  O
  H121     1.0000 0.98650  0.59140  0.52190  Biso   1.000  H
  H122     1.0000 0.97220  0.67610  0.51360  Biso   1.000  H
  O95      1.0000 0.86650  0.78100  0.26490  Biso   1.000  O
  H123     1.0000 0.88170  0.82850  0.28830  Biso   1.000  H
  H124     1.0000 0.82900  0.78510  0.22750  Biso   1.000  H
  O96      1.0000 0.84030  0.70900  0.36970  Biso   1.000  O
  H125     1.0000 0.85790  0.73710  0.41440  Biso   1.000  H
  H126     1.0000 0.81820  0.67160  0.36580  Biso   1.000  H
  N11      1.0000 0.13350  0.76550  0.53580  Biso   1.000  N
  N12      1.0000 0.83830  0.49870  0.24210  Biso   1.000  N
  C71      1.0000 0.17240  0.82360  0.59310  Biso   1.000  C
  C72      1.0000 0.15410  0.89890  0.60430  Biso   1.000  C
  H127     1.0000 0.18270  0.93910  0.64590  Biso   1.000  H
  C73      1.0000 0.09350  0.91350  0.55310  Biso   1.000  C
  H128     1.0000 0.07960  0.96490  0.55810  Biso   1.000  H
  C74      1.0000 0.05340  0.85300  0.49510  Biso   1.000  C
  H129     1.0000 0.01150  0.86150  0.46030  Biso   1.000  H
  C75      1.0000 0.07470  0.77960  0.48780  Biso   1.000  C
  C76      1.0000 0.23770  0.79890  0.64660  Biso   1.000  C
  C77      1.0000 0.03480  0.70790  0.42970  Biso   1.000  C
  C78      1.0000 0.81530  0.44540  0.26150  Biso   1.000  C
  C79      1.0000 0.77400  0.38210  0.20700  Biso   1.000  C
  H130     1.0000 0.75550  0.34780  0.21980  Biso   1.000  H
  C80      1.0000 0.76100  0.37140  0.13360  Biso   1.000  C
  H131     1.0000 0.73360  0.32830  0.09520  Biso   1.000  H
  C81      1.0000 0.78780  0.42350  0.11620  Biso   1.000  C
  H132     1.0000 0.78040  0.41520  0.06700  Biso   1.000  H
  C82      1.0000 0.82560  0.48770  0.17170  Biso   1.000  C
  C83      1.0000 0.83730  0.45950  0.34610  Biso   1.000  C
  C84      1.0000 0.85050  0.55430  0.15350  Biso   1.000  C
  Nd13     1.0000 0.33129  0.12830  0.98589  Biso   1.000  Nd
  Nd14     1.0000 0.61055  0.13655  0.17363  Biso   1.000  Nd
  O97      1.0000 0.25281  0.23090  0.87230  Biso   1.000  O
  O98      1.0000 0.22330  0.34790  0.79520  Biso   1.000  O
  O99      1.0000 0.44050  0.14300  0.06960  Biso   1.000  O
  O100     1.0000 0.52050  0.21520  0.11390  Biso   1.000  O
  O101     1.0000 0.63390  0.02790  0.11740  Biso   1.000  O
  O102     1.0000 0.67330  0.90410  0.12560  Biso   1.000  O
  O103     1.0000 0.62230  0.11720  0.29510  Biso   1.000  O
  O104     1.0000 0.65730  0.04730  0.40910  Biso   1.000  O
  O105     1.0000 0.24740  0.16240  0.98060  Biso   1.000  O
  H133     1.0000 0.23910  0.11300  0.98680  Biso   1.000  H
  H134     1.0000 0.21450  0.18580  0.93860  Biso   1.000  H
  O106     1.0000 0.24730  0.02770  0.88970  Biso   1.000  O
  H135     1.0000 0.24780  0.97820  0.87580  Biso   1.000  H
  H136     1.0000 0.21470  0.03590  0.87670  Biso   1.000  H
  O107     1.0000 0.37730  0.98280  0.01490  Biso   1.000  O
  H137     1.0000 0.36160  0.96220  0.96860  Biso   1.000  H
  H138     1.0000 0.38730  0.94330  0.04800  Biso   1.000  H
  O108     1.0000 0.36660  0.23490  0.10140  Biso   1.000  O
  H139     1.0000 0.40240  0.25370  0.13650  Biso   1.000  H
  H140     1.0000 0.36010  0.20830  0.12850  Biso   1.000  H
  O109     1.0000 0.52790  0.02360  0.12290  Biso   1.000  O
  H141     1.0000 0.54070  0.99460  0.16450  Biso   1.000  H
  H142     1.0000 0.49770  0.05160  0.10510  Biso   1.000  H
  O110     1.0000 0.53320  0.13160  0.01230  Biso   1.000  O
  H143     1.0000 0.51350  0.09140  0.97810  Biso   1.000  H
  H144     1.0000 0.52780  0.17610  0.98640  Biso   1.000  H
  O111     1.0000 0.63350  0.28100  0.23510  Biso   1.000  O
  H145     1.0000 0.61830  0.32850  0.21170  Biso   1.000  H
  H146     1.0000 0.67100  0.28510  0.27250  Biso   1.000  H
  O112     1.0000 0.65970  0.20900  0.13030  Biso   1.000  O
  H147     1.0000 0.64210  0.23710  0.08560  Biso   1.000  H
  H148     1.0000 0.68180  0.17160  0.13420  Biso   1.000  H
  N13      1.0000 0.36650  0.26550  0.96420  Biso   1.000  N
  N14      1.0000 0.66170  0.99870  0.25790  Biso   1.000  N
  C85      1.0000 0.32760  0.32360  0.90690  Biso   1.000  C
  C86      1.0000 0.34590  0.39890  0.89570  Biso   1.000  C
  H149     1.0000 0.31730  0.43910  0.85410  Biso   1.000  H
  C87      1.0000 0.40650  0.41350  0.94690  Biso   1.000  C
  H150     1.0000 0.42040  0.46490  0.94190  Biso   1.000  H
  C88      1.0000 0.44660  0.35300  0.00490  Biso   1.000  C
  H151     1.0000 0.48850  0.36150  0.03970  Biso   1.000  H
  C89      1.0000 0.42530  0.27960  0.01220  Biso   1.000  C
  C90      1.0000 0.26230  0.29890  0.85340  Biso   1.000  C
  C91      1.0000 0.46520  0.20790  0.07030  Biso   1.000  C
  C92      1.0000 0.68470  0.94540  0.23850  Biso   1.000  C
  C93      1.0000 0.72600  0.88210  0.29300  Biso   1.000  C
  H152     1.0000 0.74450  0.84780  0.28020  Biso   1.000  H
  C94      1.0000 0.73900  0.87140  0.36640  Biso   1.000  C
  H153     1.0000 0.76640  0.82830  0.40480  Biso   1.000  H
  C95      1.0000 0.71220  0.92350  0.38380  Biso   1.000  C
  H154     1.0000 0.71960  0.91520  0.43300  Biso   1.000  H
  C96      1.0000 0.67440  0.98770  0.32830  Biso   1.000  C
  C97      1.0000 0.66270  0.95950  0.15390  Biso   1.000  C
  C98      1.0000 0.64950  0.05430  0.34650  Biso   1.000  C
  Nd15     1.0000 0.83129  0.62830  0.98589  Biso   1.000  Nd
  Nd16     1.0000 0.11055  0.63655  0.17363  Biso   1.000  Nd
  O113     1.0000 0.75281  0.73090  0.87230  Biso   1.000  O
  O114     1.0000 0.72330  0.84790  0.79520  Biso   1.000  O
  O115     1.0000 0.94050  0.64300  0.06960  Biso   1.000  O
  O116     1.0000 0.02050  0.71520  0.11390  Biso   1.000  O
  O117     1.0000 0.13390  0.52790  0.11740  Biso   1.000  O
  O118     1.0000 0.17330  0.40410  0.12560  Biso   1.000  O
  O119     1.0000 0.12230  0.61720  0.29510  Biso   1.000  O
  O120     1.0000 0.15730  0.54730  0.40910  Biso   1.000  O
  O121     1.0000 0.74740  0.66240  0.98060  Biso   1.000  O
  H155     1.0000 0.73910  0.61300  0.98680  Biso   1.000  H
  H156     1.0000 0.71450  0.68580  0.93860  Biso   1.000  H
  O122     1.0000 0.74730  0.52770  0.88970  Biso   1.000  O
  H157     1.0000 0.74780  0.47820  0.87580  Biso   1.000  H
  H158     1.0000 0.71470  0.53590  0.87670  Biso   1.000  H
  O123     1.0000 0.87730  0.48280  0.01490  Biso   1.000  O
  H159     1.0000 0.86160  0.46220  0.96860  Biso   1.000  H
  H160     1.0000 0.88730  0.44330  0.04800  Biso   1.000  H
  O124     1.0000 0.86660  0.73490  0.10140  Biso   1.000  O
  H161     1.0000 0.90240  0.75370  0.13650  Biso   1.000  H
  H162     1.0000 0.86010  0.70830  0.12850  Biso   1.000  H
  O125     1.0000 0.02790  0.52360  0.12290  Biso   1.000  O
  H163     1.0000 0.04070  0.49460  0.16450  Biso   1.000  H
  H164     1.0000 0.99770  0.55160  0.10510  Biso   1.000  H
  O126     1.0000 0.03320  0.63160  0.01230  Biso   1.000  O
  H165     1.0000 0.01350  0.59140  0.97810  Biso   1.000  H
  H166     1.0000 0.02780  0.67610  0.98640  Biso   1.000  H
  O127     1.0000 0.13350  0.78100  0.23510  Biso   1.000  O
  H167     1.0000 0.11830  0.82850  0.21170  Biso   1.000  H
  H168     1.0000 0.17100  0.78510  0.27250  Biso   1.000  H
  O128     1.0000 0.15970  0.70900  0.13030  Biso   1.000  O
  H169     1.0000 0.14210  0.73710  0.08560  Biso   1.000  H
  H170     1.0000 0.18180  0.67160  0.13420  Biso   1.000  H
  N15      1.0000 0.86650  0.76550  0.96420  Biso   1.000  N
  N16      1.0000 0.16170  0.49870  0.25790  Biso   1.000  N
  C99      1.0000 0.82760  0.82360  0.90690  Biso   1.000  C
  C100     1.0000 0.84590  0.89890  0.89570  Biso   1.000  C
  H171     1.0000 0.81730  0.93910  0.85410  Biso   1.000  H
  C101     1.0000 0.90650  0.91350  0.94690  Biso   1.000  C
  H172     1.0000 0.92040  0.96490  0.94190  Biso   1.000  H
  C102     1.0000 0.94660  0.85300  0.00490  Biso   1.000  C
  H173     1.0000 0.98850  0.86150  0.03970  Biso   1.000  H
  C103     1.0000 0.92530  0.77960  0.01220  Biso   1.000  C
  C104     1.0000 0.76230  0.79890  0.85340  Biso   1.000  C
  C105     1.0000 0.96520  0.70790  0.07030  Biso   1.000  C
  C106     1.0000 0.18470  0.44540  0.23850  Biso   1.000  C
  C107     1.0000 0.22600  0.38210  0.29300  Biso   1.000  C
  H174     1.0000 0.24450  0.34780  0.28020  Biso   1.000  H
  C108     1.0000 0.23900  0.37140  0.36640  Biso   1.000  C
  H175     1.0000 0.26640  0.32830  0.40480  Biso   1.000  H
  C109     1.0000 0.21220  0.42350  0.38380  Biso   1.000  C
  H176     1.0000 0.21960  0.41520  0.43300  Biso   1.000  H
  C110     1.0000 0.17440  0.48770  0.32830  Biso   1.000  C
  C111     1.0000 0.16270  0.45950  0.15390  Biso   1.000  C
  C112     1.0000 0.14950  0.55430  0.34650  Biso   1.000  C
