data_image0
_cell_length_a       30.644
_cell_length_b       15.6647
_cell_length_c       22.023
_cell_angle_alpha    90
_cell_angle_beta     133.135
_cell_angle_gamma    90

_symmetry_space_group_name_H-M    "P 1"
_symmetry_int_tables_number       1

loop_
  _symmetry_equiv_pos_as_xyz
  'x, y, z'

loop_
  _atom_site_label
  _atom_site_occupancy
  _atom_site_fract_x
  _atom_site_fract_y
  _atom_site_fract_z
  _atom_site_thermal_displace_type
  _atom_site_B_iso_or_equiv
  _atom_site_type_symbol
  Pr1      1.0000 0.33127  0.87141  0.48605  Biso   1.000  Pr
  Pr2      1.0000 0.61052  0.86318  0.67293  Biso   1.000  Pr
  O1       1.0000 0.25300  0.76790  0.37230  Biso   1.000  O
  O2       1.0000 0.22360  0.65170  0.29460  Biso   1.000  O
  O3       1.0000 0.44050  0.85640  0.56940  Biso   1.000  O
  O4       1.0000 0.52030  0.78390  0.61360  Biso   1.000  O
  O5       1.0000 0.63410  0.97290  0.61760  Biso   1.000  O
  O6       1.0000 0.67410  0.09670  0.62630  Biso   1.000  O
  O7       1.0000 0.62250  0.88350  0.79520  Biso   1.000  O
  O8       1.0000 0.65710  0.95350  0.90860  Biso   1.000  O
  O9       1.0000 0.24730  0.83780  0.48090  Biso   1.000  O
  H1       1.0000 0.23900  0.88720  0.48710  Biso   1.000  H
  H2       1.0000 0.21450  0.81450  0.43890  Biso   1.000  H
  O10      1.0000 0.24660  0.97250  0.38850  Biso   1.000  O
  H3       1.0000 0.24720  0.02200  0.37460  Biso   1.000  H
  H4       1.0000 0.21400  0.96430  0.37550  Biso   1.000  H
  O11      1.0000 0.37780  0.01750  0.51530  Biso   1.000  O
  H5       1.0000 0.36210  0.03810  0.46900  Biso   1.000  H
  H6       1.0000 0.38780  0.05700  0.54840  Biso   1.000  H
  O12      1.0000 0.36700  0.76470  0.60280  Biso   1.000  O
  H7       1.0000 0.40290  0.74590  0.63790  Biso   1.000  H
  H8       1.0000 0.36050  0.79130  0.62980  Biso   1.000  H
  O13      1.0000 0.52700  0.97670  0.62220  Biso   1.000  O
  H9       1.0000 0.53990  0.00560  0.66380  Biso   1.000  H
  H10      1.0000 0.49680  0.94870  0.60440  Biso   1.000  H
  O14      1.0000 0.53250  0.86920  0.51020  Biso   1.000  O
  H11      1.0000 0.51280  0.90940  0.47600  Biso   1.000  H
  H12      1.0000 0.52710  0.82480  0.48430  Biso   1.000  H
  O15      1.0000 0.63440  0.71820  0.73560  Biso   1.000  O
  H13      1.0000 0.61930  0.67080  0.71210  Biso   1.000  H
  H14      1.0000 0.67190  0.71420  0.77290  Biso   1.000  H
  O16      1.0000 0.66020  0.79140  0.62940  Biso   1.000  O
  H15      1.0000 0.64250  0.76330  0.58460  Biso   1.000  H
  H16      1.0000 0.68230  0.82880  0.63320  Biso   1.000  H
  N1       1.0000 0.36670  0.73390  0.46400  Biso   1.000  N
  N2       1.0000 0.66180  0.00140  0.75780  Biso   1.000  N
  C1       1.0000 0.32770  0.67600  0.40680  Biso   1.000  C
  C2       1.0000 0.34610  0.60080  0.39590  Biso   1.000  C
  H17      1.0000 0.31750  0.56090  0.35410  Biso   1.000  H
  C3       1.0000 0.40680  0.58550  0.44690  Biso   1.000  C
  H18      1.0000 0.42050  0.53400  0.44180  Biso   1.000  H
  C4       1.0000 0.44690  0.64550  0.50490  Biso   1.000  C
  H19      1.0000 0.48860  0.63650  0.53960  Biso   1.000  H
  C5       1.0000 0.42580  0.71980  0.51240  Biso   1.000  C
  C6       1.0000 0.26320  0.69940  0.35400  Biso   1.000  C
  C7       1.0000 0.46550  0.79120  0.57000  Biso   1.000  C
  C8       1.0000 0.68490  0.05490  0.73900  Biso   1.000  C
  C9       1.0000 0.72600  0.11740  0.79320  Biso   1.000  C
  H20      1.0000 0.74460  0.15140  0.78060  Biso   1.000  H
  C10      1.0000 0.73900  0.12880  0.86670  Biso   1.000  C
  H21      1.0000 0.76590  0.17210  0.90500  Biso   1.000  H
  C11      1.0000 0.71240  0.07660  0.88320  Biso   1.000  C
  H22      1.0000 0.71990  0.08470  0.93250  Biso   1.000  H
  C12      1.0000 0.67470  0.01250  0.82860  Biso   1.000  C
  C13      1.0000 0.66270  0.04120  0.65440  Biso   1.000  C
  C14      1.0000 0.64900  0.94570  0.84560  Biso   1.000  C
  Pr3      1.0000 0.83127  0.37141  0.48605  Biso   1.000  Pr
  Pr4      1.0000 0.11052  0.36318  0.67293  Biso   1.000  Pr
  O17      1.0000 0.75300  0.26790  0.37230  Biso   1.000  O
  O18      1.0000 0.72360  0.15170  0.29460  Biso   1.000  O
  O19      1.0000 0.94050  0.35640  0.56940  Biso   1.000  O
  O20      1.0000 0.02030  0.28390  0.61360  Biso   1.000  O
  O21      1.0000 0.13410  0.47290  0.61760  Biso   1.000  O
  O22      1.0000 0.17410  0.59670  0.62630  Biso   1.000  O
  O23      1.0000 0.12250  0.38350  0.79520  Biso   1.000  O
  O24      1.0000 0.15710  0.45350  0.90860  Biso   1.000  O
  O25      1.0000 0.74730  0.33780  0.48090  Biso   1.000  O
  H23      1.0000 0.73900  0.38720  0.48710  Biso   1.000  H
  H24      1.0000 0.71450  0.31450  0.43890  Biso   1.000  H
  O26      1.0000 0.74660  0.47250  0.38850  Biso   1.000  O
  H25      1.0000 0.74720  0.52200  0.37460  Biso   1.000  H
  H26      1.0000 0.71400  0.46430  0.37550  Biso   1.000  H
  O27      1.0000 0.87780  0.51750  0.51530  Biso   1.000  O
  H27      1.0000 0.86210  0.53810  0.46900  Biso   1.000  H
  H28      1.0000 0.88780  0.55700  0.54840  Biso   1.000  H
  O28      1.0000 0.86700  0.26470  0.60280  Biso   1.000  O
  H29      1.0000 0.90290  0.24590  0.63790  Biso   1.000  H
  H30      1.0000 0.86050  0.29130  0.62980  Biso   1.000  H
  O29      1.0000 0.02700  0.47670  0.62220  Biso   1.000  O
  H31      1.0000 0.03990  0.50560  0.66380  Biso   1.000  H
  H32      1.0000 0.99680  0.44870  0.60440  Biso   1.000  H
  O30      1.0000 0.03250  0.36920  0.51020  Biso   1.000  O
  H33      1.0000 0.01280  0.40940  0.47600  Biso   1.000  H
  H34      1.0000 0.02710  0.32480  0.48430  Biso   1.000  H
  O31      1.0000 0.13440  0.21820  0.73560  Biso   1.000  O
  H35      1.0000 0.11930  0.17080  0.71210  Biso   1.000  H
  H36      1.0000 0.17190  0.21420  0.77290  Biso   1.000  H
  O32      1.0000 0.16020  0.29140  0.62940  Biso   1.000  O
  H37      1.0000 0.14250  0.26330  0.58460  Biso   1.000  H
  H38      1.0000 0.18230  0.32880  0.63320  Biso   1.000  H
  N3       1.0000 0.86670  0.23390  0.46400  Biso   1.000  N
  N4       1.0000 0.16180  0.50140  0.75780  Biso   1.000  N
  C15      1.0000 0.82770  0.17600  0.40680  Biso   1.000  C
  C16      1.0000 0.84610  0.10080  0.39590  Biso   1.000  C
  H39      1.0000 0.81750  0.06090  0.35410  Biso   1.000  H
  C17      1.0000 0.90680  0.08550  0.44690  Biso   1.000  C
  H40      1.0000 0.92050  0.03400  0.44180  Biso   1.000  H
  C18      1.0000 0.94690  0.14550  0.50490  Biso   1.000  C
  H41      1.0000 0.98860  0.13650  0.53960  Biso   1.000  H
  C19      1.0000 0.92580  0.21980  0.51240  Biso   1.000  C
  C20      1.0000 0.76320  0.19940  0.35400  Biso   1.000  C
  C21      1.0000 0.96550  0.29120  0.57000  Biso   1.000  C
  C22      1.0000 0.18490  0.55490  0.73900  Biso   1.000  C
  C23      1.0000 0.22600  0.61740  0.79320  Biso   1.000  C
  H42      1.0000 0.24460  0.65140  0.78060  Biso   1.000  H
  C24      1.0000 0.23900  0.62880  0.86670  Biso   1.000  C
  H43      1.0000 0.26590  0.67210  0.90500  Biso   1.000  H
  C25      1.0000 0.21240  0.57660  0.88320  Biso   1.000  C
  H44      1.0000 0.21990  0.58470  0.93250  Biso   1.000  H
  C26      1.0000 0.17470  0.51250  0.82860  Biso   1.000  C
  C27      1.0000 0.16270  0.54120  0.65440  Biso   1.000  C
  C28      1.0000 0.14900  0.44570  0.84560  Biso   1.000  C
  Pr5      1.0000 0.66873  0.87141  0.01395  Biso   1.000  Pr
  Pr6      1.0000 0.38948  0.86318  0.82707  Biso   1.000  Pr
  O33      1.0000 0.74700  0.76790  0.12770  Biso   1.000  O
  O34      1.0000 0.77640  0.65170  0.20540  Biso   1.000  O
  O35      1.0000 0.55950  0.85640  0.93060  Biso   1.000  O
  O36      1.0000 0.47970  0.78390  0.88640  Biso   1.000  O
  O37      1.0000 0.36590  0.97290  0.88240  Biso   1.000  O
  O38      1.0000 0.32590  0.09670  0.87370  Biso   1.000  O
  O39      1.0000 0.37750  0.88350  0.70480  Biso   1.000  O
  O40      1.0000 0.34290  0.95350  0.59140  Biso   1.000  O
  O41      1.0000 0.75270  0.83780  0.01910  Biso   1.000  O
  H45      1.0000 0.76100  0.88720  0.01290  Biso   1.000  H
  H46      1.0000 0.78550  0.81450  0.06110  Biso   1.000  H
  O42      1.0000 0.75340  0.97250  0.11150  Biso   1.000  O
  H47      1.0000 0.75280  0.02200  0.12540  Biso   1.000  H
  H48      1.0000 0.78600  0.96430  0.12450  Biso   1.000  H
  O43      1.0000 0.62220  0.01750  0.98470  Biso   1.000  O
  H49      1.0000 0.63790  0.03810  0.03100  Biso   1.000  H
  H50      1.0000 0.61220  0.05700  0.95160  Biso   1.000  H
  O44      1.0000 0.63300  0.76470  0.89720  Biso   1.000  O
  H51      1.0000 0.59710  0.74590  0.86210  Biso   1.000  H
  H52      1.0000 0.63950  0.79130  0.87020  Biso   1.000  H
  O45      1.0000 0.47300  0.97670  0.87780  Biso   1.000  O
  H53      1.0000 0.46010  0.00560  0.83620  Biso   1.000  H
  H54      1.0000 0.50320  0.94870  0.89560  Biso   1.000  H
  O46      1.0000 0.46750  0.86920  0.98980  Biso   1.000  O
  H55      1.0000 0.48720  0.90940  0.02400  Biso   1.000  H
  H56      1.0000 0.47290  0.82480  0.01570  Biso   1.000  H
  O47      1.0000 0.36560  0.71820  0.76440  Biso   1.000  O
  H57      1.0000 0.38070  0.67080  0.78790  Biso   1.000  H
  H58      1.0000 0.32810  0.71420  0.72710  Biso   1.000  H
  O48      1.0000 0.33980  0.79140  0.87060  Biso   1.000  O
  H59      1.0000 0.35750  0.76330  0.91540  Biso   1.000  H
  H60      1.0000 0.31770  0.82880  0.86680  Biso   1.000  H
  N5       1.0000 0.63330  0.73390  0.03600  Biso   1.000  N
  N6       1.0000 0.33820  0.00140  0.74220  Biso   1.000  N
  C29      1.0000 0.67230  0.67600  0.09320  Biso   1.000  C
  C30      1.0000 0.65390  0.60080  0.10410  Biso   1.000  C
  H61      1.0000 0.68250  0.56090  0.14590  Biso   1.000  H
  C31      1.0000 0.59320  0.58550  0.05310  Biso   1.000  C
  H62      1.0000 0.57950  0.53400  0.05820  Biso   1.000  H
  C32      1.0000 0.55310  0.64550  0.99510  Biso   1.000  C
  H63      1.0000 0.51140  0.63650  0.96040  Biso   1.000  H
  C33      1.0000 0.57420  0.71980  0.98760  Biso   1.000  C
  C34      1.0000 0.73680  0.69940  0.14600  Biso   1.000  C
  C35      1.0000 0.53450  0.79120  0.93000  Biso   1.000  C
  C36      1.0000 0.31510  0.05490  0.76100  Biso   1.000  C
  C37      1.0000 0.27400  0.11740  0.70680  Biso   1.000  C
  H64      1.0000 0.25540  0.15140  0.71940  Biso   1.000  H
  C38      1.0000 0.26100  0.12880  0.63330  Biso   1.000  C
  H65      1.0000 0.23410  0.17210  0.59500  Biso   1.000  H
  C39      1.0000 0.28760  0.07660  0.61680  Biso   1.000  C
  H66      1.0000 0.28010  0.08470  0.56750  Biso   1.000  H
  C40      1.0000 0.32530  0.01250  0.67140  Biso   1.000  C
  C41      1.0000 0.33730  0.04120  0.84560  Biso   1.000  C
  C42      1.0000 0.35100  0.94570  0.65440  Biso   1.000  C
  Pr7      1.0000 0.16873  0.37141  0.01395  Biso   1.000  Pr
  Pr8      1.0000 0.88948  0.36318  0.82707  Biso   1.000  Pr
  O49      1.0000 0.24700  0.26790  0.12770  Biso   1.000  O
  O50      1.0000 0.27640  0.15170  0.20540  Biso   1.000  O
  O51      1.0000 0.05950  0.35640  0.93060  Biso   1.000  O
  O52      1.0000 0.97970  0.28390  0.88640  Biso   1.000  O
  O53      1.0000 0.86590  0.47290  0.88240  Biso   1.000  O
  O54      1.0000 0.82590  0.59670  0.87370  Biso   1.000  O
  O55      1.0000 0.87750  0.38350  0.70480  Biso   1.000  O
  O56      1.0000 0.84290  0.45350  0.59140  Biso   1.000  O
  O57      1.0000 0.25270  0.33780  0.01910  Biso   1.000  O
  H67      1.0000 0.26100  0.38720  0.01290  Biso   1.000  H
  H68      1.0000 0.28550  0.31450  0.06110  Biso   1.000  H
  O58      1.0000 0.25340  0.47250  0.11150  Biso   1.000  O
  H69      1.0000 0.25280  0.52200  0.12540  Biso   1.000  H
  H70      1.0000 0.28600  0.46430  0.12450  Biso   1.000  H
  O59      1.0000 0.12220  0.51750  0.98470  Biso   1.000  O
  H71      1.0000 0.13790  0.53810  0.03100  Biso   1.000  H
  H72      1.0000 0.11220  0.55700  0.95160  Biso   1.000  H
  O60      1.0000 0.13300  0.26470  0.89720  Biso   1.000  O
  H73      1.0000 0.09710  0.24590  0.86210  Biso   1.000  H
  H74      1.0000 0.13950  0.29130  0.87020  Biso   1.000  H
  O61      1.0000 0.97300  0.47670  0.87780  Biso   1.000  O
  H75      1.0000 0.96010  0.50560  0.83620  Biso   1.000  H
  H76      1.0000 0.00320  0.44870  0.89560  Biso   1.000  H
  O62      1.0000 0.96750  0.36920  0.98980  Biso   1.000  O
  H77      1.0000 0.98720  0.40940  0.02400  Biso   1.000  H
  H78      1.0000 0.97290  0.32480  0.01570  Biso   1.000  H
  O63      1.0000 0.86560  0.21820  0.76440  Biso   1.000  O
  H79      1.0000 0.88070  0.17080  0.78790  Biso   1.000  H
  H80      1.0000 0.82810  0.21420  0.72710  Biso   1.000  H
  O64      1.0000 0.83980  0.29140  0.87060  Biso   1.000  O
  H81      1.0000 0.85750  0.26330  0.91540  Biso   1.000  H
  H82      1.0000 0.81770  0.32880  0.86680  Biso   1.000  H
  N7       1.0000 0.13330  0.23390  0.03600  Biso   1.000  N
  N8       1.0000 0.83820  0.50140  0.74220  Biso   1.000  N
  C43      1.0000 0.17230  0.17600  0.09320  Biso   1.000  C
  C44      1.0000 0.15390  0.10080  0.10410  Biso   1.000  C
  H83      1.0000 0.18250  0.06090  0.14590  Biso   1.000  H
  C45      1.0000 0.09320  0.08550  0.05310  Biso   1.000  C
  H84      1.0000 0.07950  0.03400  0.05820  Biso   1.000  H
  C46      1.0000 0.05310  0.14550  0.99510  Biso   1.000  C
  H85      1.0000 0.01140  0.13650  0.96040  Biso   1.000  H
  C47      1.0000 0.07420  0.21980  0.98760  Biso   1.000  C
  C48      1.0000 0.23680  0.19940  0.14600  Biso   1.000  C
  C49      1.0000 0.03450  0.29120  0.93000  Biso   1.000  C
  C50      1.0000 0.81510  0.55490  0.76100  Biso   1.000  C
  C51      1.0000 0.77400  0.61740  0.70680  Biso   1.000  C
  H86      1.0000 0.75540  0.65140  0.71940  Biso   1.000  H
  C52      1.0000 0.76100  0.62880  0.63330  Biso   1.000  C
  H87      1.0000 0.73410  0.67210  0.59500  Biso   1.000  H
  C53      1.0000 0.78760  0.57660  0.61680  Biso   1.000  C
  H88      1.0000 0.78010  0.58470  0.56750  Biso   1.000  H
  C54      1.0000 0.82530  0.51250  0.67140  Biso   1.000  C
  C55      1.0000 0.83730  0.54120  0.84560  Biso   1.000  C
  C56      1.0000 0.85100  0.44570  0.65440  Biso   1.000  C
  Pr9      1.0000 0.66873  0.12859  0.51395  Biso   1.000  Pr
  Pr10     1.0000 0.38948  0.13682  0.32707  Biso   1.000  Pr
  O65      1.0000 0.74700  0.23210  0.62770  Biso   1.000  O
  O66      1.0000 0.77640  0.34830  0.70540  Biso   1.000  O
  O67      1.0000 0.55950  0.14360  0.43060  Biso   1.000  O
  O68      1.0000 0.47970  0.21610  0.38640  Biso   1.000  O
  O69      1.0000 0.36590  0.02710  0.38240  Biso   1.000  O
  O70      1.0000 0.32590  0.90330  0.37370  Biso   1.000  O
  O71      1.0000 0.37750  0.11650  0.20480  Biso   1.000  O
  O72      1.0000 0.34290  0.04650  0.09140  Biso   1.000  O
  O73      1.0000 0.75270  0.16220  0.51910  Biso   1.000  O
  H89      1.0000 0.76100  0.11280  0.51290  Biso   1.000  H
  H90      1.0000 0.78550  0.18550  0.56110  Biso   1.000  H
  O74      1.0000 0.75340  0.02750  0.61150  Biso   1.000  O
  H91      1.0000 0.75280  0.97800  0.62540  Biso   1.000  H
  H92      1.0000 0.78600  0.03570  0.62450  Biso   1.000  H
  O75      1.0000 0.62220  0.98250  0.48470  Biso   1.000  O
  H93      1.0000 0.63790  0.96190  0.53100  Biso   1.000  H
  H94      1.0000 0.61220  0.94300  0.45160  Biso   1.000  H
  O76      1.0000 0.63300  0.23530  0.39720  Biso   1.000  O
  H95      1.0000 0.59710  0.25410  0.36210  Biso   1.000  H
  H96      1.0000 0.63950  0.20870  0.37020  Biso   1.000  H
  O77      1.0000 0.47300  0.02330  0.37780  Biso   1.000  O
  H97      1.0000 0.46010  0.99440  0.33620  Biso   1.000  H
  H98      1.0000 0.50320  0.05130  0.39560  Biso   1.000  H
  O78      1.0000 0.46750  0.13080  0.48980  Biso   1.000  O
  H99      1.0000 0.48720  0.09060  0.52400  Biso   1.000  H
  H100     1.0000 0.47290  0.17520  0.51570  Biso   1.000  H
  O79      1.0000 0.36560  0.28180  0.26440  Biso   1.000  O
  H101     1.0000 0.38070  0.32920  0.28790  Biso   1.000  H
  H102     1.0000 0.32810  0.28580  0.22710  Biso   1.000  H
  O80      1.0000 0.33980  0.20860  0.37060  Biso   1.000  O
  H103     1.0000 0.35750  0.23670  0.41540  Biso   1.000  H
  H104     1.0000 0.31770  0.17120  0.36680  Biso   1.000  H
  N9       1.0000 0.63330  0.26610  0.53600  Biso   1.000  N
  N10      1.0000 0.33820  0.99860  0.24220  Biso   1.000  N
  C57      1.0000 0.67230  0.32400  0.59320  Biso   1.000  C
  C58      1.0000 0.65390  0.39920  0.60410  Biso   1.000  C
  H105     1.0000 0.68250  0.43910  0.64590  Biso   1.000  H
  C59      1.0000 0.59320  0.41450  0.55310  Biso   1.000  C
  H106     1.0000 0.57950  0.46600  0.55820  Biso   1.000  H
  C60      1.0000 0.55310  0.35450  0.49510  Biso   1.000  C
  H107     1.0000 0.51140  0.36350  0.46040  Biso   1.000  H
  C61      1.0000 0.57420  0.28020  0.48760  Biso   1.000  C
  C62      1.0000 0.73680  0.30060  0.64600  Biso   1.000  C
  C63      1.0000 0.53450  0.20880  0.43000  Biso   1.000  C
  C64      1.0000 0.31510  0.94510  0.26100  Biso   1.000  C
  C65      1.0000 0.27400  0.88260  0.20680  Biso   1.000  C
  H108     1.0000 0.25540  0.84860  0.21940  Biso   1.000  H
  C66      1.0000 0.26100  0.87120  0.13330  Biso   1.000  C
  H109     1.0000 0.23410  0.82790  0.09500  Biso   1.000  H
  C67      1.0000 0.28760  0.92340  0.11680  Biso   1.000  C
  H110     1.0000 0.28010  0.91530  0.06750  Biso   1.000  H
  C68      1.0000 0.32530  0.98750  0.17140  Biso   1.000  C
  C69      1.0000 0.33730  0.95880  0.34560  Biso   1.000  C
  C70      1.0000 0.35100  0.05430  0.15440  Biso   1.000  C
  Pr11     1.0000 0.16873  0.62859  0.51395  Biso   1.000  Pr
  Pr12     1.0000 0.88948  0.63682  0.32707  Biso   1.000  Pr
  O81      1.0000 0.24700  0.73210  0.62770  Biso   1.000  O
  O82      1.0000 0.27640  0.84830  0.70540  Biso   1.000  O
  O83      1.0000 0.05950  0.64360  0.43060  Biso   1.000  O
  O84      1.0000 0.97970  0.71610  0.38640  Biso   1.000  O
  O85      1.0000 0.86590  0.52710  0.38240  Biso   1.000  O
  O86      1.0000 0.82590  0.40330  0.37370  Biso   1.000  O
  O87      1.0000 0.87750  0.61650  0.20480  Biso   1.000  O
  O88      1.0000 0.84290  0.54650  0.09140  Biso   1.000  O
  O89      1.0000 0.25270  0.66220  0.51910  Biso   1.000  O
  H111     1.0000 0.26100  0.61280  0.51290  Biso   1.000  H
  H112     1.0000 0.28550  0.68550  0.56110  Biso   1.000  H
  O90      1.0000 0.25340  0.52750  0.61150  Biso   1.000  O
  H113     1.0000 0.25280  0.47800  0.62540  Biso   1.000  H
  H114     1.0000 0.28600  0.53570  0.62450  Biso   1.000  H
  O91      1.0000 0.12220  0.48250  0.48470  Biso   1.000  O
  H115     1.0000 0.13790  0.46190  0.53100  Biso   1.000  H
  H116     1.0000 0.11220  0.44300  0.45160  Biso   1.000  H
  O92      1.0000 0.13300  0.73530  0.39720  Biso   1.000  O
  H117     1.0000 0.09710  0.75410  0.36210  Biso   1.000  H
  H118     1.0000 0.13950  0.70870  0.37020  Biso   1.000  H
  O93      1.0000 0.97300  0.52330  0.37780  Biso   1.000  O
  H119     1.0000 0.96010  0.49440  0.33620  Biso   1.000  H
  H120     1.0000 0.00320  0.55130  0.39560  Biso   1.000  H
  O94      1.0000 0.96750  0.63080  0.48980  Biso   1.000  O
  H121     1.0000 0.98720  0.59060  0.52400  Biso   1.000  H
  H122     1.0000 0.97290  0.67520  0.51570  Biso   1.000  H
  O95      1.0000 0.86560  0.78180  0.26440  Biso   1.000  O
  H123     1.0000 0.88070  0.82920  0.28790  Biso   1.000  H
  H124     1.0000 0.82810  0.78580  0.22710  Biso   1.000  H
  O96      1.0000 0.83980  0.70860  0.37060  Biso   1.000  O
  H125     1.0000 0.85750  0.73670  0.41540  Biso   1.000  H
  H126     1.0000 0.81770  0.67120  0.36680  Biso   1.000  H
  N11      1.0000 0.13330  0.76610  0.53600  Biso   1.000  N
  N12      1.0000 0.83820  0.49860  0.24220  Biso   1.000  N
  C71      1.0000 0.17230  0.82400  0.59320  Biso   1.000  C
  C72      1.0000 0.15390  0.89920  0.60410  Biso   1.000  C
  H127     1.0000 0.18250  0.93910  0.64590  Biso   1.000  H
  C73      1.0000 0.09320  0.91450  0.55310  Biso   1.000  C
  H128     1.0000 0.07950  0.96600  0.55820  Biso   1.000  H
  C74      1.0000 0.05310  0.85450  0.49510  Biso   1.000  C
  H129     1.0000 0.01140  0.86350  0.46040  Biso   1.000  H
  C75      1.0000 0.07420  0.78020  0.48760  Biso   1.000  C
  C76      1.0000 0.23680  0.80060  0.64600  Biso   1.000  C
  C77      1.0000 0.03450  0.70880  0.43000  Biso   1.000  C
  C78      1.0000 0.81510  0.44510  0.26100  Biso   1.000  C
  C79      1.0000 0.77400  0.38260  0.20680  Biso   1.000  C
  H130     1.0000 0.75540  0.34860  0.21940  Biso   1.000  H
  C80      1.0000 0.76100  0.37120  0.13330  Biso   1.000  C
  H131     1.0000 0.73410  0.32790  0.09500  Biso   1.000  H
  C81      1.0000 0.78760  0.42340  0.11680  Biso   1.000  C
  H132     1.0000 0.78010  0.41530  0.06750  Biso   1.000  H
  C82      1.0000 0.82530  0.48750  0.17140  Biso   1.000  C
  C83      1.0000 0.83730  0.45880  0.34560  Biso   1.000  C
  C84      1.0000 0.85100  0.55430  0.15440  Biso   1.000  C
  Pr13     1.0000 0.33127  0.12859  0.98605  Biso   1.000  Pr
  Pr14     1.0000 0.61052  0.13682  0.17293  Biso   1.000  Pr
  O97      1.0000 0.25300  0.23210  0.87230  Biso   1.000  O
  O98      1.0000 0.22360  0.34830  0.79460  Biso   1.000  O
  O99      1.0000 0.44050  0.14360  0.06940  Biso   1.000  O
  O100     1.0000 0.52030  0.21610  0.11360  Biso   1.000  O
  O101     1.0000 0.63410  0.02710  0.11760  Biso   1.000  O
  O102     1.0000 0.67410  0.90330  0.12630  Biso   1.000  O
  O103     1.0000 0.62250  0.11650  0.29520  Biso   1.000  O
  O104     1.0000 0.65710  0.04650  0.40860  Biso   1.000  O
  O105     1.0000 0.24730  0.16220  0.98090  Biso   1.000  O
  H133     1.0000 0.23900  0.11280  0.98710  Biso   1.000  H
  H134     1.0000 0.21450  0.18550  0.93890  Biso   1.000  H
  O106     1.0000 0.24660  0.02750  0.88850  Biso   1.000  O
  H135     1.0000 0.24720  0.97800  0.87460  Biso   1.000  H
  H136     1.0000 0.21400  0.03570  0.87550  Biso   1.000  H
  O107     1.0000 0.37780  0.98250  0.01530  Biso   1.000  O
  H137     1.0000 0.36210  0.96190  0.96900  Biso   1.000  H
  H138     1.0000 0.38780  0.94300  0.04840  Biso   1.000  H
  O108     1.0000 0.36700  0.23530  0.10280  Biso   1.000  O
  H139     1.0000 0.40290  0.25410  0.13790  Biso   1.000  H
  H140     1.0000 0.36050  0.20870  0.12980  Biso   1.000  H
  O109     1.0000 0.52700  0.02330  0.12220  Biso   1.000  O
  H141     1.0000 0.53990  0.99440  0.16380  Biso   1.000  H
  H142     1.0000 0.49680  0.05130  0.10440  Biso   1.000  H
  O110     1.0000 0.53250  0.13080  0.01020  Biso   1.000  O
  H143     1.0000 0.51280  0.09060  0.97600  Biso   1.000  H
  H144     1.0000 0.52710  0.17520  0.98430  Biso   1.000  H
  O111     1.0000 0.63440  0.28180  0.23560  Biso   1.000  O
  H145     1.0000 0.61930  0.32920  0.21210  Biso   1.000  H
  H146     1.0000 0.67190  0.28580  0.27290  Biso   1.000  H
  O112     1.0000 0.66020  0.20860  0.12940  Biso   1.000  O
  H147     1.0000 0.64250  0.23670  0.08460  Biso   1.000  H
  H148     1.0000 0.68230  0.17120  0.13320  Biso   1.000  H
  N13      1.0000 0.36670  0.26610  0.96400  Biso   1.000  N
  N14      1.0000 0.66180  0.99860  0.25780  Biso   1.000  N
  C85      1.0000 0.32770  0.32400  0.90680  Biso   1.000  C
  C86      1.0000 0.34610  0.39920  0.89590  Biso   1.000  C
  H149     1.0000 0.31750  0.43910  0.85410  Biso   1.000  H
  C87      1.0000 0.40680  0.41450  0.94690  Biso   1.000  C
  H150     1.0000 0.42050  0.46600  0.94180  Biso   1.000  H
  C88      1.0000 0.44690  0.35450  0.00490  Biso   1.000  C
  H151     1.0000 0.48860  0.36350  0.03960  Biso   1.000  H
  C89      1.0000 0.42580  0.28020  0.01240  Biso   1.000  C
  C90      1.0000 0.26320  0.30060  0.85400  Biso   1.000  C
  C91      1.0000 0.46550  0.20880  0.07000  Biso   1.000  C
  C92      1.0000 0.68490  0.94510  0.23900  Biso   1.000  C
  C93      1.0000 0.72600  0.88260  0.29320  Biso   1.000  C
  H152     1.0000 0.74460  0.84860  0.28060  Biso   1.000  H
  C94      1.0000 0.73900  0.87120  0.36670  Biso   1.000  C
  H153     1.0000 0.76590  0.82790  0.40500  Biso   1.000  H
  C95      1.0000 0.71240  0.92340  0.38320  Biso   1.000  C
  H154     1.0000 0.71990  0.91530  0.43250  Biso   1.000  H
  C96      1.0000 0.67470  0.98750  0.32860  Biso   1.000  C
  C97      1.0000 0.66270  0.95880  0.15440  Biso   1.000  C
  C98      1.0000 0.64900  0.05430  0.34560  Biso   1.000  C
  Pr15     1.0000 0.83127  0.62859  0.98605  Biso   1.000  Pr
  Pr16     1.0000 0.11052  0.63682  0.17293  Biso   1.000  Pr
  O113     1.0000 0.75300  0.73210  0.87230  Biso   1.000  O
  O114     1.0000 0.72360  0.84830  0.79460  Biso   1.000  O
  O115     1.0000 0.94050  0.64360  0.06940  Biso   1.000  O
  O116     1.0000 0.02030  0.71610  0.11360  Biso   1.000  O
  O117     1.0000 0.13410  0.52710  0.11760  Biso   1.000  O
  O118     1.0000 0.17410  0.40330  0.12630  Biso   1.000  O
  O119     1.0000 0.12250  0.61650  0.29520  Biso   1.000  O
  O120     1.0000 0.15710  0.54650  0.40860  Biso   1.000  O
  O121     1.0000 0.74730  0.66220  0.98090  Biso   1.000  O
  H155     1.0000 0.73900  0.61280  0.98710  Biso   1.000  H
  H156     1.0000 0.71450  0.68550  0.93890  Biso   1.000  H
  O122     1.0000 0.74660  0.52750  0.88850  Biso   1.000  O
  H157     1.0000 0.74720  0.47800  0.87460  Biso   1.000  H
  H158     1.0000 0.71400  0.53570  0.87550  Biso   1.000  H
  O123     1.0000 0.87780  0.48250  0.01530  Biso   1.000  O
  H159     1.0000 0.86210  0.46190  0.96900  Biso   1.000  H
  H160     1.0000 0.88780  0.44300  0.04840  Biso   1.000  H
  O124     1.0000 0.86700  0.73530  0.10280  Biso   1.000  O
  H161     1.0000 0.90290  0.75410  0.13790  Biso   1.000  H
  H162     1.0000 0.86050  0.70870  0.12980  Biso   1.000  H
  O125     1.0000 0.02700  0.52330  0.12220  Biso   1.000  O
  H163     1.0000 0.03990  0.49440  0.16380  Biso   1.000  H
  H164     1.0000 0.99680  0.55130  0.10440  Biso   1.000  H
  O126     1.0000 0.03250  0.63080  0.01020  Biso   1.000  O
  H165     1.0000 0.01280  0.59060  0.97600  Biso   1.000  H
  H166     1.0000 0.02710  0.67520  0.98430  Biso   1.000  H
  O127     1.0000 0.13440  0.78180  0.23560  Biso   1.000  O
  H167     1.0000 0.11930  0.82920  0.21210  Biso   1.000  H
  H168     1.0000 0.17190  0.78580  0.27290  Biso   1.000  H
  O128     1.0000 0.16020  0.70860  0.12940  Biso   1.000  O
  H169     1.0000 0.14250  0.73670  0.08460  Biso   1.000  H
  H170     1.0000 0.18230  0.67120  0.13320  Biso   1.000  H
  N15      1.0000 0.86670  0.76610  0.96400  Biso   1.000  N
  N16      1.0000 0.16180  0.49860  0.25780  Biso   1.000  N
  C99      1.0000 0.82770  0.82400  0.90680  Biso   1.000  C
  C100     1.0000 0.84610  0.89920  0.89590  Biso   1.000  C
  H171     1.0000 0.81750  0.93910  0.85410  Biso   1.000  H
  C101     1.0000 0.90680  0.91450  0.94690  Biso   1.000  C
  H172     1.0000 0.92050  0.96600  0.94180  Biso   1.000  H
  C102     1.0000 0.94690  0.85450  0.00490  Biso   1.000  C
  H173     1.0000 0.98860  0.86350  0.03960  Biso   1.000  H
  C103     1.0000 0.92580  0.78020  0.01240  Biso   1.000  C
  C104     1.0000 0.76320  0.80060  0.85400  Biso   1.000  C
  C105     1.0000 0.96550  0.70880  0.07000  Biso   1.000  C
  C106     1.0000 0.18490  0.44510  0.23900  Biso   1.000  C
  C107     1.0000 0.22600  0.38260  0.29320  Biso   1.000  C
  H174     1.0000 0.24460  0.34860  0.28060  Biso   1.000  H
  C108     1.0000 0.23900  0.37120  0.36670  Biso   1.000  C
  H175     1.0000 0.26590  0.32790  0.40500  Biso   1.000  H
  C109     1.0000 0.21240  0.42340  0.38320  Biso   1.000  C
  H176     1.0000 0.21990  0.41530  0.43250  Biso   1.000  H
  C110     1.0000 0.17470  0.48750  0.32860  Biso   1.000  C
  C111     1.0000 0.16270  0.45880  0.15440  Biso   1.000  C
  C112     1.0000 0.14900  0.55430  0.34560  Biso   1.000  C
