data_image0
_cell_length_a       9.5364
_cell_length_b       21.8015
_cell_length_c       9.1118
_cell_angle_alpha    90
_cell_angle_beta     90
_cell_angle_gamma    90

_symmetry_space_group_name_H-M    "P 1"
_symmetry_int_tables_number       1

loop_
  _symmetry_equiv_pos_as_xyz
  'x, y, z'

loop_
  _atom_site_label
  _atom_site_occupancy
  _atom_site_fract_x
  _atom_site_fract_y
  _atom_site_fract_z
  _atom_site_thermal_displace_type
  _atom_site_B_iso_or_equiv
  _atom_site_type_symbol
  Zn1      1.0000 0.56770  0.54838  0.78034  Biso   1.000  Zn
  P1       1.0000 0.37981  0.66436  0.71081  Biso   1.000  P
  H1       1.0000 0.27740  0.62730  0.75140  Biso   1.000  H
  P2       1.0000 0.29327  0.50047  0.94401  Biso   1.000  P
  H2       1.0000 0.30990  0.55240  0.01650  Biso   1.000  H
  O1       1.0000 0.34660  0.68561  0.55630  Biso   1.000  O
  O2       1.0000 0.38730  0.71441  0.82200  Biso   1.000  O
  O3       1.0000 0.51210  0.62592  0.70220  Biso   1.000  O
  O4       1.0000 0.41340  0.49568  0.83540  Biso   1.000  O
  O5       1.0000 0.14970  0.50284  0.87230  Biso   1.000  O
  O6       1.0000 0.29970  0.44850  0.05670  Biso   1.000  O
  Zn2      1.0000 0.93230  0.95162  0.78034  Biso   1.000  Zn
  P3       1.0000 0.12019  0.83564  0.71081  Biso   1.000  P
  H3       1.0000 0.22260  0.87270  0.75140  Biso   1.000  H
  P4       1.0000 0.20673  0.99953  0.94401  Biso   1.000  P
  H4       1.0000 0.19010  0.94760  0.01650  Biso   1.000  H
  O7       1.0000 0.15340  0.81439  0.55630  Biso   1.000  O
  O8       1.0000 0.11270  0.78559  0.82200  Biso   1.000  O
  O9       1.0000 0.98790  0.87408  0.70220  Biso   1.000  O
  O10      1.0000 0.08660  0.00432  0.83540  Biso   1.000  O
  O11      1.0000 0.35030  0.99716  0.87230  Biso   1.000  O
  O12      1.0000 0.20030  0.05150  0.05670  Biso   1.000  O
  Zn3      1.0000 0.43230  0.04838  0.71966  Biso   1.000  Zn
  P5       1.0000 0.62019  0.16436  0.78919  Biso   1.000  P
  H5       1.0000 0.72260  0.12730  0.74860  Biso   1.000  H
  P6       1.0000 0.70673  0.00047  0.55599  Biso   1.000  P
  H6       1.0000 0.69010  0.05240  0.48350  Biso   1.000  H
  O13      1.0000 0.65340  0.18561  0.94370  Biso   1.000  O
  O14      1.0000 0.61270  0.21441  0.67800  Biso   1.000  O
  O15      1.0000 0.48790  0.12592  0.79780  Biso   1.000  O
  O16      1.0000 0.58660  0.99568  0.66460  Biso   1.000  O
  O17      1.0000 0.85030  0.00284  0.62770  Biso   1.000  O
  O18      1.0000 0.70030  0.94850  0.44330  Biso   1.000  O
  Zn4      1.0000 0.06770  0.45162  0.71966  Biso   1.000  Zn
  P7       1.0000 0.87981  0.33564  0.78919  Biso   1.000  P
  H7       1.0000 0.77740  0.37270  0.74860  Biso   1.000  H
  P8       1.0000 0.79327  0.49953  0.55599  Biso   1.000  P
  H8       1.0000 0.80990  0.44760  0.48350  Biso   1.000  H
  O19      1.0000 0.84660  0.31439  0.94370  Biso   1.000  O
  O20      1.0000 0.88730  0.28559  0.67800  Biso   1.000  O
  O21      1.0000 0.01210  0.37408  0.79780  Biso   1.000  O
  O22      1.0000 0.91340  0.50432  0.66460  Biso   1.000  O
  O23      1.0000 0.64970  0.49716  0.62770  Biso   1.000  O
  O24      1.0000 0.79970  0.55150  0.44330  Biso   1.000  O
  Zn5      1.0000 0.43230  0.45162  0.21966  Biso   1.000  Zn
  P9       1.0000 0.62019  0.33564  0.28919  Biso   1.000  P
  H9       1.0000 0.72260  0.37270  0.24860  Biso   1.000  H
  P10      1.0000 0.70673  0.49953  0.05599  Biso   1.000  P
  H10      1.0000 0.69010  0.44760  0.98350  Biso   1.000  H
  O25      1.0000 0.65340  0.31439  0.44370  Biso   1.000  O
  O26      1.0000 0.61270  0.28559  0.17800  Biso   1.000  O
  O27      1.0000 0.48790  0.37408  0.29780  Biso   1.000  O
  O28      1.0000 0.58660  0.50432  0.16460  Biso   1.000  O
  O29      1.0000 0.85030  0.49716  0.12770  Biso   1.000  O
  O30      1.0000 0.70030  0.55150  0.94330  Biso   1.000  O
  Zn6      1.0000 0.06770  0.04838  0.21966  Biso   1.000  Zn
  P11      1.0000 0.87981  0.16436  0.28919  Biso   1.000  P
  H11      1.0000 0.77740  0.12730  0.24860  Biso   1.000  H
  P12      1.0000 0.79327  0.00047  0.05599  Biso   1.000  P
  H12      1.0000 0.80990  0.05240  0.98350  Biso   1.000  H
  O31      1.0000 0.84660  0.18561  0.44370  Biso   1.000  O
  O32      1.0000 0.88730  0.21441  0.17800  Biso   1.000  O
  O33      1.0000 0.01210  0.12592  0.29780  Biso   1.000  O
  O34      1.0000 0.91340  0.99568  0.16460  Biso   1.000  O
  O35      1.0000 0.64970  0.00284  0.12770  Biso   1.000  O
  O36      1.0000 0.79970  0.94850  0.94330  Biso   1.000  O
  Zn7      1.0000 0.56770  0.95162  0.28034  Biso   1.000  Zn
  P13      1.0000 0.37981  0.83564  0.21081  Biso   1.000  P
  H13      1.0000 0.27740  0.87270  0.25140  Biso   1.000  H
  P14      1.0000 0.29327  0.99953  0.44401  Biso   1.000  P
  H14      1.0000 0.30990  0.94760  0.51650  Biso   1.000  H
  O37      1.0000 0.34660  0.81439  0.05630  Biso   1.000  O
  O38      1.0000 0.38730  0.78559  0.32200  Biso   1.000  O
  O39      1.0000 0.51210  0.87408  0.20220  Biso   1.000  O
  O40      1.0000 0.41340  0.00432  0.33540  Biso   1.000  O
  O41      1.0000 0.14970  0.99716  0.37230  Biso   1.000  O
  O42      1.0000 0.29970  0.05150  0.55670  Biso   1.000  O
  Zn8      1.0000 0.93230  0.54838  0.28034  Biso   1.000  Zn
  P15      1.0000 0.12019  0.66436  0.21081  Biso   1.000  P
  H15      1.0000 0.22260  0.62730  0.25140  Biso   1.000  H
  P16      1.0000 0.20673  0.50047  0.44401  Biso   1.000  P
  H16      1.0000 0.19010  0.55240  0.51650  Biso   1.000  H
  O43      1.0000 0.15340  0.68561  0.05630  Biso   1.000  O
  O44      1.0000 0.11270  0.71441  0.32200  Biso   1.000  O
  O45      1.0000 0.98790  0.62592  0.20220  Biso   1.000  O
  O46      1.0000 0.08660  0.49568  0.33540  Biso   1.000  O
  O47      1.0000 0.35030  0.50284  0.37230  Biso   1.000  O
  O48      1.0000 0.20030  0.44850  0.55670  Biso   1.000  O
  Zn9      1.0000 0.25000  0.75000  0.45377  Biso   1.000  Zn
  Zn10     1.0000 0.75000  0.25000  0.04623  Biso   1.000  Zn
  Zn11     1.0000 0.75000  0.25000  0.54623  Biso   1.000  Zn
  Zn12     1.0000 0.25000  0.75000  0.95377  Biso   1.000  Zn
