data_image0
_cell_length_a       5.5761
_cell_length_b       11.8301
_cell_length_c       22.7922
_cell_angle_alpha    100.493
_cell_angle_beta     90
_cell_angle_gamma    90

_symmetry_space_group_name_H-M    P 1
_symmetry_int_tables_number       1

loop_
  _symmetry_equiv_pos_as_xyz
  'x, y, z'

loop_
  _atom_site_label
  _atom_site_occupancy
  _atom_site_fract_x
  _atom_site_fract_y
  _atom_site_fract_z
  _atom_site_thermal_displace_type
  _atom_site_B_iso_or_equiv
  _atom_site_type_symbol
  Ca1      1.0000 0.25638  0.86341  0.77716  Biso   1.000  Ca
  Ca2      1.0000 0.75638  0.63659  0.72284  Biso   1.000  Ca
  Ca3      1.0000 0.74362  0.13659  0.22284  Biso   1.000  Ca
  Ca4      1.0000 0.24362  0.36341  0.27716  Biso   1.000  Ca
  H1       1.0000 0.62470  0.26760  0.09410  Biso   1.000  H
  H2       1.0000 0.70630  0.22500  0.99250  Biso   1.000  H
  H3       1.0000 0.05530  0.07910  0.96270  Biso   1.000  H
  H4       1.0000 0.97140  0.12680  0.06400  Biso   1.000  H
  H5       1.0000 0.97810  0.31610  0.78060  Biso   1.000  H
  H6       1.0000 0.06370  0.16150  0.82710  Biso   1.000  H
  H7       1.0000 0.69870  0.30650  0.88170  Biso   1.000  H
  H8       1.0000 0.61870  0.45640  0.83100  Biso   1.000  H
  H9       1.0000 0.12470  0.23240  0.40590  Biso   1.000  H
  H10      1.0000 0.20630  0.27500  0.50750  Biso   1.000  H
  H11      1.0000 0.55530  0.42090  0.53730  Biso   1.000  H
  H12      1.0000 0.47140  0.37320  0.43600  Biso   1.000  H
  H13      1.0000 0.47810  0.18390  0.71940  Biso   1.000  H
  H14      1.0000 0.56370  0.33850  0.67290  Biso   1.000  H
  H15      1.0000 0.19870  0.19350  0.61830  Biso   1.000  H
  H16      1.0000 0.11870  0.04360  0.66900  Biso   1.000  H
  H17      1.0000 0.37530  0.73240  0.90590  Biso   1.000  H
  H18      1.0000 0.29370  0.77500  0.00750  Biso   1.000  H
  H19      1.0000 0.94470  0.92090  0.03730  Biso   1.000  H
  H20      1.0000 0.02860  0.87320  0.93600  Biso   1.000  H
  H21      1.0000 0.02190  0.68390  0.21940  Biso   1.000  H
  H22      1.0000 0.93630  0.83850  0.17290  Biso   1.000  H
  H23      1.0000 0.30130  0.69350  0.11830  Biso   1.000  H
  H24      1.0000 0.38130  0.54360  0.16900  Biso   1.000  H
  H25      1.0000 0.87530  0.76760  0.59410  Biso   1.000  H
  H26      1.0000 0.79370  0.72500  0.49250  Biso   1.000  H
  H27      1.0000 0.44470  0.57910  0.46270  Biso   1.000  H
  H28      1.0000 0.52860  0.62680  0.56400  Biso   1.000  H
  H29      1.0000 0.52190  0.81610  0.28060  Biso   1.000  H
  H30      1.0000 0.43630  0.66150  0.32710  Biso   1.000  H
  H31      1.0000 0.80130  0.80650  0.38170  Biso   1.000  H
  H32      1.0000 0.88130  0.95640  0.33100  Biso   1.000  H
  C1       1.0000 0.23880  0.22297  0.15511  Biso   1.000  C
  C2       1.0000 0.29260  0.19845  0.08926  Biso   1.000  C
  C3       1.0000 0.51120  0.22940  0.06784  Biso   1.000  C
  C4       1.0000 0.56090  0.20350  0.00712  Biso   1.000  C
  C5       1.0000 0.39080  0.14520  0.96866  Biso   1.000  C
  C6       1.0000 0.16930  0.11650  0.98913  Biso   1.000  C
  C7       1.0000 0.12050  0.14440  0.04971  Biso   1.000  C
  C8       1.0000 0.24130  0.49560  0.76542  Biso   1.000  C
  C9       1.0000 0.29240  0.40045  0.80037  Biso   1.000  C
  C10      1.0000 0.12420  0.31280  0.79992  Biso   1.000  C
  C11      1.0000 0.17360  0.22090  0.82817  Biso   1.000  C
  C12      1.0000 0.38960  0.21937  0.85797  Biso   1.000  C
  C13      1.0000 0.55660  0.30770  0.86044  Biso   1.000  C
  C14      1.0000 0.50720  0.39780  0.83062  Biso   1.000  C
  C15      1.0000 0.73880  0.27703  0.34489  Biso   1.000  C
  C16      1.0000 0.79260  0.30155  0.41074  Biso   1.000  C
  C17      1.0000 0.01120  0.27060  0.43216  Biso   1.000  C
  C18      1.0000 0.06090  0.29650  0.49288  Biso   1.000  C
  C19      1.0000 0.89080  0.35480  0.53134  Biso   1.000  C
  C20      1.0000 0.66930  0.38350  0.51087  Biso   1.000  C
  C21      1.0000 0.62050  0.35560  0.45029  Biso   1.000  C
  C22      1.0000 0.74130  0.00440  0.73458  Biso   1.000  C
  C23      1.0000 0.79240  0.09955  0.69963  Biso   1.000  C
  C24      1.0000 0.62420  0.18720  0.70008  Biso   1.000  C
  C25      1.0000 0.67360  0.27910  0.67183  Biso   1.000  C
  C26      1.0000 0.88960  0.28063  0.64203  Biso   1.000  C
  C27      1.0000 0.05660  0.19230  0.63956  Biso   1.000  C
  C28      1.0000 0.00720  0.10220  0.66938  Biso   1.000  C
  C29      1.0000 0.76120  0.77703  0.84489  Biso   1.000  C
  C30      1.0000 0.70740  0.80155  0.91074  Biso   1.000  C
  C31      1.0000 0.48880  0.77060  0.93216  Biso   1.000  C
  C32      1.0000 0.43910  0.79650  0.99288  Biso   1.000  C
  C33      1.0000 0.60920  0.85480  0.03134  Biso   1.000  C
  C34      1.0000 0.83070  0.88350  0.01087  Biso   1.000  C
  C35      1.0000 0.87950  0.85560  0.95029  Biso   1.000  C
  C36      1.0000 0.75870  0.50440  0.23458  Biso   1.000  C
  C37      1.0000 0.70760  0.59955  0.19963  Biso   1.000  C
  C38      1.0000 0.87580  0.68720  0.20008  Biso   1.000  C
  C39      1.0000 0.82640  0.77910  0.17183  Biso   1.000  C
  C40      1.0000 0.61040  0.78063  0.14203  Biso   1.000  C
  C41      1.0000 0.44340  0.69230  0.13956  Biso   1.000  C
  C42      1.0000 0.49280  0.60220  0.16938  Biso   1.000  C
  C43      1.0000 0.26120  0.72297  0.65511  Biso   1.000  C
  C44      1.0000 0.20740  0.69845  0.58926  Biso   1.000  C
  C45      1.0000 0.98880  0.72940  0.56784  Biso   1.000  C
  C46      1.0000 0.93910  0.70350  0.50712  Biso   1.000  C
  C47      1.0000 0.10920  0.64520  0.46866  Biso   1.000  C
  C48      1.0000 0.33070  0.61650  0.48913  Biso   1.000  C
  C49      1.0000 0.37950  0.64440  0.54971  Biso   1.000  C
  C50      1.0000 0.25870  0.99560  0.26542  Biso   1.000  C
  C51      1.0000 0.20760  0.90045  0.30037  Biso   1.000  C
  C52      1.0000 0.37580  0.81280  0.29992  Biso   1.000  C
  C53      1.0000 0.32640  0.72090  0.32817  Biso   1.000  C
  C54      1.0000 0.11040  0.71937  0.35797  Biso   1.000  C
  C55      1.0000 0.94340  0.80770  0.36044  Biso   1.000  C
  C56      1.0000 0.99280  0.89780  0.33062  Biso   1.000  C
  S1       1.0000 0.46382  0.10211  0.89229  Biso   1.000  S
  S2       1.0000 0.96382  0.39789  0.60771  Biso   1.000  S
  S3       1.0000 0.53618  0.89789  0.10771  Biso   1.000  S
  S4       1.0000 0.03618  0.60211  0.39229  Biso   1.000  S
  O1       1.0000 0.41440  0.23728  0.19073  Biso   1.000  O
  O2       1.0000 0.02490  0.23181  0.17169  Biso   1.000  O
  O3       1.0000 0.02550  0.51599  0.75668  Biso   1.000  O
  O4       1.0000 0.41920  0.54325  0.74735  Biso   1.000  O
  O5       1.0000 0.30550  0.00697  0.86877  Biso   1.000  O
  O6       1.0000 0.71890  0.08508  0.88821  Biso   1.000  O
  O7       1.0000 0.91440  0.26272  0.30927  Biso   1.000  O
  O8       1.0000 0.52490  0.26819  0.32831  Biso   1.000  O
  O9       1.0000 0.52550  0.98401  0.74332  Biso   1.000  O
  O10      1.0000 0.91920  0.95675  0.75265  Biso   1.000  O
  O11      1.0000 0.80550  0.49303  0.63123  Biso   1.000  O
  O12      1.0000 0.21890  0.41492  0.61179  Biso   1.000  O
  O13      1.0000 0.58560  0.76272  0.80927  Biso   1.000  O
  O14      1.0000 0.97510  0.76819  0.82831  Biso   1.000  O
  O15      1.0000 0.97450  0.48401  0.24332  Biso   1.000  O
  O16      1.0000 0.58080  0.45675  0.25265  Biso   1.000  O
  O17      1.0000 0.69450  0.99303  0.13123  Biso   1.000  O
  O18      1.0000 0.28110  0.91492  0.11179  Biso   1.000  O
  O19      1.0000 0.08560  0.73728  0.69073  Biso   1.000  O
  O20      1.0000 0.47510  0.73181  0.67169  Biso   1.000  O
  O21      1.0000 0.47450  0.01599  0.25668  Biso   1.000  O
  O22      1.0000 0.08080  0.04325  0.24735  Biso   1.000  O
  O23      1.0000 0.19450  0.50697  0.36877  Biso   1.000  O
  O24      1.0000 0.78110  0.58508  0.38821  Biso   1.000  O
