data_image0
_cell_length_a       19.9188
_cell_length_b       19.9188
_cell_length_c       15.2892
_cell_angle_alpha    90
_cell_angle_beta     90
_cell_angle_gamma    90

_symmetry_space_group_name_H-M    "P 1"
_symmetry_int_tables_number       1

loop_
  _symmetry_equiv_pos_as_xyz
  'x, y, z'

loop_
  _atom_site_label
  _atom_site_occupancy
  _atom_site_fract_x
  _atom_site_fract_y
  _atom_site_fract_z
  _atom_site_thermal_displace_type
  _atom_site_B_iso_or_equiv
  _atom_site_type_symbol
  F1       1.0000 0.31694  0.19908  0.35142  Biso   1.000  F
  N1       1.0000 0.35687  0.24808  0.60118  Biso   1.000  N
  C1       1.0000 0.39036  0.21852  0.66710  Biso   1.000  C
  H1       1.0000 0.36540  0.19830  0.71300  Biso   1.000  H
  C2       1.0000 0.45966  0.21640  0.67070  Biso   1.000  C
  H2       1.0000 0.48150  0.19390  0.71760  Biso   1.000  H
  C3       1.0000 0.49740  0.24730  0.60540  Biso   1.000  C
  C4       1.0000 0.46202  0.27790  0.53710  Biso   1.000  C
  H3       1.0000 0.48560  0.29930  0.49080  Biso   1.000  H
  C5       1.0000 0.39259  0.27688  0.53710  Biso   1.000  C
  H4       1.0000 0.36930  0.29740  0.48990  Biso   1.000  H
  C6       1.0000 0.57118  0.24790  0.60850  Biso   1.000  C
  C7       1.0000 0.60719  0.19210  0.63760  Biso   1.000  C
  H5       1.0000 0.58370  0.15300  0.65590  Biso   1.000  H
  C8       1.0000 0.67700  0.19280  0.64020  Biso   1.000  C
  H6       1.0000 0.70060  0.15400  0.65950  Biso   1.000  H
  C9       1.0000 0.71271  0.24980  0.61480  Biso   1.000  C
  C10      1.0000 0.67651  0.30580  0.58670  Biso   1.000  C
  H7       1.0000 0.69990  0.34540  0.57040  Biso   1.000  H
  C11      1.0000 0.60719  0.30450  0.58220  Biso   1.000  C
  H8       1.0000 0.58380  0.34270  0.56080  Biso   1.000  H
  F2       1.0000 0.18306  0.30092  0.35142  Biso   1.000  F
  N2       1.0000 0.14313  0.25192  0.60118  Biso   1.000  N
  C12      1.0000 0.10964  0.28148  0.66710  Biso   1.000  C
  H9       1.0000 0.13460  0.30170  0.71300  Biso   1.000  H
  C13      1.0000 0.04034  0.28360  0.67070  Biso   1.000  C
  H10      1.0000 0.01850  0.30610  0.71760  Biso   1.000  H
  C14      1.0000 0.00260  0.25270  0.60540  Biso   1.000  C
  C15      1.0000 0.03798  0.22210  0.53710  Biso   1.000  C
  H11      1.0000 0.01440  0.20070  0.49080  Biso   1.000  H
  C16      1.0000 0.10741  0.22312  0.53710  Biso   1.000  C
  H12      1.0000 0.13070  0.20260  0.48990  Biso   1.000  H
  C17      1.0000 0.92882  0.25210  0.60850  Biso   1.000  C
  C18      1.0000 0.89281  0.30790  0.63760  Biso   1.000  C
  H13      1.0000 0.91630  0.34700  0.65590  Biso   1.000  H
  C19      1.0000 0.82300  0.30720  0.64020  Biso   1.000  C
  H14      1.0000 0.79940  0.34600  0.65950  Biso   1.000  H
  C20      1.0000 0.78729  0.25020  0.61480  Biso   1.000  C
  C21      1.0000 0.82349  0.19420  0.58670  Biso   1.000  C
  H15      1.0000 0.80010  0.15460  0.57040  Biso   1.000  H
  C22      1.0000 0.89281  0.19550  0.58220  Biso   1.000  C
  H16      1.0000 0.91620  0.15730  0.56080  Biso   1.000  H
  F3       1.0000 0.30092  0.31694  0.35142  Biso   1.000  F
  N3       1.0000 0.25192  0.35687  0.60118  Biso   1.000  N
  C23      1.0000 0.28148  0.39036  0.66710  Biso   1.000  C
  H17      1.0000 0.30170  0.36540  0.71300  Biso   1.000  H
  C24      1.0000 0.28360  0.45966  0.67070  Biso   1.000  C
  H18      1.0000 0.30610  0.48150  0.71760  Biso   1.000  H
  C25      1.0000 0.25270  0.49740  0.60540  Biso   1.000  C
  C26      1.0000 0.22210  0.46202  0.53710  Biso   1.000  C
  H19      1.0000 0.20070  0.48560  0.49080  Biso   1.000  H
  C27      1.0000 0.22312  0.39259  0.53710  Biso   1.000  C
  H20      1.0000 0.20260  0.36930  0.48990  Biso   1.000  H
  C28      1.0000 0.25210  0.57118  0.60850  Biso   1.000  C
  C29      1.0000 0.30790  0.60719  0.63760  Biso   1.000  C
  H21      1.0000 0.34700  0.58370  0.65590  Biso   1.000  H
  C30      1.0000 0.30720  0.67700  0.64020  Biso   1.000  C
  H22      1.0000 0.34600  0.70060  0.65950  Biso   1.000  H
  C31      1.0000 0.25020  0.71271  0.61480  Biso   1.000  C
  C32      1.0000 0.19420  0.67651  0.58670  Biso   1.000  C
  H23      1.0000 0.15460  0.69990  0.57040  Biso   1.000  H
  C33      1.0000 0.19550  0.60719  0.58220  Biso   1.000  C
  H24      1.0000 0.15730  0.58380  0.56080  Biso   1.000  H
  F4       1.0000 0.19908  0.18306  0.35142  Biso   1.000  F
  N4       1.0000 0.24808  0.14313  0.60118  Biso   1.000  N
  C34      1.0000 0.21852  0.10964  0.66710  Biso   1.000  C
  H25      1.0000 0.19830  0.13460  0.71300  Biso   1.000  H
  C35      1.0000 0.21640  0.04034  0.67070  Biso   1.000  C
  H26      1.0000 0.19390  0.01850  0.71760  Biso   1.000  H
  C36      1.0000 0.24730  0.00260  0.60540  Biso   1.000  C
  C37      1.0000 0.27790  0.03798  0.53710  Biso   1.000  C
  H27      1.0000 0.29930  0.01440  0.49080  Biso   1.000  H
  C38      1.0000 0.27688  0.10741  0.53710  Biso   1.000  C
  H28      1.0000 0.29740  0.13070  0.48990  Biso   1.000  H
  C39      1.0000 0.24790  0.92882  0.60850  Biso   1.000  C
  C40      1.0000 0.19210  0.89281  0.63760  Biso   1.000  C
  H29      1.0000 0.15300  0.91630  0.65590  Biso   1.000  H
  C41      1.0000 0.19280  0.82300  0.64020  Biso   1.000  C
  H30      1.0000 0.15400  0.79940  0.65950  Biso   1.000  H
  C42      1.0000 0.24980  0.78729  0.61480  Biso   1.000  C
  C43      1.0000 0.30580  0.82349  0.58670  Biso   1.000  C
  H31      1.0000 0.34540  0.80010  0.57040  Biso   1.000  H
  C44      1.0000 0.30450  0.89281  0.58220  Biso   1.000  C
  H32      1.0000 0.34270  0.91620  0.56080  Biso   1.000  H
  F5       1.0000 0.31694  0.30092  0.85142  Biso   1.000  F
  N5       1.0000 0.35687  0.25192  0.10118  Biso   1.000  N
  C45      1.0000 0.39036  0.28148  0.16710  Biso   1.000  C
  H33      1.0000 0.36540  0.30170  0.21300  Biso   1.000  H
  C46      1.0000 0.45966  0.28360  0.17070  Biso   1.000  C
  H34      1.0000 0.48150  0.30610  0.21760  Biso   1.000  H
  C47      1.0000 0.49740  0.25270  0.10540  Biso   1.000  C
  C48      1.0000 0.46202  0.22210  0.03710  Biso   1.000  C
  H35      1.0000 0.48560  0.20070  0.99080  Biso   1.000  H
  C49      1.0000 0.39259  0.22312  0.03710  Biso   1.000  C
  H36      1.0000 0.36930  0.20260  0.98990  Biso   1.000  H
  C50      1.0000 0.57118  0.25210  0.10850  Biso   1.000  C
  C51      1.0000 0.60719  0.30790  0.13760  Biso   1.000  C
  H37      1.0000 0.58370  0.34700  0.15590  Biso   1.000  H
  C52      1.0000 0.67700  0.30720  0.14020  Biso   1.000  C
  H38      1.0000 0.70060  0.34600  0.15950  Biso   1.000  H
  C53      1.0000 0.71271  0.25020  0.11480  Biso   1.000  C
  C54      1.0000 0.67651  0.19420  0.08670  Biso   1.000  C
  H39      1.0000 0.69990  0.15460  0.07040  Biso   1.000  H
  C55      1.0000 0.60719  0.19550  0.08220  Biso   1.000  C
  H40      1.0000 0.58380  0.15730  0.06080  Biso   1.000  H
  F6       1.0000 0.18306  0.19908  0.85142  Biso   1.000  F
  N6       1.0000 0.14313  0.24808  0.10118  Biso   1.000  N
  C56      1.0000 0.10964  0.21852  0.16710  Biso   1.000  C
  H41      1.0000 0.13460  0.19830  0.21300  Biso   1.000  H
  C57      1.0000 0.04034  0.21640  0.17070  Biso   1.000  C
  H42      1.0000 0.01850  0.19390  0.21760  Biso   1.000  H
  C58      1.0000 0.00260  0.24730  0.10540  Biso   1.000  C
  C59      1.0000 0.03798  0.27790  0.03710  Biso   1.000  C
  H43      1.0000 0.01440  0.29930  0.99080  Biso   1.000  H
  C60      1.0000 0.10741  0.27688  0.03710  Biso   1.000  C
  H44      1.0000 0.13070  0.29740  0.98990  Biso   1.000  H
  C61      1.0000 0.92882  0.24790  0.10850  Biso   1.000  C
  C62      1.0000 0.89281  0.19210  0.13760  Biso   1.000  C
  H45      1.0000 0.91630  0.15300  0.15590  Biso   1.000  H
  C63      1.0000 0.82300  0.19280  0.14020  Biso   1.000  C
  H46      1.0000 0.79940  0.15400  0.15950  Biso   1.000  H
  C64      1.0000 0.78729  0.24980  0.11480  Biso   1.000  C
  C65      1.0000 0.82349  0.30580  0.08670  Biso   1.000  C
  H47      1.0000 0.80010  0.34540  0.07040  Biso   1.000  H
  C66      1.0000 0.89281  0.30450  0.08220  Biso   1.000  C
  H48      1.0000 0.91620  0.34270  0.06080  Biso   1.000  H
  F7       1.0000 0.30092  0.18306  0.85142  Biso   1.000  F
  N7       1.0000 0.25192  0.14313  0.10118  Biso   1.000  N
  C67      1.0000 0.28148  0.10964  0.16710  Biso   1.000  C
  H49      1.0000 0.30170  0.13460  0.21300  Biso   1.000  H
  C68      1.0000 0.28360  0.04034  0.17070  Biso   1.000  C
  H50      1.0000 0.30610  0.01850  0.21760  Biso   1.000  H
  C69      1.0000 0.25270  0.00260  0.10540  Biso   1.000  C
  C70      1.0000 0.22210  0.03798  0.03710  Biso   1.000  C
  H51      1.0000 0.20070  0.01440  0.99080  Biso   1.000  H
  C71      1.0000 0.22312  0.10741  0.03710  Biso   1.000  C
  H52      1.0000 0.20260  0.13070  0.98990  Biso   1.000  H
  C72      1.0000 0.25210  0.92882  0.10850  Biso   1.000  C
  C73      1.0000 0.30790  0.89281  0.13760  Biso   1.000  C
  H53      1.0000 0.34700  0.91630  0.15590  Biso   1.000  H
  C74      1.0000 0.30720  0.82300  0.14020  Biso   1.000  C
  H54      1.0000 0.34600  0.79940  0.15950  Biso   1.000  H
  C75      1.0000 0.25020  0.78729  0.11480  Biso   1.000  C
  C76      1.0000 0.19420  0.82349  0.08670  Biso   1.000  C
  H55      1.0000 0.15460  0.80010  0.07040  Biso   1.000  H
  C77      1.0000 0.19550  0.89281  0.08220  Biso   1.000  C
  H56      1.0000 0.15730  0.91620  0.06080  Biso   1.000  H
  F8       1.0000 0.19908  0.31694  0.85142  Biso   1.000  F
  N8       1.0000 0.24808  0.35687  0.10118  Biso   1.000  N
  C78      1.0000 0.21852  0.39036  0.16710  Biso   1.000  C
  H57      1.0000 0.19830  0.36540  0.21300  Biso   1.000  H
  C79      1.0000 0.21640  0.45966  0.17070  Biso   1.000  C
  H58      1.0000 0.19390  0.48150  0.21760  Biso   1.000  H
  C80      1.0000 0.24730  0.49740  0.10540  Biso   1.000  C
  C81      1.0000 0.27790  0.46202  0.03710  Biso   1.000  C
  H59      1.0000 0.29930  0.48560  0.99080  Biso   1.000  H
  C82      1.0000 0.27688  0.39259  0.03710  Biso   1.000  C
  H60      1.0000 0.29740  0.36930  0.98990  Biso   1.000  H
  C83      1.0000 0.24790  0.57118  0.10850  Biso   1.000  C
  C84      1.0000 0.19210  0.60719  0.13760  Biso   1.000  C
  H61      1.0000 0.15300  0.58370  0.15590  Biso   1.000  H
  C85      1.0000 0.19280  0.67700  0.14020  Biso   1.000  C
  H62      1.0000 0.15400  0.70060  0.15950  Biso   1.000  H
  C86      1.0000 0.24980  0.71271  0.11480  Biso   1.000  C
  C87      1.0000 0.30580  0.67651  0.08670  Biso   1.000  C
  H63      1.0000 0.34540  0.69990  0.07040  Biso   1.000  H
  C88      1.0000 0.30450  0.60719  0.08220  Biso   1.000  C
  H64      1.0000 0.34270  0.58380  0.06080  Biso   1.000  H
  Zn1      1.0000 0.25000  0.25000  0.60058  Biso   1.000  Zn
  Si1      1.0000 0.25000  0.25000  0.35143  Biso   1.000  Si
  F9       1.0000 0.25000  0.25000  0.46340  Biso   1.000  F
  F10      1.0000 0.25000  0.25000  0.24000  Biso   1.000  F
  Zn2      1.0000 0.25000  0.25000  0.10058  Biso   1.000  Zn
  Si2      1.0000 0.25000  0.25000  0.85143  Biso   1.000  Si
  F11      1.0000 0.25000  0.25000  0.96340  Biso   1.000  F
  F12      1.0000 0.25000  0.25000  0.74000  Biso   1.000  F
  F13      1.0000 0.68306  0.69908  0.14858  Biso   1.000  F
  N9       1.0000 0.64313  0.74808  0.89882  Biso   1.000  N
  C89      1.0000 0.60964  0.71852  0.83290  Biso   1.000  C
  H65      1.0000 0.63460  0.69830  0.78700  Biso   1.000  H
  C90      1.0000 0.54034  0.71640  0.82930  Biso   1.000  C
  H66      1.0000 0.51850  0.69390  0.78240  Biso   1.000  H
  C91      1.0000 0.50260  0.74730  0.89460  Biso   1.000  C
  C92      1.0000 0.53798  0.77790  0.96290  Biso   1.000  C
  H67      1.0000 0.51440  0.79930  0.00920  Biso   1.000  H
  C93      1.0000 0.60741  0.77688  0.96290  Biso   1.000  C
  H68      1.0000 0.63070  0.79740  0.01010  Biso   1.000  H
  C94      1.0000 0.42882  0.74790  0.89150  Biso   1.000  C
  C95      1.0000 0.39281  0.69210  0.86240  Biso   1.000  C
  H69      1.0000 0.41630  0.65300  0.84410  Biso   1.000  H
  C96      1.0000 0.32300  0.69280  0.85980  Biso   1.000  C
  H70      1.0000 0.29940  0.65400  0.84050  Biso   1.000  H
  C97      1.0000 0.28729  0.74980  0.88520  Biso   1.000  C
  C98      1.0000 0.32349  0.80580  0.91330  Biso   1.000  C
  H71      1.0000 0.30010  0.84540  0.92960  Biso   1.000  H
  C99      1.0000 0.39281  0.80450  0.91780  Biso   1.000  C
  H72      1.0000 0.41620  0.84270  0.93920  Biso   1.000  H
  F14      1.0000 0.81694  0.80092  0.14858  Biso   1.000  F
  N10      1.0000 0.85687  0.75192  0.89882  Biso   1.000  N
  C100     1.0000 0.89036  0.78148  0.83290  Biso   1.000  C
  H73      1.0000 0.86540  0.80170  0.78700  Biso   1.000  H
  C101     1.0000 0.95966  0.78360  0.82930  Biso   1.000  C
  H74      1.0000 0.98150  0.80610  0.78240  Biso   1.000  H
  C102     1.0000 0.99740  0.75270  0.89460  Biso   1.000  C
  C103     1.0000 0.96202  0.72210  0.96290  Biso   1.000  C
  H75      1.0000 0.98560  0.70070  0.00920  Biso   1.000  H
  C104     1.0000 0.89259  0.72312  0.96290  Biso   1.000  C
  H76      1.0000 0.86930  0.70260  0.01010  Biso   1.000  H
  C105     1.0000 0.07118  0.75210  0.89150  Biso   1.000  C
  C106     1.0000 0.10719  0.80790  0.86240  Biso   1.000  C
  H77      1.0000 0.08370  0.84700  0.84410  Biso   1.000  H
  C107     1.0000 0.17700  0.80720  0.85980  Biso   1.000  C
  H78      1.0000 0.20060  0.84600  0.84050  Biso   1.000  H
  C108     1.0000 0.21271  0.75020  0.88520  Biso   1.000  C
  C109     1.0000 0.17651  0.69420  0.91330  Biso   1.000  C
  H79      1.0000 0.19990  0.65460  0.92960  Biso   1.000  H
  C110     1.0000 0.10719  0.69550  0.91780  Biso   1.000  C
  H80      1.0000 0.08380  0.65730  0.93920  Biso   1.000  H
  F15      1.0000 0.69908  0.81694  0.14858  Biso   1.000  F
  N11      1.0000 0.74808  0.85687  0.89882  Biso   1.000  N
  C111     1.0000 0.71852  0.89036  0.83290  Biso   1.000  C
  H81      1.0000 0.69830  0.86540  0.78700  Biso   1.000  H
  C112     1.0000 0.71640  0.95966  0.82930  Biso   1.000  C
  H82      1.0000 0.69390  0.98150  0.78240  Biso   1.000  H
  C113     1.0000 0.74730  0.99740  0.89460  Biso   1.000  C
  C114     1.0000 0.77790  0.96202  0.96290  Biso   1.000  C
  H83      1.0000 0.79930  0.98560  0.00920  Biso   1.000  H
  C115     1.0000 0.77688  0.89259  0.96290  Biso   1.000  C
  H84      1.0000 0.79740  0.86930  0.01010  Biso   1.000  H
  C116     1.0000 0.74790  0.07118  0.89150  Biso   1.000  C
  C117     1.0000 0.69210  0.10719  0.86240  Biso   1.000  C
  H85      1.0000 0.65300  0.08370  0.84410  Biso   1.000  H
  C118     1.0000 0.69280  0.17700  0.85980  Biso   1.000  C
  H86      1.0000 0.65400  0.20060  0.84050  Biso   1.000  H
  C119     1.0000 0.74980  0.21271  0.88520  Biso   1.000  C
  C120     1.0000 0.80580  0.17651  0.91330  Biso   1.000  C
  H87      1.0000 0.84540  0.19990  0.92960  Biso   1.000  H
  C121     1.0000 0.80450  0.10719  0.91780  Biso   1.000  C
  H88      1.0000 0.84270  0.08380  0.93920  Biso   1.000  H
  F16      1.0000 0.80092  0.68306  0.14858  Biso   1.000  F
  N12      1.0000 0.75192  0.64313  0.89882  Biso   1.000  N
  C122     1.0000 0.78148  0.60964  0.83290  Biso   1.000  C
  H89      1.0000 0.80170  0.63460  0.78700  Biso   1.000  H
  C123     1.0000 0.78360  0.54034  0.82930  Biso   1.000  C
  H90      1.0000 0.80610  0.51850  0.78240  Biso   1.000  H
  C124     1.0000 0.75270  0.50260  0.89460  Biso   1.000  C
  C125     1.0000 0.72210  0.53798  0.96290  Biso   1.000  C
  H91      1.0000 0.70070  0.51440  0.00920  Biso   1.000  H
  C126     1.0000 0.72312  0.60741  0.96290  Biso   1.000  C
  H92      1.0000 0.70260  0.63070  0.01010  Biso   1.000  H
  C127     1.0000 0.75210  0.42882  0.89150  Biso   1.000  C
  C128     1.0000 0.80790  0.39281  0.86240  Biso   1.000  C
  H93      1.0000 0.84700  0.41630  0.84410  Biso   1.000  H
  C129     1.0000 0.80720  0.32300  0.85980  Biso   1.000  C
  H94      1.0000 0.84600  0.29940  0.84050  Biso   1.000  H
  C130     1.0000 0.75020  0.28729  0.88520  Biso   1.000  C
  C131     1.0000 0.69420  0.32349  0.91330  Biso   1.000  C
  H95      1.0000 0.65460  0.30010  0.92960  Biso   1.000  H
  C132     1.0000 0.69550  0.39281  0.91780  Biso   1.000  C
  H96      1.0000 0.65730  0.41620  0.93920  Biso   1.000  H
  F17      1.0000 0.68306  0.80092  0.64858  Biso   1.000  F
  N13      1.0000 0.64313  0.75192  0.39882  Biso   1.000  N
  C133     1.0000 0.60964  0.78148  0.33290  Biso   1.000  C
  H97      1.0000 0.63460  0.80170  0.28700  Biso   1.000  H
  C134     1.0000 0.54034  0.78360  0.32930  Biso   1.000  C
  H98      1.0000 0.51850  0.80610  0.28240  Biso   1.000  H
  C135     1.0000 0.50260  0.75270  0.39460  Biso   1.000  C
  C136     1.0000 0.53798  0.72210  0.46290  Biso   1.000  C
  H99      1.0000 0.51440  0.70070  0.50920  Biso   1.000  H
  C137     1.0000 0.60741  0.72312  0.46290  Biso   1.000  C
  H100     1.0000 0.63070  0.70260  0.51010  Biso   1.000  H
  C138     1.0000 0.42882  0.75210  0.39150  Biso   1.000  C
  C139     1.0000 0.39281  0.80790  0.36240  Biso   1.000  C
  H101     1.0000 0.41630  0.84700  0.34410  Biso   1.000  H
  C140     1.0000 0.32300  0.80720  0.35980  Biso   1.000  C
  H102     1.0000 0.29940  0.84600  0.34050  Biso   1.000  H
  C141     1.0000 0.28729  0.75020  0.38520  Biso   1.000  C
  C142     1.0000 0.32349  0.69420  0.41330  Biso   1.000  C
  H103     1.0000 0.30010  0.65460  0.42960  Biso   1.000  H
  C143     1.0000 0.39281  0.69550  0.41780  Biso   1.000  C
  H104     1.0000 0.41620  0.65730  0.43920  Biso   1.000  H
  F18      1.0000 0.81694  0.69908  0.64858  Biso   1.000  F
  N14      1.0000 0.85687  0.74808  0.39882  Biso   1.000  N
  C144     1.0000 0.89036  0.71852  0.33290  Biso   1.000  C
  H105     1.0000 0.86540  0.69830  0.28700  Biso   1.000  H
  C145     1.0000 0.95966  0.71640  0.32930  Biso   1.000  C
  H106     1.0000 0.98150  0.69390  0.28240  Biso   1.000  H
  C146     1.0000 0.99740  0.74730  0.39460  Biso   1.000  C
  C147     1.0000 0.96202  0.77790  0.46290  Biso   1.000  C
  H107     1.0000 0.98560  0.79930  0.50920  Biso   1.000  H
  C148     1.0000 0.89259  0.77688  0.46290  Biso   1.000  C
  H108     1.0000 0.86930  0.79740  0.51010  Biso   1.000  H
  C149     1.0000 0.07118  0.74790  0.39150  Biso   1.000  C
  C150     1.0000 0.10719  0.69210  0.36240  Biso   1.000  C
  H109     1.0000 0.08370  0.65300  0.34410  Biso   1.000  H
  C151     1.0000 0.17700  0.69280  0.35980  Biso   1.000  C
  H110     1.0000 0.20060  0.65400  0.34050  Biso   1.000  H
  C152     1.0000 0.21271  0.74980  0.38520  Biso   1.000  C
  C153     1.0000 0.17651  0.80580  0.41330  Biso   1.000  C
  H111     1.0000 0.19990  0.84540  0.42960  Biso   1.000  H
  C154     1.0000 0.10719  0.80450  0.41780  Biso   1.000  C
  H112     1.0000 0.08380  0.84270  0.43920  Biso   1.000  H
  F19      1.0000 0.69908  0.68306  0.64858  Biso   1.000  F
  N15      1.0000 0.74808  0.64313  0.39882  Biso   1.000  N
  C155     1.0000 0.71852  0.60964  0.33290  Biso   1.000  C
  H113     1.0000 0.69830  0.63460  0.28700  Biso   1.000  H
  C156     1.0000 0.71640  0.54034  0.32930  Biso   1.000  C
  H114     1.0000 0.69390  0.51850  0.28240  Biso   1.000  H
  C157     1.0000 0.74730  0.50260  0.39460  Biso   1.000  C
  C158     1.0000 0.77790  0.53798  0.46290  Biso   1.000  C
  H115     1.0000 0.79930  0.51440  0.50920  Biso   1.000  H
  C159     1.0000 0.77688  0.60741  0.46290  Biso   1.000  C
  H116     1.0000 0.79740  0.63070  0.51010  Biso   1.000  H
  C160     1.0000 0.74790  0.42882  0.39150  Biso   1.000  C
  C161     1.0000 0.69210  0.39281  0.36240  Biso   1.000  C
  H117     1.0000 0.65300  0.41630  0.34410  Biso   1.000  H
  C162     1.0000 0.69280  0.32300  0.35980  Biso   1.000  C
  H118     1.0000 0.65400  0.29940  0.34050  Biso   1.000  H
  C163     1.0000 0.74980  0.28729  0.38520  Biso   1.000  C
  C164     1.0000 0.80580  0.32349  0.41330  Biso   1.000  C
  H119     1.0000 0.84540  0.30010  0.42960  Biso   1.000  H
  C165     1.0000 0.80450  0.39281  0.41780  Biso   1.000  C
  H120     1.0000 0.84270  0.41620  0.43920  Biso   1.000  H
  F20      1.0000 0.80092  0.81694  0.64858  Biso   1.000  F
  N16      1.0000 0.75192  0.85687  0.39882  Biso   1.000  N
  C166     1.0000 0.78148  0.89036  0.33290  Biso   1.000  C
  H121     1.0000 0.80170  0.86540  0.28700  Biso   1.000  H
  C167     1.0000 0.78360  0.95966  0.32930  Biso   1.000  C
  H122     1.0000 0.80610  0.98150  0.28240  Biso   1.000  H
  C168     1.0000 0.75270  0.99740  0.39460  Biso   1.000  C
  C169     1.0000 0.72210  0.96202  0.46290  Biso   1.000  C
  H123     1.0000 0.70070  0.98560  0.50920  Biso   1.000  H
  C170     1.0000 0.72312  0.89259  0.46290  Biso   1.000  C
  H124     1.0000 0.70260  0.86930  0.51010  Biso   1.000  H
  C171     1.0000 0.75210  0.07118  0.39150  Biso   1.000  C
  C172     1.0000 0.80790  0.10719  0.36240  Biso   1.000  C
  H125     1.0000 0.84700  0.08370  0.34410  Biso   1.000  H
  C173     1.0000 0.80720  0.17700  0.35980  Biso   1.000  C
  H126     1.0000 0.84600  0.20060  0.34050  Biso   1.000  H
  C174     1.0000 0.75020  0.21271  0.38520  Biso   1.000  C
  C175     1.0000 0.69420  0.17651  0.41330  Biso   1.000  C
  H127     1.0000 0.65460  0.19990  0.42960  Biso   1.000  H
  C176     1.0000 0.69550  0.10719  0.41780  Biso   1.000  C
  H128     1.0000 0.65730  0.08380  0.43920  Biso   1.000  H
  Zn3      1.0000 0.75000  0.75000  0.89942  Biso   1.000  Zn
  Si3      1.0000 0.75000  0.75000  0.14857  Biso   1.000  Si
  F21      1.0000 0.75000  0.75000  0.03660  Biso   1.000  F
  F22      1.0000 0.75000  0.75000  0.26000  Biso   1.000  F
  Zn4      1.0000 0.75000  0.75000  0.39942  Biso   1.000  Zn
  Si4      1.0000 0.75000  0.75000  0.64857  Biso   1.000  Si
  F23      1.0000 0.75000  0.75000  0.53660  Biso   1.000  F
  F24      1.0000 0.75000  0.75000  0.76000  Biso   1.000  F
