data_image0
_cell_length_a       15.0473
_cell_length_b       17.7892
_cell_length_c       17.7892
_cell_angle_alpha    90
_cell_angle_beta     90
_cell_angle_gamma    90

_symmetry_space_group_name_H-M    P 1
_symmetry_int_tables_number       1

loop_
  _symmetry_equiv_pos_as_xyz
  'x, y, z'

loop_
  _atom_site_label
  _atom_site_occupancy
  _atom_site_fract_x
  _atom_site_fract_y
  _atom_site_fract_z
  _atom_site_thermal_displace_type
  _atom_site_B_iso_or_equiv
  _atom_site_type_symbol
  Zn1      1.0000 0.87156  0.75000  0.75000  Biso   1.000  Zn
  Zn2      1.0000 0.37156  0.75000  0.75000  Biso   1.000  Zn
  Si1      1.0000 0.62147  0.75000  0.75000  Biso   1.000  Si
  Si2      1.0000 0.12147  0.75000  0.75000  Biso   1.000  Si
  H1       1.0000 0.77110  0.82680  0.87810  Biso   1.000  H
  H2       1.0000 0.77260  0.84040  0.00750  Biso   1.000  H
  H3       1.0000 0.97670  0.69230  0.01540  Biso   1.000  H
  H4       1.0000 0.97300  0.68630  0.88520  Biso   1.000  H
  H5       1.0000 0.88010  0.66160  0.13060  Biso   1.000  H
  H6       1.0000 0.87520  0.89930  0.24370  Biso   1.000  H
  H7       1.0000 0.87070  0.88890  0.11460  Biso   1.000  H
  H8       1.0000 0.77110  0.67320  0.62190  Biso   1.000  H
  H9       1.0000 0.77260  0.65960  0.49250  Biso   1.000  H
  H10      1.0000 0.97670  0.80770  0.48460  Biso   1.000  H
  H11      1.0000 0.97300  0.81370  0.61480  Biso   1.000  H
  H12      1.0000 0.88010  0.83840  0.36940  Biso   1.000  H
  H13      1.0000 0.87520  0.60070  0.25630  Biso   1.000  H
  H14      1.0000 0.87070  0.61110  0.38540  Biso   1.000  H
  H15      1.0000 0.77110  0.62190  0.82680  Biso   1.000  H
  H16      1.0000 0.77260  0.49250  0.84040  Biso   1.000  H
  H17      1.0000 0.97670  0.48460  0.69230  Biso   1.000  H
  H18      1.0000 0.97300  0.61480  0.68630  Biso   1.000  H
  H19      1.0000 0.88010  0.36940  0.66160  Biso   1.000  H
  H20      1.0000 0.87520  0.25630  0.89930  Biso   1.000  H
  H21      1.0000 0.87070  0.38540  0.88890  Biso   1.000  H
  H22      1.0000 0.77110  0.87810  0.67320  Biso   1.000  H
  H23      1.0000 0.77260  0.00750  0.65960  Biso   1.000  H
  H24      1.0000 0.97670  0.01540  0.80770  Biso   1.000  H
  H25      1.0000 0.97300  0.88520  0.81370  Biso   1.000  H
  H26      1.0000 0.88010  0.13060  0.83840  Biso   1.000  H
  H27      1.0000 0.87520  0.24370  0.60070  Biso   1.000  H
  H28      1.0000 0.87070  0.11460  0.61110  Biso   1.000  H
  H29      1.0000 0.27110  0.82680  0.62190  Biso   1.000  H
  H30      1.0000 0.27260  0.84040  0.49250  Biso   1.000  H
  H31      1.0000 0.47670  0.69230  0.48460  Biso   1.000  H
  H32      1.0000 0.47300  0.68630  0.61480  Biso   1.000  H
  H33      1.0000 0.38010  0.66160  0.36940  Biso   1.000  H
  H34      1.0000 0.37520  0.89930  0.25630  Biso   1.000  H
  H35      1.0000 0.37070  0.88890  0.38540  Biso   1.000  H
  H36      1.0000 0.27110  0.67320  0.87810  Biso   1.000  H
  H37      1.0000 0.27260  0.65960  0.00750  Biso   1.000  H
  H38      1.0000 0.47670  0.80770  0.01540  Biso   1.000  H
  H39      1.0000 0.47300  0.81370  0.88520  Biso   1.000  H
  H40      1.0000 0.38010  0.83840  0.13060  Biso   1.000  H
  H41      1.0000 0.37520  0.60070  0.24370  Biso   1.000  H
  H42      1.0000 0.37070  0.61110  0.11460  Biso   1.000  H
  H43      1.0000 0.27110  0.62190  0.67320  Biso   1.000  H
  H44      1.0000 0.27260  0.49250  0.65960  Biso   1.000  H
  H45      1.0000 0.47670  0.48460  0.80770  Biso   1.000  H
  H46      1.0000 0.47300  0.61480  0.81370  Biso   1.000  H
  H47      1.0000 0.38010  0.36940  0.83840  Biso   1.000  H
  H48      1.0000 0.37520  0.25630  0.60070  Biso   1.000  H
  H49      1.0000 0.37070  0.38540  0.61110  Biso   1.000  H
  H50      1.0000 0.27110  0.87810  0.82680  Biso   1.000  H
  H51      1.0000 0.27260  0.00750  0.84040  Biso   1.000  H
  H52      1.0000 0.47670  0.01540  0.69230  Biso   1.000  H
  H53      1.0000 0.47300  0.88520  0.68630  Biso   1.000  H
  H54      1.0000 0.38010  0.13060  0.66160  Biso   1.000  H
  H55      1.0000 0.37520  0.24370  0.89930  Biso   1.000  H
  H56      1.0000 0.37070  0.11460  0.88890  Biso   1.000  H
  C1       1.0000 0.81400  0.79983  0.90653  Biso   1.000  C
  C2       1.0000 0.81380  0.80762  0.98369  Biso   1.000  C
  C3       1.0000 0.87475  0.76680  0.02640  Biso   1.000  C
  C4       1.0000 0.93420  0.72110  0.98827  Biso   1.000  C
  C5       1.0000 0.93130  0.71739  0.91061  Biso   1.000  C
  C6       1.0000 0.87629  0.77300  0.10940  Biso   1.000  C
  C7       1.0000 0.87827  0.70970  0.15379  Biso   1.000  C
  C8       1.0000 0.87764  0.71450  0.23265  Biso   1.000  C
  C9       1.0000 0.87550  0.85090  0.22110  Biso   1.000  C
  C10      1.0000 0.87370  0.84480  0.14460  Biso   1.000  C
  C11      1.0000 0.81400  0.70017  0.59347  Biso   1.000  C
  C12      1.0000 0.81380  0.69238  0.51631  Biso   1.000  C
  C13      1.0000 0.87475  0.73320  0.47360  Biso   1.000  C
  C14      1.0000 0.93420  0.77890  0.51173  Biso   1.000  C
  C15      1.0000 0.93130  0.78261  0.58939  Biso   1.000  C
  C16      1.0000 0.87629  0.72700  0.39060  Biso   1.000  C
  C17      1.0000 0.87827  0.79030  0.34621  Biso   1.000  C
  C18      1.0000 0.87764  0.78550  0.26735  Biso   1.000  C
  C19      1.0000 0.87550  0.64910  0.27890  Biso   1.000  C
  C20      1.0000 0.87370  0.65520  0.35540  Biso   1.000  C
  C21      1.0000 0.81400  0.59347  0.79983  Biso   1.000  C
  C22      1.0000 0.81380  0.51631  0.80762  Biso   1.000  C
  C23      1.0000 0.87475  0.47360  0.76680  Biso   1.000  C
  C24      1.0000 0.93420  0.51173  0.72110  Biso   1.000  C
  C25      1.0000 0.93130  0.58939  0.71739  Biso   1.000  C
  C26      1.0000 0.87629  0.39060  0.77300  Biso   1.000  C
  C27      1.0000 0.87827  0.34621  0.70970  Biso   1.000  C
  C28      1.0000 0.87764  0.26735  0.71450  Biso   1.000  C
  C29      1.0000 0.87550  0.27890  0.85090  Biso   1.000  C
  C30      1.0000 0.87370  0.35540  0.84480  Biso   1.000  C
  C31      1.0000 0.81400  0.90653  0.70017  Biso   1.000  C
  C32      1.0000 0.81380  0.98369  0.69238  Biso   1.000  C
  C33      1.0000 0.87475  0.02640  0.73320  Biso   1.000  C
  C34      1.0000 0.93420  0.98827  0.77890  Biso   1.000  C
  C35      1.0000 0.93130  0.91061  0.78261  Biso   1.000  C
  C36      1.0000 0.87629  0.10940  0.72700  Biso   1.000  C
  C37      1.0000 0.87827  0.15379  0.79030  Biso   1.000  C
  C38      1.0000 0.87764  0.23265  0.78550  Biso   1.000  C
  C39      1.0000 0.87550  0.22110  0.64910  Biso   1.000  C
  C40      1.0000 0.87370  0.14460  0.65520  Biso   1.000  C
  C41      1.0000 0.31400  0.79983  0.59347  Biso   1.000  C
  C42      1.0000 0.31380  0.80762  0.51631  Biso   1.000  C
  C43      1.0000 0.37475  0.76680  0.47360  Biso   1.000  C
  C44      1.0000 0.43420  0.72110  0.51173  Biso   1.000  C
  C45      1.0000 0.43130  0.71739  0.58939  Biso   1.000  C
  C46      1.0000 0.37629  0.77300  0.39060  Biso   1.000  C
  C47      1.0000 0.37827  0.70970  0.34621  Biso   1.000  C
  C48      1.0000 0.37764  0.71450  0.26735  Biso   1.000  C
  C49      1.0000 0.37550  0.85090  0.27890  Biso   1.000  C
  C50      1.0000 0.37370  0.84480  0.35540  Biso   1.000  C
  C51      1.0000 0.31400  0.70017  0.90653  Biso   1.000  C
  C52      1.0000 0.31380  0.69238  0.98369  Biso   1.000  C
  C53      1.0000 0.37475  0.73320  0.02640  Biso   1.000  C
  C54      1.0000 0.43420  0.77890  0.98827  Biso   1.000  C
  C55      1.0000 0.43130  0.78261  0.91061  Biso   1.000  C
  C56      1.0000 0.37629  0.72700  0.10940  Biso   1.000  C
  C57      1.0000 0.37827  0.79030  0.15379  Biso   1.000  C
  C58      1.0000 0.37764  0.78550  0.23265  Biso   1.000  C
  C59      1.0000 0.37550  0.64910  0.22110  Biso   1.000  C
  C60      1.0000 0.37370  0.65520  0.14460  Biso   1.000  C
  C61      1.0000 0.31400  0.59347  0.70017  Biso   1.000  C
  C62      1.0000 0.31380  0.51631  0.69238  Biso   1.000  C
  C63      1.0000 0.37475  0.47360  0.73320  Biso   1.000  C
  C64      1.0000 0.43420  0.51173  0.77890  Biso   1.000  C
  C65      1.0000 0.43130  0.58939  0.78261  Biso   1.000  C
  C66      1.0000 0.37629  0.39060  0.72700  Biso   1.000  C
  C67      1.0000 0.37827  0.34621  0.79030  Biso   1.000  C
  C68      1.0000 0.37764  0.26735  0.78550  Biso   1.000  C
  C69      1.0000 0.37550  0.27890  0.64910  Biso   1.000  C
  C70      1.0000 0.37370  0.35540  0.65520  Biso   1.000  C
  C71      1.0000 0.31400  0.90653  0.79983  Biso   1.000  C
  C72      1.0000 0.31380  0.98369  0.80762  Biso   1.000  C
  C73      1.0000 0.37475  0.02640  0.76680  Biso   1.000  C
  C74      1.0000 0.43420  0.98827  0.72110  Biso   1.000  C
  C75      1.0000 0.43130  0.91061  0.71739  Biso   1.000  C
  C76      1.0000 0.37629  0.10940  0.77300  Biso   1.000  C
  C77      1.0000 0.37827  0.15379  0.70970  Biso   1.000  C
  C78      1.0000 0.37764  0.23265  0.71450  Biso   1.000  C
  C79      1.0000 0.37550  0.22110  0.85090  Biso   1.000  C
  C80      1.0000 0.37370  0.14460  0.84480  Biso   1.000  C
  N1       1.0000 0.87193  0.75602  0.86984  Biso   1.000  N
  N2       1.0000 0.87193  0.74398  0.63016  Biso   1.000  N
  N3       1.0000 0.87193  0.63016  0.75602  Biso   1.000  N
  N4       1.0000 0.87193  0.86984  0.74398  Biso   1.000  N
  N5       1.0000 0.37193  0.75602  0.63016  Biso   1.000  N
  N6       1.0000 0.37193  0.74398  0.86984  Biso   1.000  N
  N7       1.0000 0.37193  0.63016  0.74398  Biso   1.000  N
  N8       1.0000 0.37193  0.86984  0.75602  Biso   1.000  N
  F1       1.0000 0.62137  0.69930  0.82896  Biso   1.000  F
  F2       1.0000 0.62137  0.80070  0.67104  Biso   1.000  F
  F3       1.0000 0.62137  0.67104  0.69930  Biso   1.000  F
  F4       1.0000 0.62137  0.82896  0.80070  Biso   1.000  F
  F5       1.0000 0.12137  0.69930  0.67104  Biso   1.000  F
  F6       1.0000 0.12137  0.80070  0.82896  Biso   1.000  F
  F7       1.0000 0.12137  0.67104  0.80070  Biso   1.000  F
  F8       1.0000 0.12137  0.82896  0.69930  Biso   1.000  F
  F9       1.0000 0.73430  0.75000  0.75000  Biso   1.000  F
  F10      1.0000 0.50870  0.75000  0.75000  Biso   1.000  F
  F11      1.0000 0.23430  0.75000  0.75000  Biso   1.000  F
  F12      1.0000 0.00870  0.75000  0.75000  Biso   1.000  F
  Zn3      1.0000 0.62844  0.25000  0.25000  Biso   1.000  Zn
  Zn4      1.0000 0.12844  0.25000  0.25000  Biso   1.000  Zn
  Si3      1.0000 0.87853  0.25000  0.25000  Biso   1.000  Si
  Si4      1.0000 0.37853  0.25000  0.25000  Biso   1.000  Si
  H57      1.0000 0.72890  0.17320  0.37810  Biso   1.000  H
  H58      1.0000 0.72740  0.15960  0.50750  Biso   1.000  H
  H59      1.0000 0.52330  0.30770  0.51540  Biso   1.000  H
  H60      1.0000 0.52700  0.31370  0.38520  Biso   1.000  H
  H61      1.0000 0.61990  0.33840  0.63060  Biso   1.000  H
  H62      1.0000 0.62480  0.10070  0.74370  Biso   1.000  H
  H63      1.0000 0.62930  0.11110  0.61460  Biso   1.000  H
  H64      1.0000 0.72890  0.32680  0.12190  Biso   1.000  H
  H65      1.0000 0.72740  0.34040  0.99250  Biso   1.000  H
  H66      1.0000 0.52330  0.19230  0.98460  Biso   1.000  H
  H67      1.0000 0.52700  0.18630  0.11480  Biso   1.000  H
  H68      1.0000 0.61990  0.16160  0.86940  Biso   1.000  H
  H69      1.0000 0.62480  0.39930  0.75630  Biso   1.000  H
  H70      1.0000 0.62930  0.38890  0.88540  Biso   1.000  H
  H71      1.0000 0.72890  0.37810  0.32680  Biso   1.000  H
  H72      1.0000 0.72740  0.50750  0.34040  Biso   1.000  H
  H73      1.0000 0.52330  0.51540  0.19230  Biso   1.000  H
  H74      1.0000 0.52700  0.38520  0.18630  Biso   1.000  H
  H75      1.0000 0.61990  0.63060  0.16160  Biso   1.000  H
  H76      1.0000 0.62480  0.74370  0.39930  Biso   1.000  H
  H77      1.0000 0.62930  0.61460  0.38890  Biso   1.000  H
  H78      1.0000 0.72890  0.12190  0.17320  Biso   1.000  H
  H79      1.0000 0.72740  0.99250  0.15960  Biso   1.000  H
  H80      1.0000 0.52330  0.98460  0.30770  Biso   1.000  H
  H81      1.0000 0.52700  0.11480  0.31370  Biso   1.000  H
  H82      1.0000 0.61990  0.86940  0.33840  Biso   1.000  H
  H83      1.0000 0.62480  0.75630  0.10070  Biso   1.000  H
  H84      1.0000 0.62930  0.88540  0.11110  Biso   1.000  H
  H85      1.0000 0.22890  0.17320  0.12190  Biso   1.000  H
  H86      1.0000 0.22740  0.15960  0.99250  Biso   1.000  H
  H87      1.0000 0.02330  0.30770  0.98460  Biso   1.000  H
  H88      1.0000 0.02700  0.31370  0.11480  Biso   1.000  H
  H89      1.0000 0.11990  0.33840  0.86940  Biso   1.000  H
  H90      1.0000 0.12480  0.10070  0.75630  Biso   1.000  H
  H91      1.0000 0.12930  0.11110  0.88540  Biso   1.000  H
  H92      1.0000 0.22890  0.32680  0.37810  Biso   1.000  H
  H93      1.0000 0.22740  0.34040  0.50750  Biso   1.000  H
  H94      1.0000 0.02330  0.19230  0.51540  Biso   1.000  H
  H95      1.0000 0.02700  0.18630  0.38520  Biso   1.000  H
  H96      1.0000 0.11990  0.16160  0.63060  Biso   1.000  H
  H97      1.0000 0.12480  0.39930  0.74370  Biso   1.000  H
  H98      1.0000 0.12930  0.38890  0.61460  Biso   1.000  H
  H99      1.0000 0.22890  0.37810  0.17320  Biso   1.000  H
  H100     1.0000 0.22740  0.50750  0.15960  Biso   1.000  H
  H101     1.0000 0.02330  0.51540  0.30770  Biso   1.000  H
  H102     1.0000 0.02700  0.38520  0.31370  Biso   1.000  H
  H103     1.0000 0.11990  0.63060  0.33840  Biso   1.000  H
  H104     1.0000 0.12480  0.74370  0.10070  Biso   1.000  H
  H105     1.0000 0.12930  0.61460  0.11110  Biso   1.000  H
  H106     1.0000 0.22890  0.12190  0.32680  Biso   1.000  H
  H107     1.0000 0.22740  0.99250  0.34040  Biso   1.000  H
  H108     1.0000 0.02330  0.98460  0.19230  Biso   1.000  H
  H109     1.0000 0.02700  0.11480  0.18630  Biso   1.000  H
  H110     1.0000 0.11990  0.86940  0.16160  Biso   1.000  H
  H111     1.0000 0.12480  0.75630  0.39930  Biso   1.000  H
  H112     1.0000 0.12930  0.88540  0.38890  Biso   1.000  H
  C81      1.0000 0.68600  0.20017  0.40653  Biso   1.000  C
  C82      1.0000 0.68620  0.19238  0.48369  Biso   1.000  C
  C83      1.0000 0.62525  0.23320  0.52640  Biso   1.000  C
  C84      1.0000 0.56580  0.27890  0.48827  Biso   1.000  C
  C85      1.0000 0.56870  0.28261  0.41061  Biso   1.000  C
  C86      1.0000 0.62371  0.22700  0.60940  Biso   1.000  C
  C87      1.0000 0.62173  0.29030  0.65379  Biso   1.000  C
  C88      1.0000 0.62236  0.28550  0.73265  Biso   1.000  C
  C89      1.0000 0.62450  0.14910  0.72110  Biso   1.000  C
  C90      1.0000 0.62630  0.15520  0.64460  Biso   1.000  C
  C91      1.0000 0.68600  0.29983  0.09347  Biso   1.000  C
  C92      1.0000 0.68620  0.30762  0.01631  Biso   1.000  C
  C93      1.0000 0.62525  0.26680  0.97360  Biso   1.000  C
  C94      1.0000 0.56580  0.22110  0.01173  Biso   1.000  C
  C95      1.0000 0.56870  0.21739  0.08939  Biso   1.000  C
  C96      1.0000 0.62371  0.27300  0.89060  Biso   1.000  C
  C97      1.0000 0.62173  0.20970  0.84621  Biso   1.000  C
  C98      1.0000 0.62236  0.21450  0.76735  Biso   1.000  C
  C99      1.0000 0.62450  0.35090  0.77890  Biso   1.000  C
  C100     1.0000 0.62630  0.34480  0.85540  Biso   1.000  C
  C101     1.0000 0.68600  0.40653  0.29983  Biso   1.000  C
  C102     1.0000 0.68620  0.48369  0.30762  Biso   1.000  C
  C103     1.0000 0.62525  0.52640  0.26680  Biso   1.000  C
  C104     1.0000 0.56580  0.48827  0.22110  Biso   1.000  C
  C105     1.0000 0.56870  0.41061  0.21739  Biso   1.000  C
  C106     1.0000 0.62371  0.60940  0.27300  Biso   1.000  C
  C107     1.0000 0.62173  0.65379  0.20970  Biso   1.000  C
  C108     1.0000 0.62236  0.73265  0.21450  Biso   1.000  C
  C109     1.0000 0.62450  0.72110  0.35090  Biso   1.000  C
  C110     1.0000 0.62630  0.64460  0.34480  Biso   1.000  C
  C111     1.0000 0.68600  0.09347  0.20017  Biso   1.000  C
  C112     1.0000 0.68620  0.01631  0.19238  Biso   1.000  C
  C113     1.0000 0.62525  0.97360  0.23320  Biso   1.000  C
  C114     1.0000 0.56580  0.01173  0.27890  Biso   1.000  C
  C115     1.0000 0.56870  0.08939  0.28261  Biso   1.000  C
  C116     1.0000 0.62371  0.89060  0.22700  Biso   1.000  C
  C117     1.0000 0.62173  0.84621  0.29030  Biso   1.000  C
  C118     1.0000 0.62236  0.76735  0.28550  Biso   1.000  C
  C119     1.0000 0.62450  0.77890  0.14910  Biso   1.000  C
  C120     1.0000 0.62630  0.85540  0.15520  Biso   1.000  C
  C121     1.0000 0.18600  0.20017  0.09347  Biso   1.000  C
  C122     1.0000 0.18620  0.19238  0.01631  Biso   1.000  C
  C123     1.0000 0.12525  0.23320  0.97360  Biso   1.000  C
  C124     1.0000 0.06580  0.27890  0.01173  Biso   1.000  C
  C125     1.0000 0.06870  0.28261  0.08939  Biso   1.000  C
  C126     1.0000 0.12371  0.22700  0.89060  Biso   1.000  C
  C127     1.0000 0.12173  0.29030  0.84621  Biso   1.000  C
  C128     1.0000 0.12236  0.28550  0.76735  Biso   1.000  C
  C129     1.0000 0.12450  0.14910  0.77890  Biso   1.000  C
  C130     1.0000 0.12630  0.15520  0.85540  Biso   1.000  C
  C131     1.0000 0.18600  0.29983  0.40653  Biso   1.000  C
  C132     1.0000 0.18620  0.30762  0.48369  Biso   1.000  C
  C133     1.0000 0.12525  0.26680  0.52640  Biso   1.000  C
  C134     1.0000 0.06580  0.22110  0.48827  Biso   1.000  C
  C135     1.0000 0.06870  0.21739  0.41061  Biso   1.000  C
  C136     1.0000 0.12371  0.27300  0.60940  Biso   1.000  C
  C137     1.0000 0.12173  0.20970  0.65379  Biso   1.000  C
  C138     1.0000 0.12236  0.21450  0.73265  Biso   1.000  C
  C139     1.0000 0.12450  0.35090  0.72110  Biso   1.000  C
  C140     1.0000 0.12630  0.34480  0.64460  Biso   1.000  C
  C141     1.0000 0.18600  0.40653  0.20017  Biso   1.000  C
  C142     1.0000 0.18620  0.48369  0.19238  Biso   1.000  C
  C143     1.0000 0.12525  0.52640  0.23320  Biso   1.000  C
  C144     1.0000 0.06580  0.48827  0.27890  Biso   1.000  C
  C145     1.0000 0.06870  0.41061  0.28261  Biso   1.000  C
  C146     1.0000 0.12371  0.60940  0.22700  Biso   1.000  C
  C147     1.0000 0.12173  0.65379  0.29030  Biso   1.000  C
  C148     1.0000 0.12236  0.73265  0.28550  Biso   1.000  C
  C149     1.0000 0.12450  0.72110  0.14910  Biso   1.000  C
  C150     1.0000 0.12630  0.64460  0.15520  Biso   1.000  C
  C151     1.0000 0.18600  0.09347  0.29983  Biso   1.000  C
  C152     1.0000 0.18620  0.01631  0.30762  Biso   1.000  C
  C153     1.0000 0.12525  0.97360  0.26680  Biso   1.000  C
  C154     1.0000 0.06580  0.01173  0.22110  Biso   1.000  C
  C155     1.0000 0.06870  0.08939  0.21739  Biso   1.000  C
  C156     1.0000 0.12371  0.89060  0.27300  Biso   1.000  C
  C157     1.0000 0.12173  0.84621  0.20970  Biso   1.000  C
  C158     1.0000 0.12236  0.76735  0.21450  Biso   1.000  C
  C159     1.0000 0.12450  0.77890  0.35090  Biso   1.000  C
  C160     1.0000 0.12630  0.85540  0.34480  Biso   1.000  C
  N9       1.0000 0.62807  0.24398  0.36984  Biso   1.000  N
  N10      1.0000 0.62807  0.25602  0.13016  Biso   1.000  N
  N11      1.0000 0.62807  0.36984  0.25602  Biso   1.000  N
  N12      1.0000 0.62807  0.13016  0.24398  Biso   1.000  N
  N13      1.0000 0.12807  0.24398  0.13016  Biso   1.000  N
  N14      1.0000 0.12807  0.25602  0.36984  Biso   1.000  N
  N15      1.0000 0.12807  0.36984  0.24398  Biso   1.000  N
  N16      1.0000 0.12807  0.13016  0.25602  Biso   1.000  N
  F13      1.0000 0.87863  0.30070  0.32896  Biso   1.000  F
  F14      1.0000 0.87863  0.19930  0.17104  Biso   1.000  F
  F15      1.0000 0.87863  0.32896  0.19930  Biso   1.000  F
  F16      1.0000 0.87863  0.17104  0.30070  Biso   1.000  F
  F17      1.0000 0.37863  0.30070  0.17104  Biso   1.000  F
  F18      1.0000 0.37863  0.19930  0.32896  Biso   1.000  F
  F19      1.0000 0.37863  0.32896  0.30070  Biso   1.000  F
  F20      1.0000 0.37863  0.17104  0.19930  Biso   1.000  F
  F21      1.0000 0.76570  0.25000  0.25000  Biso   1.000  F
  F22      1.0000 0.99130  0.25000  0.25000  Biso   1.000  F
  F23      1.0000 0.26570  0.25000  0.25000  Biso   1.000  F
  F24      1.0000 0.49130  0.25000  0.25000  Biso   1.000  F
