data_image0
_cell_length_a       13.1233
_cell_length_b       13.1233
_cell_length_c       13.879
_cell_angle_alpha    89.2144
_cell_angle_beta     89.2144
_cell_angle_gamma    82.7563

_symmetry_space_group_name_H-M    P 1
_symmetry_int_tables_number       1

loop_
  _symmetry_equiv_pos_as_xyz
  'x, y, z'

loop_
  _atom_site_label
  _atom_site_occupancy
  _atom_site_fract_x
  _atom_site_fract_y
  _atom_site_fract_z
  _atom_site_thermal_displace_type
  _atom_site_B_iso_or_equiv
  _atom_site_type_symbol
  Cd1      1.0000 0.82580  0.35136  0.67747  Biso   1.000  Cd
  Cd2      1.0000 0.75473  0.96569  0.39963  Biso   1.000  Cd
  Cd3      1.0000 0.64864  0.17420  0.82253  Biso   1.000  Cd
  Cd4      1.0000 0.03431  0.24527  0.10037  Biso   1.000  Cd
  Cd5      1.0000 0.17420  0.64864  0.32253  Biso   1.000  Cd
  Cd6      1.0000 0.24527  0.03431  0.60037  Biso   1.000  Cd
  Cd7      1.0000 0.35136  0.82580  0.17747  Biso   1.000  Cd
  Cd8      1.0000 0.96569  0.75473  0.89963  Biso   1.000  Cd
  Cd9      1.0000 0.37546  0.62454  0.75000  Biso   1.000  Cd
  Cd10     1.0000 0.62454  0.37546  0.25000  Biso   1.000  Cd
  Cd11     1.0000 0.50000  0.00000  0.00000  Biso   1.000  Cd
  Cd12     1.0000 0.00000  0.50000  0.50000  Biso   1.000  Cd
  H1       1.0000 0.62500  0.55060  0.68350  Biso   1.000  H
  H2       1.0000 0.66510  0.00390  0.62870  Biso   1.000  H
  H3       1.0000 0.84660  0.17260  0.49350  Biso   1.000  H
  H4       1.0000 0.35040  0.64980  0.99390  Biso   1.000  H
  H5       1.0000 0.49980  0.81920  0.82130  Biso   1.000  H
  H6       1.0000 0.83830  0.54570  0.85210  Biso   1.000  H
  H7       1.0000 0.01320  0.68000  0.67350  Biso   1.000  H
  H8       1.0000 0.17960  0.27800  0.49510  Biso   1.000  H
  H9       1.0000 0.01610  0.14810  0.68370  Biso   1.000  H
  H10      1.0000 0.00240  0.02200  0.40860  Biso   1.000  H
  H11      1.0000 0.44940  0.37500  0.81650  Biso   1.000  H
  H12      1.0000 0.99610  0.33490  0.87130  Biso   1.000  H
  H13      1.0000 0.82740  0.15340  0.00650  Biso   1.000  H
  H14      1.0000 0.35020  0.64960  0.50610  Biso   1.000  H
  H15      1.0000 0.18080  0.50020  0.67870  Biso   1.000  H
  H16      1.0000 0.45430  0.16170  0.64790  Biso   1.000  H
  H17      1.0000 0.32000  0.98680  0.82650  Biso   1.000  H
  H18      1.0000 0.72200  0.82040  0.00490  Biso   1.000  H
  H19      1.0000 0.85190  0.98390  0.81630  Biso   1.000  H
  H20      1.0000 0.97800  0.99760  0.09140  Biso   1.000  H
  H21      1.0000 0.37500  0.44940  0.31650  Biso   1.000  H
  H22      1.0000 0.33490  0.99610  0.37130  Biso   1.000  H
  H23      1.0000 0.15340  0.82740  0.50650  Biso   1.000  H
  H24      1.0000 0.64960  0.35020  0.00610  Biso   1.000  H
  H25      1.0000 0.50020  0.18080  0.17870  Biso   1.000  H
  H26      1.0000 0.16170  0.45430  0.14790  Biso   1.000  H
  H27      1.0000 0.98680  0.32000  0.32650  Biso   1.000  H
  H28      1.0000 0.82040  0.72200  0.50490  Biso   1.000  H
  H29      1.0000 0.98390  0.85190  0.31630  Biso   1.000  H
  H30      1.0000 0.99760  0.97800  0.59140  Biso   1.000  H
  H31      1.0000 0.55060  0.62500  0.18350  Biso   1.000  H
  H32      1.0000 0.00390  0.66510  0.12870  Biso   1.000  H
  H33      1.0000 0.17260  0.84660  0.99350  Biso   1.000  H
  H34      1.0000 0.64980  0.35040  0.49390  Biso   1.000  H
  H35      1.0000 0.81920  0.49980  0.32130  Biso   1.000  H
  H36      1.0000 0.54570  0.83830  0.35210  Biso   1.000  H
  H37      1.0000 0.68000  0.01320  0.17350  Biso   1.000  H
  H38      1.0000 0.27800  0.17960  0.99510  Biso   1.000  H
  H39      1.0000 0.14810  0.01610  0.18370  Biso   1.000  H
  H40      1.0000 0.02200  0.00240  0.90860  Biso   1.000  H
  H41      1.0000 0.83000  0.17000  0.25000  Biso   1.000  H
  H42      1.0000 0.17000  0.83000  0.75000  Biso   1.000  H
  C1       1.0000 0.60070  0.49310  0.71430  Biso   1.000  C
  C2       1.0000 0.70620  0.05660  0.61300  Biso   1.000  C
  C3       1.0000 0.80310  0.14710  0.54080  Biso   1.000  C
  C4       1.0000 0.38710  0.70270  0.96950  Biso   1.000  C
  C5       1.0000 0.46730  0.79370  0.87660  Biso   1.000  C
  C6       1.0000 0.87660  0.56180  0.79660  Biso   1.000  C
  C7       1.0000 0.97050  0.63370  0.70070  Biso   1.000  C
  C8       1.0000 0.12630  0.26510  0.53900  Biso   1.000  C
  C9       1.0000 0.03940  0.19600  0.63930  Biso   1.000  C
  C10      1.0000 0.97710  0.05610  0.35130  Biso   1.000  C
  C11      1.0000 0.50690  0.39930  0.78570  Biso   1.000  C
  C12      1.0000 0.94340  0.29380  0.88700  Biso   1.000  C
  C13      1.0000 0.85290  0.19690  0.95920  Biso   1.000  C
  C14      1.0000 0.29730  0.61290  0.53050  Biso   1.000  C
  C15      1.0000 0.20630  0.53270  0.62340  Biso   1.000  C
  C16      1.0000 0.43820  0.12340  0.70340  Biso   1.000  C
  C17      1.0000 0.36630  0.02950  0.79930  Biso   1.000  C
  C18      1.0000 0.73490  0.87370  0.96100  Biso   1.000  C
  C19      1.0000 0.80400  0.96060  0.86070  Biso   1.000  C
  C20      1.0000 0.94390  0.02290  0.14870  Biso   1.000  C
  C21      1.0000 0.39930  0.50690  0.28570  Biso   1.000  C
  C22      1.0000 0.29380  0.94340  0.38700  Biso   1.000  C
  C23      1.0000 0.19690  0.85290  0.45920  Biso   1.000  C
  C24      1.0000 0.61290  0.29730  0.03050  Biso   1.000  C
  C25      1.0000 0.53270  0.20630  0.12340  Biso   1.000  C
  C26      1.0000 0.12340  0.43820  0.20340  Biso   1.000  C
  C27      1.0000 0.02950  0.36630  0.29930  Biso   1.000  C
  C28      1.0000 0.87370  0.73490  0.46100  Biso   1.000  C
  C29      1.0000 0.96060  0.80400  0.36070  Biso   1.000  C
  C30      1.0000 0.02290  0.94390  0.64870  Biso   1.000  C
  C31      1.0000 0.49310  0.60070  0.21430  Biso   1.000  C
  C32      1.0000 0.05660  0.70620  0.11300  Biso   1.000  C
  C33      1.0000 0.14710  0.80310  0.04080  Biso   1.000  C
  C34      1.0000 0.70270  0.38710  0.46950  Biso   1.000  C
  C35      1.0000 0.79370  0.46730  0.37660  Biso   1.000  C
  C36      1.0000 0.56180  0.87660  0.29660  Biso   1.000  C
  C37      1.0000 0.63370  0.97050  0.20070  Biso   1.000  C
  C38      1.0000 0.26510  0.12630  0.03900  Biso   1.000  C
  C39      1.0000 0.19600  0.03940  0.13930  Biso   1.000  C
  C40      1.0000 0.05610  0.97710  0.85130  Biso   1.000  C
  C41      1.0000 0.88480  0.11520  0.25000  Biso   1.000  C
  C42      1.0000 0.11520  0.88480  0.75000  Biso   1.000  C
  N1       1.0000 0.65800  0.40300  0.72640  Biso   1.000  N
  N2       1.0000 0.77980  0.19300  0.62290  Biso   1.000  N
  N3       1.0000 0.71650  0.13350  0.67030  Biso   1.000  N
  N4       1.0000 0.75980  0.06040  0.52950  Biso   1.000  N
  N5       1.0000 0.41260  0.77740  0.02240  Biso   1.000  N
  N6       1.0000 0.41840  0.70860  0.87650  Biso   1.000  N
  N7       1.0000 0.46440  0.83700  0.96200  Biso   1.000  N
  N8       1.0000 0.88350  0.50710  0.71690  Biso   1.000  N
  N9       1.0000 0.93020  0.64340  0.79030  Biso   1.000  N
  N10      1.0000 0.94490  0.55390  0.65430  Biso   1.000  N
  N11      1.0000 0.04560  0.33200  0.55550  Biso   1.000  N
  N12      1.0000 0.12770  0.17750  0.58890  Biso   1.000  N
  N13      1.0000 0.98810  0.28690  0.62120  Biso   1.000  N
  N14      1.0000 0.88080  0.05260  0.32050  Biso   1.000  N
  N15      1.0000 0.03330  0.10990  0.29650  Biso   1.000  N
  N16      1.0000 0.59700  0.34200  0.77360  Biso   1.000  N
  N17      1.0000 0.80700  0.22020  0.87710  Biso   1.000  N
  N18      1.0000 0.86650  0.28350  0.82970  Biso   1.000  N
  N19      1.0000 0.93960  0.24020  0.97050  Biso   1.000  N
  N20      1.0000 0.22260  0.58740  0.47760  Biso   1.000  N
  N21      1.0000 0.29140  0.58160  0.62350  Biso   1.000  N
  N22      1.0000 0.16300  0.53560  0.53800  Biso   1.000  N
  N23      1.0000 0.49290  0.11650  0.78310  Biso   1.000  N
  N24      1.0000 0.35660  0.06980  0.70970  Biso   1.000  N
  N25      1.0000 0.44610  0.05510  0.84570  Biso   1.000  N
  N26      1.0000 0.66800  0.95440  0.94450  Biso   1.000  N
  N27      1.0000 0.82250  0.87230  0.91110  Biso   1.000  N
  N28      1.0000 0.71310  0.01190  0.87880  Biso   1.000  N
  N29      1.0000 0.94740  0.11920  0.17950  Biso   1.000  N
  N30      1.0000 0.89010  0.96670  0.20350  Biso   1.000  N
  N31      1.0000 0.34200  0.59700  0.27360  Biso   1.000  N
  N32      1.0000 0.22020  0.80700  0.37710  Biso   1.000  N
  N33      1.0000 0.28350  0.86650  0.32970  Biso   1.000  N
  N34      1.0000 0.24020  0.93960  0.47050  Biso   1.000  N
  N35      1.0000 0.58740  0.22260  0.97760  Biso   1.000  N
  N36      1.0000 0.58160  0.29140  0.12350  Biso   1.000  N
  N37      1.0000 0.53560  0.16300  0.03800  Biso   1.000  N
  N38      1.0000 0.11650  0.49290  0.28310  Biso   1.000  N
  N39      1.0000 0.06980  0.35660  0.20970  Biso   1.000  N
  N40      1.0000 0.05510  0.44610  0.34570  Biso   1.000  N
  N41      1.0000 0.95440  0.66800  0.44450  Biso   1.000  N
  N42      1.0000 0.87230  0.82250  0.41110  Biso   1.000  N
  N43      1.0000 0.01190  0.71310  0.37880  Biso   1.000  N
  N44      1.0000 0.11920  0.94740  0.67950  Biso   1.000  N
  N45      1.0000 0.96670  0.89010  0.70350  Biso   1.000  N
  N46      1.0000 0.40300  0.65800  0.22640  Biso   1.000  N
  N47      1.0000 0.19300  0.77980  0.12290  Biso   1.000  N
  N48      1.0000 0.13350  0.71650  0.17030  Biso   1.000  N
  N49      1.0000 0.06040  0.75980  0.02950  Biso   1.000  N
  N50      1.0000 0.77740  0.41260  0.52240  Biso   1.000  N
  N51      1.0000 0.70860  0.41840  0.37650  Biso   1.000  N
  N52      1.0000 0.83700  0.46440  0.46200  Biso   1.000  N
  N53      1.0000 0.50710  0.88350  0.21690  Biso   1.000  N
  N54      1.0000 0.64340  0.93020  0.29030  Biso   1.000  N
  N55      1.0000 0.55390  0.94490  0.15430  Biso   1.000  N
  N56      1.0000 0.33200  0.04560  0.05550  Biso   1.000  N
  N57      1.0000 0.17750  0.12770  0.08890  Biso   1.000  N
  N58      1.0000 0.28690  0.98810  0.12120  Biso   1.000  N
  N59      1.0000 0.05260  0.88080  0.82050  Biso   1.000  N
  N60      1.0000 0.10990  0.03330  0.79650  Biso   1.000  N
  N61      1.0000 0.50550  0.49450  0.75000  Biso   1.000  N
  N62      1.0000 0.49450  0.50550  0.25000  Biso   1.000  N
