data_image0
_cell_length_a       17.5515
_cell_length_b       14.2875
_cell_length_c       18.7456
_cell_angle_alpha    90
_cell_angle_beta     97.436
_cell_angle_gamma    90

_symmetry_space_group_name_H-M    "P 1"
_symmetry_int_tables_number       1

loop_
  _symmetry_equiv_pos_as_xyz
  'x, y, z'

loop_
  _atom_site_label
  _atom_site_occupancy
  _atom_site_fract_x
  _atom_site_fract_y
  _atom_site_fract_z
  _atom_site_thermal_displace_type
  _atom_site_B_iso_or_equiv
  _atom_site_type_symbol
  Mn1      1.0000 0.61625  0.42877  0.99503  Biso   1.000  Mn
  Mn2      1.0000 0.86809  0.57665  0.99526  Biso   1.000  Mn
  N1       1.0000 0.67734  0.31450  0.93175  Biso   1.000  N
  O1       1.0000 0.81902  0.02526  0.55842  Biso   1.000  O
  O2       1.0000 0.71168  0.09745  0.57963  Biso   1.000  O
  C1       1.0000 0.77789  0.06670  0.59802  Biso   1.000  C
  C2       1.0000 0.81200  0.08380  0.67590  Biso   1.000  C
  C3       1.0000 0.77181  0.13490  0.72134  Biso   1.000  C
  H1       1.0000 0.72280  0.15830  0.70400  Biso   1.000  H
  C4       1.0000 0.80280  0.15250  0.79267  Biso   1.000  C
  C5       1.0000 0.87580  0.11770  0.81660  Biso   1.000  C
  H2       1.0000 0.89830  0.13020  0.86390  Biso   1.000  H
  C6       1.0000 0.91540  0.06520  0.77190  Biso   1.000  C
  H3       1.0000 0.96420  0.04130  0.78930  Biso   1.000  H
  C7       1.0000 0.88390  0.04730  0.70132  Biso   1.000  C
  H4       1.0000 0.91090  0.01100  0.67110  Biso   1.000  H
  C8       1.0000 0.64260  0.24950  0.88742  Biso   1.000  C
  H5       1.0000 0.58950  0.24010  0.88720  Biso   1.000  H
  C9       1.0000 0.68060  0.19520  0.84187  Biso   1.000  C
  H6       1.0000 0.65340  0.15050  0.81170  Biso   1.000  H
  C10      1.0000 0.75941  0.20720  0.84102  Biso   1.000  C
  C11      1.0000 0.79560  0.27260  0.88914  Biso   1.000  C
  H7       1.0000 0.84900  0.28130  0.89250  Biso   1.000  H
  C12      1.0000 0.75332  0.32460  0.93178  Biso   1.000  C
  H8       1.0000 0.77910  0.36950  0.96260  Biso   1.000  H
  N2       1.0000 0.54667  0.16310  0.56534  Biso   1.000  N
  O3       1.0000 0.41321  0.45687  0.93929  Biso   1.000  O
  O4       1.0000 0.52415  0.40372  0.90899  Biso   1.000  O
  C13      1.0000 0.45392  0.42200  0.89601  Biso   1.000  C
  C14      1.0000 0.41505  0.39670  0.82127  Biso   1.000  C
  C15      1.0000 0.45475  0.34690  0.77391  Biso   1.000  C
  H9       1.0000 0.50620  0.32980  0.78820  Biso   1.000  H
  C16      1.0000 0.41927  0.32200  0.70539  Biso   1.000  C
  C17      1.0000 0.34340  0.35000  0.68424  Biso   1.000  C
  H10      1.0000 0.31930  0.33500  0.63790  Biso   1.000  H
  C18      1.0000 0.30360  0.39950  0.73090  Biso   1.000  C
  H11      1.0000 0.25250  0.41780  0.71630  Biso   1.000  H
  C19      1.0000 0.33903  0.42250  0.79954  Biso   1.000  C
  H12      1.0000 0.31150  0.45550  0.83130  Biso   1.000  H
  C20      1.0000 0.55690  0.15110  0.63686  Biso   1.000  C
  H13      1.0000 0.59330  0.10670  0.65640  Biso   1.000  H
  C21      1.0000 0.51690  0.20030  0.68327  Biso   1.000  C
  H14      1.0000 0.52640  0.18890  0.73300  Biso   1.000  H
  C22      1.0000 0.46221  0.26710  0.65645  Biso   1.000  C
  C23      1.0000 0.44950  0.27610  0.58254  Biso   1.000  C
  H15      1.0000 0.41180  0.31780  0.56120  Biso   1.000  H
  C24      1.0000 0.49220  0.22360  0.53989  Biso   1.000  C
  H16      1.0000 0.48200  0.23110  0.48980  Biso   1.000  H
  N3       1.0000 0.07156  0.18186  0.57069  Biso   1.000  N
  O5       1.0000 0.92360  0.46787  0.94136  Biso   1.000  O
  O6       1.0000 0.03529  0.40654  0.92003  Biso   1.000  O
  C25      1.0000 0.96777  0.43400  0.90108  Biso   1.000  C
  C26      1.0000 0.93696  0.42100  0.82231  Biso   1.000  C
  C27      1.0000 0.97793  0.36910  0.77756  Biso   1.000  C
  H17      1.0000 0.02650  0.34530  0.79580  Biso   1.000  H
  C28      1.0000 0.94854  0.35140  0.70607  Biso   1.000  C
  C29      1.0000 0.87690  0.38880  0.67996  Biso   1.000  C
  H18      1.0000 0.85570  0.37720  0.63210  Biso   1.000  H
  C30      1.0000 0.83690  0.44250  0.72380  Biso   1.000  C
  H19      1.0000 0.78920  0.46840  0.70500  Biso   1.000  H
  C31      1.0000 0.86610  0.45880  0.79533  Biso   1.000  C
  H20      1.0000 0.83830  0.49490  0.82500  Biso   1.000  H
  C32      1.0000 0.10807  0.24350  0.61723  Biso   1.000  C
  H21      1.0000 0.16170  0.24870  0.61960  Biso   1.000  H
  C33      1.0000 0.07096  0.29950  0.66164  Biso   1.000  C
  H22      1.0000 0.09920  0.34150  0.69340  Biso   1.000  H
  C34      1.0000 0.99137  0.29370  0.65937  Biso   1.000  C
  C35      1.0000 0.95330  0.23070  0.61027  Biso   1.000  C
  H23      1.0000 0.89950  0.22570  0.60560  Biso   1.000  H
  C36      1.0000 0.99460  0.17600  0.56874  Biso   1.000  C
  H24      1.0000 0.96790  0.13240  0.53740  Biso   1.000  H
  N4       1.0000 0.80893  0.80721  0.55458  Biso   1.000  N
  O7       1.0000 0.66441  0.52839  0.92957  Biso   1.000  O
  O8       1.0000 0.77515  0.59036  0.90710  Biso   1.000  O
  C37      1.0000 0.70787  0.56170  0.88826  Biso   1.000  C
  C38      1.0000 0.67728  0.56990  0.80889  Biso   1.000  C
  C39      1.0000 0.71694  0.62190  0.76310  Biso   1.000  C
  H25      1.0000 0.76350  0.65080  0.78130  Biso   1.000  H
  C40      1.0000 0.68854  0.63210  0.68998  Biso   1.000  C
  C41      1.0000 0.61960  0.58760  0.66384  Biso   1.000  C
  H26      1.0000 0.59940  0.59410  0.61520  Biso   1.000  H
  C42      1.0000 0.58100  0.53420  0.70910  Biso   1.000  C
  H27      1.0000 0.53530  0.50340  0.69060  Biso   1.000  H
  C43      1.0000 0.60894  0.52550  0.78194  Biso   1.000  C
  H28      1.0000 0.58190  0.49000  0.81260  Biso   1.000  H
  C44      1.0000 0.84671  0.75100  0.60451  Biso   1.000  C
  H29      1.0000 0.90070  0.75090  0.60950  Biso   1.000  H
  C45      1.0000 0.81090  0.69310  0.64897  Biso   1.000  C
  H30      1.0000 0.84040  0.65630  0.68370  Biso   1.000  H
  C46      1.0000 0.73092  0.68950  0.64220  Biso   1.000  C
  C47      1.0000 0.69202  0.74580  0.58887  Biso   1.000  C
  H31      1.0000 0.63800  0.74480  0.58100  Biso   1.000  H
  C48      1.0000 0.73190  0.80310  0.54733  Biso   1.000  C
  H32      1.0000 0.70380  0.84110  0.51240  Biso   1.000  H
  Mn3      1.0000 0.38375  0.92877  0.50497  Biso   1.000  Mn
  Mn4      1.0000 0.13191  0.07665  0.50474  Biso   1.000  Mn
  N5       1.0000 0.32266  0.81450  0.56825  Biso   1.000  N
  O9       1.0000 0.18098  0.52526  0.94158  Biso   1.000  O
  O10      1.0000 0.28832  0.59745  0.92037  Biso   1.000  O
  C49      1.0000 0.22211  0.56670  0.90198  Biso   1.000  C
  C50      1.0000 0.18800  0.58380  0.82410  Biso   1.000  C
  C51      1.0000 0.22819  0.63490  0.77866  Biso   1.000  C
  H33      1.0000 0.27720  0.65830  0.79600  Biso   1.000  H
  C52      1.0000 0.19720  0.65250  0.70733  Biso   1.000  C
  C53      1.0000 0.12420  0.61770  0.68340  Biso   1.000  C
  H34      1.0000 0.10170  0.63020  0.63610  Biso   1.000  H
  C54      1.0000 0.08460  0.56520  0.72810  Biso   1.000  C
  H35      1.0000 0.03580  0.54130  0.71070  Biso   1.000  H
  C55      1.0000 0.11610  0.54730  0.79868  Biso   1.000  C
  H36      1.0000 0.08910  0.51100  0.82890  Biso   1.000  H
  C56      1.0000 0.35740  0.74950  0.61258  Biso   1.000  C
  H37      1.0000 0.41050  0.74010  0.61280  Biso   1.000  H
  C57      1.0000 0.31940  0.69520  0.65813  Biso   1.000  C
  H38      1.0000 0.34660  0.65050  0.68830  Biso   1.000  H
  C58      1.0000 0.24059  0.70720  0.65898  Biso   1.000  C
  C59      1.0000 0.20440  0.77260  0.61086  Biso   1.000  C
  H39      1.0000 0.15100  0.78130  0.60750  Biso   1.000  H
  C60      1.0000 0.24668  0.82460  0.56822  Biso   1.000  C
  H40      1.0000 0.22090  0.86950  0.53740  Biso   1.000  H
  N6       1.0000 0.45333  0.66310  0.93466  Biso   1.000  N
  O11      1.0000 0.58679  0.95687  0.56071  Biso   1.000  O
  O12      1.0000 0.47585  0.90372  0.59101  Biso   1.000  O
  C61      1.0000 0.54608  0.92200  0.60399  Biso   1.000  C
  C62      1.0000 0.58495  0.89670  0.67873  Biso   1.000  C
  C63      1.0000 0.54525  0.84690  0.72609  Biso   1.000  C
  H41      1.0000 0.49380  0.82980  0.71180  Biso   1.000  H
  C64      1.0000 0.58073  0.82200  0.79461  Biso   1.000  C
  C65      1.0000 0.65660  0.85000  0.81576  Biso   1.000  C
  H42      1.0000 0.68070  0.83500  0.86210  Biso   1.000  H
  C66      1.0000 0.69640  0.89950  0.76910  Biso   1.000  C
  H43      1.0000 0.74750  0.91780  0.78370  Biso   1.000  H
  C67      1.0000 0.66097  0.92250  0.70046  Biso   1.000  C
  H44      1.0000 0.68850  0.95550  0.66870  Biso   1.000  H
  C68      1.0000 0.44310  0.65110  0.86314  Biso   1.000  C
  H45      1.0000 0.40670  0.60670  0.84360  Biso   1.000  H
  C69      1.0000 0.48310  0.70030  0.81673  Biso   1.000  C
  H46      1.0000 0.47360  0.68890  0.76700  Biso   1.000  H
  C70      1.0000 0.53779  0.76710  0.84355  Biso   1.000  C
  C71      1.0000 0.55050  0.77610  0.91746  Biso   1.000  C
  H47      1.0000 0.58820  0.81780  0.93880  Biso   1.000  H
  C72      1.0000 0.50780  0.72360  0.96011  Biso   1.000  C
  H48      1.0000 0.51800  0.73110  0.01020  Biso   1.000  H
  N7       1.0000 0.92844  0.68186  0.92931  Biso   1.000  N
  O13      1.0000 0.07640  0.96787  0.55864  Biso   1.000  O
  O14      1.0000 0.96471  0.90654  0.57997  Biso   1.000  O
  C73      1.0000 0.03223  0.93400  0.59892  Biso   1.000  C
  C74      1.0000 0.06304  0.92100  0.67769  Biso   1.000  C
  C75      1.0000 0.02207  0.86910  0.72244  Biso   1.000  C
  H49      1.0000 0.97350  0.84530  0.70420  Biso   1.000  H
  C76      1.0000 0.05146  0.85140  0.79393  Biso   1.000  C
  C77      1.0000 0.12310  0.88880  0.82004  Biso   1.000  C
  H50      1.0000 0.14430  0.87720  0.86790  Biso   1.000  H
  C78      1.0000 0.16310  0.94250  0.77620  Biso   1.000  C
  H51      1.0000 0.21080  0.96840  0.79500  Biso   1.000  H
  C79      1.0000 0.13390  0.95880  0.70467  Biso   1.000  C
  H52      1.0000 0.16170  0.99490  0.67500  Biso   1.000  H
  C80      1.0000 0.89193  0.74350  0.88277  Biso   1.000  C
  H53      1.0000 0.83830  0.74870  0.88040  Biso   1.000  H
  C81      1.0000 0.92904  0.79950  0.83836  Biso   1.000  C
  H54      1.0000 0.90080  0.84150  0.80660  Biso   1.000  H
  C82      1.0000 0.00863  0.79370  0.84063  Biso   1.000  C
  C83      1.0000 0.04670  0.73070  0.88973  Biso   1.000  C
  H55      1.0000 0.10050  0.72570  0.89440  Biso   1.000  H
  C84      1.0000 0.00540  0.67600  0.93126  Biso   1.000  C
  H56      1.0000 0.03210  0.63240  0.96260  Biso   1.000  H
  N8       1.0000 0.19107  0.30721  0.94542  Biso   1.000  N
  O15      1.0000 0.33559  0.02839  0.57043  Biso   1.000  O
  O16      1.0000 0.22485  0.09036  0.59290  Biso   1.000  O
  C85      1.0000 0.29213  0.06170  0.61174  Biso   1.000  C
  C86      1.0000 0.32272  0.06990  0.69111  Biso   1.000  C
  C87      1.0000 0.28306  0.12190  0.73690  Biso   1.000  C
  H57      1.0000 0.23650  0.15080  0.71870  Biso   1.000  H
  C88      1.0000 0.31146  0.13210  0.81002  Biso   1.000  C
  C89      1.0000 0.38040  0.08760  0.83616  Biso   1.000  C
  H58      1.0000 0.40060  0.09410  0.88480  Biso   1.000  H
  C90      1.0000 0.41900  0.03420  0.79090  Biso   1.000  C
  H59      1.0000 0.46470  0.00340  0.80940  Biso   1.000  H
  C91      1.0000 0.39106  0.02550  0.71806  Biso   1.000  C
  H60      1.0000 0.41810  0.99000  0.68740  Biso   1.000  H
  C92      1.0000 0.15329  0.25100  0.89549  Biso   1.000  C
  H61      1.0000 0.09930  0.25090  0.89050  Biso   1.000  H
  C93      1.0000 0.18910  0.19310  0.85103  Biso   1.000  C
  H62      1.0000 0.15960  0.15630  0.81630  Biso   1.000  H
  C94      1.0000 0.26908  0.18950  0.85780  Biso   1.000  C
  C95      1.0000 0.30798  0.24580  0.91113  Biso   1.000  C
  H63      1.0000 0.36200  0.24480  0.91900  Biso   1.000  H
  C96      1.0000 0.26810  0.30310  0.95267  Biso   1.000  C
  H64      1.0000 0.29620  0.34110  0.98760  Biso   1.000  H
  Mn5      1.0000 0.38375  0.57123  0.00497  Biso   1.000  Mn
  Mn6      1.0000 0.13191  0.42335  0.00474  Biso   1.000  Mn
  N9       1.0000 0.32266  0.68550  0.06825  Biso   1.000  N
  O17      1.0000 0.18098  0.97474  0.44158  Biso   1.000  O
  O18      1.0000 0.28832  0.90255  0.42037  Biso   1.000  O
  C97      1.0000 0.22211  0.93330  0.40198  Biso   1.000  C
  C98      1.0000 0.18800  0.91620  0.32410  Biso   1.000  C
  C99      1.0000 0.22819  0.86510  0.27866  Biso   1.000  C
  H65      1.0000 0.27720  0.84170  0.29600  Biso   1.000  H
  C100     1.0000 0.19720  0.84750  0.20733  Biso   1.000  C
  C101     1.0000 0.12420  0.88230  0.18340  Biso   1.000  C
  H66      1.0000 0.10170  0.86980  0.13610  Biso   1.000  H
  C102     1.0000 0.08460  0.93480  0.22810  Biso   1.000  C
  H67      1.0000 0.03580  0.95870  0.21070  Biso   1.000  H
  C103     1.0000 0.11610  0.95270  0.29868  Biso   1.000  C
  H68      1.0000 0.08910  0.98900  0.32890  Biso   1.000  H
  C104     1.0000 0.35740  0.75050  0.11258  Biso   1.000  C
  H69      1.0000 0.41050  0.75990  0.11280  Biso   1.000  H
  C105     1.0000 0.31940  0.80480  0.15813  Biso   1.000  C
  H70      1.0000 0.34660  0.84950  0.18830  Biso   1.000  H
  C106     1.0000 0.24059  0.79280  0.15898  Biso   1.000  C
  C107     1.0000 0.20440  0.72740  0.11086  Biso   1.000  C
  H71      1.0000 0.15100  0.71870  0.10750  Biso   1.000  H
  C108     1.0000 0.24668  0.67540  0.06822  Biso   1.000  C
  H72      1.0000 0.22090  0.63050  0.03740  Biso   1.000  H
  N10      1.0000 0.45333  0.83690  0.43466  Biso   1.000  N
  O19      1.0000 0.58679  0.54313  0.06071  Biso   1.000  O
  O20      1.0000 0.47585  0.59628  0.09101  Biso   1.000  O
  C109     1.0000 0.54608  0.57800  0.10399  Biso   1.000  C
  C110     1.0000 0.58495  0.60330  0.17873  Biso   1.000  C
  C111     1.0000 0.54525  0.65310  0.22609  Biso   1.000  C
  H73      1.0000 0.49380  0.67020  0.21180  Biso   1.000  H
  C112     1.0000 0.58073  0.67800  0.29461  Biso   1.000  C
  C113     1.0000 0.65660  0.65000  0.31576  Biso   1.000  C
  H74      1.0000 0.68070  0.66500  0.36210  Biso   1.000  H
  C114     1.0000 0.69640  0.60050  0.26910  Biso   1.000  C
  H75      1.0000 0.74750  0.58220  0.28370  Biso   1.000  H
  C115     1.0000 0.66097  0.57750  0.20046  Biso   1.000  C
  H76      1.0000 0.68850  0.54450  0.16870  Biso   1.000  H
  C116     1.0000 0.44310  0.84890  0.36314  Biso   1.000  C
  H77      1.0000 0.40670  0.89330  0.34360  Biso   1.000  H
  C117     1.0000 0.48310  0.79970  0.31673  Biso   1.000  C
  H78      1.0000 0.47360  0.81110  0.26700  Biso   1.000  H
  C118     1.0000 0.53779  0.73290  0.34355  Biso   1.000  C
  C119     1.0000 0.55050  0.72390  0.41746  Biso   1.000  C
  H79      1.0000 0.58820  0.68220  0.43880  Biso   1.000  H
  C120     1.0000 0.50780  0.77640  0.46011  Biso   1.000  C
  H80      1.0000 0.51800  0.76890  0.51020  Biso   1.000  H
  N11      1.0000 0.92844  0.81814  0.42931  Biso   1.000  N
  O21      1.0000 0.07640  0.53213  0.05864  Biso   1.000  O
  O22      1.0000 0.96471  0.59346  0.07997  Biso   1.000  O
  C121     1.0000 0.03223  0.56600  0.09892  Biso   1.000  C
  C122     1.0000 0.06304  0.57900  0.17769  Biso   1.000  C
  C123     1.0000 0.02207  0.63090  0.22244  Biso   1.000  C
  H81      1.0000 0.97350  0.65470  0.20420  Biso   1.000  H
  C124     1.0000 0.05146  0.64860  0.29393  Biso   1.000  C
  C125     1.0000 0.12310  0.61120  0.32004  Biso   1.000  C
  H82      1.0000 0.14430  0.62280  0.36790  Biso   1.000  H
  C126     1.0000 0.16310  0.55750  0.27620  Biso   1.000  C
  H83      1.0000 0.21080  0.53160  0.29500  Biso   1.000  H
  C127     1.0000 0.13390  0.54120  0.20467  Biso   1.000  C
  H84      1.0000 0.16170  0.50510  0.17500  Biso   1.000  H
  C128     1.0000 0.89193  0.75650  0.38277  Biso   1.000  C
  H85      1.0000 0.83830  0.75130  0.38040  Biso   1.000  H
  C129     1.0000 0.92904  0.70050  0.33836  Biso   1.000  C
  H86      1.0000 0.90080  0.65850  0.30660  Biso   1.000  H
  C130     1.0000 0.00863  0.70630  0.34063  Biso   1.000  C
  C131     1.0000 0.04670  0.76930  0.38973  Biso   1.000  C
  H87      1.0000 0.10050  0.77430  0.39440  Biso   1.000  H
  C132     1.0000 0.00540  0.82400  0.43126  Biso   1.000  C
  H88      1.0000 0.03210  0.86760  0.46260  Biso   1.000  H
  N12      1.0000 0.19107  0.19279  0.44542  Biso   1.000  N
  O23      1.0000 0.33559  0.47161  0.07043  Biso   1.000  O
  O24      1.0000 0.22485  0.40964  0.09290  Biso   1.000  O
  C133     1.0000 0.29213  0.43830  0.11174  Biso   1.000  C
  C134     1.0000 0.32272  0.43010  0.19111  Biso   1.000  C
  C135     1.0000 0.28306  0.37810  0.23690  Biso   1.000  C
  H89      1.0000 0.23650  0.34920  0.21870  Biso   1.000  H
  C136     1.0000 0.31146  0.36790  0.31002  Biso   1.000  C
  C137     1.0000 0.38040  0.41240  0.33616  Biso   1.000  C
  H90      1.0000 0.40060  0.40590  0.38480  Biso   1.000  H
  C138     1.0000 0.41900  0.46580  0.29090  Biso   1.000  C
  H91      1.0000 0.46470  0.49660  0.30940  Biso   1.000  H
  C139     1.0000 0.39106  0.47450  0.21806  Biso   1.000  C
  H92      1.0000 0.41810  0.51000  0.18740  Biso   1.000  H
  C140     1.0000 0.15329  0.24900  0.39549  Biso   1.000  C
  H93      1.0000 0.09930  0.24910  0.39050  Biso   1.000  H
  C141     1.0000 0.18910  0.30690  0.35103  Biso   1.000  C
  H94      1.0000 0.15960  0.34370  0.31630  Biso   1.000  H
  C142     1.0000 0.26908  0.31050  0.35780  Biso   1.000  C
  C143     1.0000 0.30798  0.25420  0.41113  Biso   1.000  C
  H95      1.0000 0.36200  0.25520  0.41900  Biso   1.000  H
  C144     1.0000 0.26810  0.19690  0.45267  Biso   1.000  C
  H96      1.0000 0.29620  0.15890  0.48760  Biso   1.000  H
  Mn7      1.0000 0.61625  0.07123  0.49503  Biso   1.000  Mn
  Mn8      1.0000 0.86809  0.92335  0.49526  Biso   1.000  Mn
  N13      1.0000 0.67734  0.18550  0.43175  Biso   1.000  N
  O25      1.0000 0.81902  0.47474  0.05842  Biso   1.000  O
  O26      1.0000 0.71168  0.40255  0.07963  Biso   1.000  O
  C145     1.0000 0.77789  0.43330  0.09802  Biso   1.000  C
  C146     1.0000 0.81200  0.41620  0.17590  Biso   1.000  C
  C147     1.0000 0.77181  0.36510  0.22134  Biso   1.000  C
  H97      1.0000 0.72280  0.34170  0.20400  Biso   1.000  H
  C148     1.0000 0.80280  0.34750  0.29267  Biso   1.000  C
  C149     1.0000 0.87580  0.38230  0.31660  Biso   1.000  C
  H98      1.0000 0.89830  0.36980  0.36390  Biso   1.000  H
  C150     1.0000 0.91540  0.43480  0.27190  Biso   1.000  C
  H99      1.0000 0.96420  0.45870  0.28930  Biso   1.000  H
  C151     1.0000 0.88390  0.45270  0.20132  Biso   1.000  C
  H100     1.0000 0.91090  0.48900  0.17110  Biso   1.000  H
  C152     1.0000 0.64260  0.25050  0.38742  Biso   1.000  C
  H101     1.0000 0.58950  0.25990  0.38720  Biso   1.000  H
  C153     1.0000 0.68060  0.30480  0.34187  Biso   1.000  C
  H102     1.0000 0.65340  0.34950  0.31170  Biso   1.000  H
  C154     1.0000 0.75941  0.29280  0.34102  Biso   1.000  C
  C155     1.0000 0.79560  0.22740  0.38914  Biso   1.000  C
  H103     1.0000 0.84900  0.21870  0.39250  Biso   1.000  H
  C156     1.0000 0.75332  0.17540  0.43178  Biso   1.000  C
  H104     1.0000 0.77910  0.13050  0.46260  Biso   1.000  H
  N14      1.0000 0.54667  0.33690  0.06534  Biso   1.000  N
  O27      1.0000 0.41321  0.04313  0.43929  Biso   1.000  O
  O28      1.0000 0.52415  0.09628  0.40899  Biso   1.000  O
  C157     1.0000 0.45392  0.07800  0.39601  Biso   1.000  C
  C158     1.0000 0.41505  0.10330  0.32127  Biso   1.000  C
  C159     1.0000 0.45475  0.15310  0.27391  Biso   1.000  C
  H105     1.0000 0.50620  0.17020  0.28820  Biso   1.000  H
  C160     1.0000 0.41927  0.17800  0.20539  Biso   1.000  C
  C161     1.0000 0.34340  0.15000  0.18424  Biso   1.000  C
  H106     1.0000 0.31930  0.16500  0.13790  Biso   1.000  H
  C162     1.0000 0.30360  0.10050  0.23090  Biso   1.000  C
  H107     1.0000 0.25250  0.08220  0.21630  Biso   1.000  H
  C163     1.0000 0.33903  0.07750  0.29954  Biso   1.000  C
  H108     1.0000 0.31150  0.04450  0.33130  Biso   1.000  H
  C164     1.0000 0.55690  0.34890  0.13686  Biso   1.000  C
  H109     1.0000 0.59330  0.39330  0.15640  Biso   1.000  H
  C165     1.0000 0.51690  0.29970  0.18327  Biso   1.000  C
  H110     1.0000 0.52640  0.31110  0.23300  Biso   1.000  H
  C166     1.0000 0.46221  0.23290  0.15645  Biso   1.000  C
  C167     1.0000 0.44950  0.22390  0.08254  Biso   1.000  C
  H111     1.0000 0.41180  0.18220  0.06120  Biso   1.000  H
  C168     1.0000 0.49220  0.27640  0.03989  Biso   1.000  C
  H112     1.0000 0.48200  0.26890  0.98980  Biso   1.000  H
  N15      1.0000 0.07156  0.31814  0.07069  Biso   1.000  N
  O29      1.0000 0.92360  0.03213  0.44136  Biso   1.000  O
  O30      1.0000 0.03529  0.09346  0.42003  Biso   1.000  O
  C169     1.0000 0.96777  0.06600  0.40108  Biso   1.000  C
  C170     1.0000 0.93696  0.07900  0.32231  Biso   1.000  C
  C171     1.0000 0.97793  0.13090  0.27756  Biso   1.000  C
  H113     1.0000 0.02650  0.15470  0.29580  Biso   1.000  H
  C172     1.0000 0.94854  0.14860  0.20607  Biso   1.000  C
  C173     1.0000 0.87690  0.11120  0.17996  Biso   1.000  C
  H114     1.0000 0.85570  0.12280  0.13210  Biso   1.000  H
  C174     1.0000 0.83690  0.05750  0.22380  Biso   1.000  C
  H115     1.0000 0.78920  0.03160  0.20500  Biso   1.000  H
  C175     1.0000 0.86610  0.04120  0.29533  Biso   1.000  C
  H116     1.0000 0.83830  0.00510  0.32500  Biso   1.000  H
  C176     1.0000 0.10807  0.25650  0.11723  Biso   1.000  C
  H117     1.0000 0.16170  0.25130  0.11960  Biso   1.000  H
  C177     1.0000 0.07096  0.20050  0.16164  Biso   1.000  C
  H118     1.0000 0.09920  0.15850  0.19340  Biso   1.000  H
  C178     1.0000 0.99137  0.20630  0.15937  Biso   1.000  C
  C179     1.0000 0.95330  0.26930  0.11027  Biso   1.000  C
  H119     1.0000 0.89950  0.27430  0.10560  Biso   1.000  H
  C180     1.0000 0.99460  0.32400  0.06874  Biso   1.000  C
  H120     1.0000 0.96790  0.36760  0.03740  Biso   1.000  H
  N16      1.0000 0.80893  0.69279  0.05458  Biso   1.000  N
  O31      1.0000 0.66441  0.97161  0.42957  Biso   1.000  O
  O32      1.0000 0.77515  0.90964  0.40710  Biso   1.000  O
  C181     1.0000 0.70787  0.93830  0.38826  Biso   1.000  C
  C182     1.0000 0.67728  0.93010  0.30889  Biso   1.000  C
  C183     1.0000 0.71694  0.87810  0.26310  Biso   1.000  C
  H121     1.0000 0.76350  0.84920  0.28130  Biso   1.000  H
  C184     1.0000 0.68854  0.86790  0.18998  Biso   1.000  C
  C185     1.0000 0.61960  0.91240  0.16384  Biso   1.000  C
  H122     1.0000 0.59940  0.90590  0.11520  Biso   1.000  H
  C186     1.0000 0.58100  0.96580  0.20910  Biso   1.000  C
  H123     1.0000 0.53530  0.99660  0.19060  Biso   1.000  H
  C187     1.0000 0.60894  0.97450  0.28194  Biso   1.000  C
  H124     1.0000 0.58190  0.01000  0.31260  Biso   1.000  H
  C188     1.0000 0.84671  0.74900  0.10451  Biso   1.000  C
  H125     1.0000 0.90070  0.74910  0.10950  Biso   1.000  H
  C189     1.0000 0.81090  0.80690  0.14897  Biso   1.000  C
  H126     1.0000 0.84040  0.84370  0.18370  Biso   1.000  H
  C190     1.0000 0.73092  0.81050  0.14220  Biso   1.000  C
  C191     1.0000 0.69202  0.75420  0.08887  Biso   1.000  C
  H127     1.0000 0.63800  0.75520  0.08100  Biso   1.000  H
  C192     1.0000 0.73190  0.69690  0.04733  Biso   1.000  C
  H128     1.0000 0.70380  0.65890  0.01240  Biso   1.000  H
