data_image0
_cell_length_a       17.5811
_cell_length_b       14.0978
_cell_length_c       18.7871
_cell_angle_alpha    90
_cell_angle_beta     97.723
_cell_angle_gamma    90

_symmetry_space_group_name_H-M    "P 1"
_symmetry_int_tables_number       1

loop_
  _symmetry_equiv_pos_as_xyz
  'x, y, z'

loop_
  _atom_site_label
  _atom_site_occupancy
  _atom_site_fract_x
  _atom_site_fract_y
  _atom_site_fract_z
  _atom_site_thermal_displace_type
  _atom_site_B_iso_or_equiv
  _atom_site_type_symbol
  Mn1      1.0000 0.61542  0.42917  0.99462  Biso   1.000  Mn
  Mn2      1.0000 0.86755  0.57668  0.99482  Biso   1.000  Mn
  N1       1.0000 0.67566  0.31326  0.93197  Biso   1.000  N
  O1       1.0000 0.81913  0.02675  0.55779  Biso   1.000  O
  O2       1.0000 0.71076  0.09754  0.57924  Biso   1.000  O
  C1       1.0000 0.77784  0.06765  0.59772  Biso   1.000  C
  C2       1.0000 0.81179  0.08453  0.67527  Biso   1.000  C
  C3       1.0000 0.77125  0.13520  0.72116  Biso   1.000  C
  H1       1.0000 0.72150  0.15840  0.70380  Biso   1.000  H
  C4       1.0000 0.80230  0.15274  0.79236  Biso   1.000  C
  C5       1.0000 0.87612  0.11909  0.81655  Biso   1.000  C
  H2       1.0000 0.89880  0.13190  0.86440  Biso   1.000  H
  C6       1.0000 0.91646  0.06733  0.77141  Biso   1.000  C
  H3       1.0000 0.96610  0.04370  0.78870  Biso   1.000  H
  C7       1.0000 0.88443  0.04982  0.70080  Biso   1.000  C
  H4       1.0000 0.91220  0.01410  0.67000  Biso   1.000  H
  C8       1.0000 0.64150  0.24671  0.88724  Biso   1.000  C
  H5       1.0000 0.58810  0.23620  0.88670  Biso   1.000  H
  C9       1.0000 0.67998  0.19276  0.84198  Biso   1.000  C
  H6       1.0000 0.65300  0.14660  0.81150  Biso   1.000  H
  C10      1.0000 0.75826  0.20633  0.84113  Biso   1.000  C
  C11      1.0000 0.79410  0.27345  0.88873  Biso   1.000  C
  H7       1.0000 0.84780  0.28380  0.89140  Biso   1.000  H
  C12      1.0000 0.75169  0.32477  0.93186  Biso   1.000  C
  H8       1.0000 0.77750  0.37080  0.96330  Biso   1.000  H
  N2       1.0000 0.54589  0.16195  0.56484  Biso   1.000  N
  O3       1.0000 0.41212  0.45405  0.93935  Biso   1.000  O
  O4       1.0000 0.52372  0.40370  0.90836  Biso   1.000  O
  C13      1.0000 0.45275  0.42038  0.89576  Biso   1.000  C
  C14      1.0000 0.41376  0.39516  0.82099  Biso   1.000  C
  C15      1.0000 0.45332  0.34543  0.77356  Biso   1.000  C
  H9       1.0000 0.50510  0.32750  0.78830  Biso   1.000  H
  C16      1.0000 0.41855  0.32119  0.70465  Biso   1.000  C
  C17      1.0000 0.34262  0.34976  0.68323  Biso   1.000  C
  H10      1.0000 0.31820  0.33510  0.63630  Biso   1.000  H
  C18      1.0000 0.30291  0.39948  0.73036  Biso   1.000  C
  H11      1.0000 0.25150  0.41880  0.71540  Biso   1.000  H
  C19      1.0000 0.33791  0.42118  0.79933  Biso   1.000  C
  H12      1.0000 0.30990  0.45380  0.83170  Biso   1.000  H
  C20      1.0000 0.55686  0.15001  0.63663  Biso   1.000  C
  H13      1.0000 0.59440  0.10550  0.65650  Biso   1.000  H
  C21      1.0000 0.51649  0.19906  0.68280  Biso   1.000  C
  H14      1.0000 0.52600  0.18710  0.73300  Biso   1.000  H
  C22      1.0000 0.46143  0.26650  0.65592  Biso   1.000  C
  C23      1.0000 0.44909  0.27758  0.58177  Biso   1.000  C
  H15      1.0000 0.41170  0.32130  0.56030  Biso   1.000  H
  C24      1.0000 0.49177  0.22435  0.53935  Biso   1.000  C
  H16      1.0000 0.48190  0.23280  0.48880  Biso   1.000  H
  N3       1.0000 0.07258  0.18314  0.57050  Biso   1.000  N
  O5       1.0000 0.92325  0.46674  0.94139  Biso   1.000  O
  O6       1.0000 0.03598  0.40659  0.92025  Biso   1.000  O
  C25      1.0000 0.96783  0.43324  0.90095  Biso   1.000  C
  C26      1.0000 0.93740  0.42144  0.82254  Biso   1.000  C
  C27      1.0000 0.97867  0.36959  0.77757  Biso   1.000  C
  H17      1.0000 0.02770  0.34500  0.79590  Biso   1.000  H
  C28      1.0000 0.94905  0.35329  0.70610  Biso   1.000  C
  C29      1.0000 0.87725  0.39087  0.67943  Biso   1.000  C
  H18      1.0000 0.85610  0.37960  0.63090  Biso   1.000  H
  C30      1.0000 0.83718  0.44416  0.72333  Biso   1.000  C
  H19      1.0000 0.78910  0.47100  0.70440  Biso   1.000  H
  C31      1.0000 0.86616  0.45927  0.79509  Biso   1.000  C
  H20      1.0000 0.83760  0.49510  0.82520  Biso   1.000  H
  C32      1.0000 0.10892  0.24556  0.61732  Biso   1.000  C
  H21      1.0000 0.16310  0.25120  0.61990  Biso   1.000  H
  C33      1.0000 0.07190  0.30185  0.66189  Biso   1.000  C
  H22      1.0000 0.10040  0.34450  0.69440  Biso   1.000  H
  C34      1.0000 0.99218  0.29577  0.65888  Biso   1.000  C
  C35      1.0000 0.95442  0.23182  0.60968  Biso   1.000  C
  H23      1.0000 0.90010  0.22620  0.60480  Biso   1.000  H
  C36      1.0000 0.99605  0.17681  0.56815  Biso   1.000  C
  H24      1.0000 0.96930  0.13210  0.53620  Biso   1.000  H
  N4       1.0000 0.80877  0.80626  0.55365  Biso   1.000  N
  O7       1.0000 0.66322  0.52969  0.92912  Biso   1.000  O
  O8       1.0000 0.77492  0.58999  0.90652  Biso   1.000  O
  C37      1.0000 0.70700  0.56211  0.88780  Biso   1.000  C
  C38      1.0000 0.67616  0.56943  0.80835  Biso   1.000  C
  C39      1.0000 0.71610  0.62170  0.76243  Biso   1.000  C
  H25      1.0000 0.76320  0.65120  0.78090  Biso   1.000  H
  C40      1.0000 0.68789  0.63130  0.68961  Biso   1.000  C
  C41      1.0000 0.61879  0.58606  0.66333  Biso   1.000  C
  H26      1.0000 0.59870  0.59190  0.61400  Biso   1.000  H
  C42      1.0000 0.57949  0.53296  0.70854  Biso   1.000  C
  H27      1.0000 0.53300  0.50200  0.68990  Biso   1.000  H
  C43      1.0000 0.60772  0.52465  0.78117  Biso   1.000  C
  H28      1.0000 0.58040  0.48850  0.81210  Biso   1.000  H
  C44      1.0000 0.84657  0.74978  0.60464  Biso   1.000  C
  H29      1.0000 0.90110  0.75010  0.61040  Biso   1.000  H
  C45      1.0000 0.81065  0.69151  0.64893  Biso   1.000  C
  H30      1.0000 0.84020  0.65370  0.68420  Biso   1.000  H
  C46      1.0000 0.73011  0.68851  0.64147  Biso   1.000  C
  C47      1.0000 0.69195  0.74438  0.58708  Biso   1.000  C
  H31      1.0000 0.63750  0.74280  0.57820  Biso   1.000  H
  C48      1.0000 0.73177  0.80186  0.54597  Biso   1.000  C
  H32      1.0000 0.70340  0.84040  0.51030  Biso   1.000  H
  Mn3      1.0000 0.38458  0.92917  0.50538  Biso   1.000  Mn
  Mn4      1.0000 0.13245  0.07668  0.50518  Biso   1.000  Mn
  N5       1.0000 0.32434  0.81326  0.56803  Biso   1.000  N
  O9       1.0000 0.18087  0.52675  0.94221  Biso   1.000  O
  O10      1.0000 0.28924  0.59754  0.92076  Biso   1.000  O
  C49      1.0000 0.22216  0.56765  0.90228  Biso   1.000  C
  C50      1.0000 0.18821  0.58453  0.82473  Biso   1.000  C
  C51      1.0000 0.22875  0.63520  0.77884  Biso   1.000  C
  H33      1.0000 0.27850  0.65840  0.79620  Biso   1.000  H
  C52      1.0000 0.19770  0.65274  0.70764  Biso   1.000  C
  C53      1.0000 0.12388  0.61909  0.68345  Biso   1.000  C
  H34      1.0000 0.10120  0.63190  0.63560  Biso   1.000  H
  C54      1.0000 0.08354  0.56733  0.72859  Biso   1.000  C
  H35      1.0000 0.03390  0.54370  0.71130  Biso   1.000  H
  C55      1.0000 0.11557  0.54982  0.79920  Biso   1.000  C
  H36      1.0000 0.08780  0.51410  0.83000  Biso   1.000  H
  C56      1.0000 0.35850  0.74671  0.61276  Biso   1.000  C
  H37      1.0000 0.41190  0.73620  0.61330  Biso   1.000  H
  C57      1.0000 0.32002  0.69276  0.65802  Biso   1.000  C
  H38      1.0000 0.34700  0.64660  0.68850  Biso   1.000  H
  C58      1.0000 0.24174  0.70633  0.65887  Biso   1.000  C
  C59      1.0000 0.20590  0.77345  0.61127  Biso   1.000  C
  H39      1.0000 0.15220  0.78380  0.60860  Biso   1.000  H
  C60      1.0000 0.24831  0.82477  0.56814  Biso   1.000  C
  H40      1.0000 0.22250  0.87080  0.53670  Biso   1.000  H
  N6       1.0000 0.45411  0.66195  0.93516  Biso   1.000  N
  O11      1.0000 0.58788  0.95405  0.56065  Biso   1.000  O
  O12      1.0000 0.47628  0.90370  0.59164  Biso   1.000  O
  C61      1.0000 0.54725  0.92038  0.60424  Biso   1.000  C
  C62      1.0000 0.58624  0.89516  0.67901  Biso   1.000  C
  C63      1.0000 0.54668  0.84543  0.72644  Biso   1.000  C
  H41      1.0000 0.49490  0.82750  0.71170  Biso   1.000  H
  C64      1.0000 0.58145  0.82119  0.79535  Biso   1.000  C
  C65      1.0000 0.65738  0.84976  0.81677  Biso   1.000  C
  H42      1.0000 0.68180  0.83510  0.86370  Biso   1.000  H
  C66      1.0000 0.69709  0.89948  0.76964  Biso   1.000  C
  H43      1.0000 0.74850  0.91880  0.78460  Biso   1.000  H
  C67      1.0000 0.66209  0.92118  0.70067  Biso   1.000  C
  H44      1.0000 0.69010  0.95380  0.66830  Biso   1.000  H
  C68      1.0000 0.44314  0.65001  0.86337  Biso   1.000  C
  H45      1.0000 0.40560  0.60550  0.84350  Biso   1.000  H
  C69      1.0000 0.48351  0.69906  0.81720  Biso   1.000  C
  H46      1.0000 0.47400  0.68710  0.76700  Biso   1.000  H
  C70      1.0000 0.53857  0.76650  0.84408  Biso   1.000  C
  C71      1.0000 0.55091  0.77758  0.91823  Biso   1.000  C
  H47      1.0000 0.58830  0.82130  0.93970  Biso   1.000  H
  C72      1.0000 0.50823  0.72435  0.96065  Biso   1.000  C
  H48      1.0000 0.51810  0.73280  0.01120  Biso   1.000  H
  N7       1.0000 0.92742  0.68314  0.92950  Biso   1.000  N
  O13      1.0000 0.07675  0.96674  0.55861  Biso   1.000  O
  O14      1.0000 0.96402  0.90659  0.57975  Biso   1.000  O
  C73      1.0000 0.03217  0.93324  0.59905  Biso   1.000  C
  C74      1.0000 0.06260  0.92144  0.67746  Biso   1.000  C
  C75      1.0000 0.02133  0.86959  0.72243  Biso   1.000  C
  H49      1.0000 0.97230  0.84500  0.70410  Biso   1.000  H
  C76      1.0000 0.05095  0.85329  0.79390  Biso   1.000  C
  C77      1.0000 0.12275  0.89087  0.82057  Biso   1.000  C
  H50      1.0000 0.14390  0.87960  0.86910  Biso   1.000  H
  C78      1.0000 0.16282  0.94416  0.77667  Biso   1.000  C
  H51      1.0000 0.21090  0.97100  0.79560  Biso   1.000  H
  C79      1.0000 0.13384  0.95927  0.70491  Biso   1.000  C
  H52      1.0000 0.16240  0.99510  0.67480  Biso   1.000  H
  C80      1.0000 0.89108  0.74556  0.88268  Biso   1.000  C
  H53      1.0000 0.83690  0.75120  0.88010  Biso   1.000  H
  C81      1.0000 0.92810  0.80185  0.83811  Biso   1.000  C
  H54      1.0000 0.89960  0.84450  0.80560  Biso   1.000  H
  C82      1.0000 0.00782  0.79577  0.84112  Biso   1.000  C
  C83      1.0000 0.04558  0.73182  0.89032  Biso   1.000  C
  H55      1.0000 0.09990  0.72620  0.89520  Biso   1.000  H
  C84      1.0000 0.00395  0.67681  0.93185  Biso   1.000  C
  H56      1.0000 0.03070  0.63210  0.96380  Biso   1.000  H
  N8       1.0000 0.19123  0.30626  0.94635  Biso   1.000  N
  O15      1.0000 0.33678  0.02969  0.57088  Biso   1.000  O
  O16      1.0000 0.22508  0.08999  0.59348  Biso   1.000  O
  C85      1.0000 0.29300  0.06211  0.61220  Biso   1.000  C
  C86      1.0000 0.32384  0.06943  0.69165  Biso   1.000  C
  C87      1.0000 0.28390  0.12170  0.73757  Biso   1.000  C
  H57      1.0000 0.23680  0.15120  0.71910  Biso   1.000  H
  C88      1.0000 0.31211  0.13130  0.81039  Biso   1.000  C
  C89      1.0000 0.38121  0.08606  0.83667  Biso   1.000  C
  H58      1.0000 0.40130  0.09190  0.88600  Biso   1.000  H
  C90      1.0000 0.42051  0.03296  0.79146  Biso   1.000  C
  H59      1.0000 0.46700  0.00200  0.81010  Biso   1.000  H
  C91      1.0000 0.39228  0.02465  0.71883  Biso   1.000  C
  H60      1.0000 0.41960  0.98850  0.68790  Biso   1.000  H
  C92      1.0000 0.15343  0.24978  0.89536  Biso   1.000  C
  H61      1.0000 0.09890  0.25010  0.88960  Biso   1.000  H
  C93      1.0000 0.18935  0.19151  0.85107  Biso   1.000  C
  H62      1.0000 0.15980  0.15370  0.81580  Biso   1.000  H
  C94      1.0000 0.26989  0.18851  0.85853  Biso   1.000  C
  C95      1.0000 0.30805  0.24438  0.91292  Biso   1.000  C
  H63      1.0000 0.36250  0.24280  0.92180  Biso   1.000  H
  C96      1.0000 0.26823  0.30186  0.95403  Biso   1.000  C
  H64      1.0000 0.29660  0.34040  0.98970  Biso   1.000  H
  Mn5      1.0000 0.38458  0.57083  0.00538  Biso   1.000  Mn
  Mn6      1.0000 0.13245  0.42332  0.00518  Biso   1.000  Mn
  N9       1.0000 0.32434  0.68674  0.06803  Biso   1.000  N
  O17      1.0000 0.18087  0.97325  0.44221  Biso   1.000  O
  O18      1.0000 0.28924  0.90246  0.42076  Biso   1.000  O
  C97      1.0000 0.22216  0.93235  0.40228  Biso   1.000  C
  C98      1.0000 0.18821  0.91547  0.32473  Biso   1.000  C
  C99      1.0000 0.22875  0.86480  0.27884  Biso   1.000  C
  H65      1.0000 0.27850  0.84160  0.29620  Biso   1.000  H
  C100     1.0000 0.19770  0.84726  0.20764  Biso   1.000  C
  C101     1.0000 0.12388  0.88091  0.18345  Biso   1.000  C
  H66      1.0000 0.10120  0.86810  0.13560  Biso   1.000  H
  C102     1.0000 0.08354  0.93267  0.22859  Biso   1.000  C
  H67      1.0000 0.03390  0.95630  0.21130  Biso   1.000  H
  C103     1.0000 0.11557  0.95018  0.29920  Biso   1.000  C
  H68      1.0000 0.08780  0.98590  0.33000  Biso   1.000  H
  C104     1.0000 0.35850  0.75329  0.11276  Biso   1.000  C
  H69      1.0000 0.41190  0.76380  0.11330  Biso   1.000  H
  C105     1.0000 0.32002  0.80724  0.15802  Biso   1.000  C
  H70      1.0000 0.34700  0.85340  0.18850  Biso   1.000  H
  C106     1.0000 0.24174  0.79367  0.15887  Biso   1.000  C
  C107     1.0000 0.20590  0.72655  0.11127  Biso   1.000  C
  H71      1.0000 0.15220  0.71620  0.10860  Biso   1.000  H
  C108     1.0000 0.24831  0.67523  0.06814  Biso   1.000  C
  H72      1.0000 0.22250  0.62920  0.03670  Biso   1.000  H
  N10      1.0000 0.45411  0.83805  0.43516  Biso   1.000  N
  O19      1.0000 0.58788  0.54595  0.06065  Biso   1.000  O
  O20      1.0000 0.47628  0.59630  0.09164  Biso   1.000  O
  C109     1.0000 0.54725  0.57962  0.10424  Biso   1.000  C
  C110     1.0000 0.58624  0.60484  0.17901  Biso   1.000  C
  C111     1.0000 0.54668  0.65457  0.22644  Biso   1.000  C
  H73      1.0000 0.49490  0.67250  0.21170  Biso   1.000  H
  C112     1.0000 0.58145  0.67881  0.29535  Biso   1.000  C
  C113     1.0000 0.65738  0.65024  0.31677  Biso   1.000  C
  H74      1.0000 0.68180  0.66490  0.36370  Biso   1.000  H
  C114     1.0000 0.69709  0.60052  0.26964  Biso   1.000  C
  H75      1.0000 0.74850  0.58120  0.28460  Biso   1.000  H
  C115     1.0000 0.66209  0.57882  0.20067  Biso   1.000  C
  H76      1.0000 0.69010  0.54620  0.16830  Biso   1.000  H
  C116     1.0000 0.44314  0.84999  0.36337  Biso   1.000  C
  H77      1.0000 0.40560  0.89450  0.34350  Biso   1.000  H
  C117     1.0000 0.48351  0.80094  0.31720  Biso   1.000  C
  H78      1.0000 0.47400  0.81290  0.26700  Biso   1.000  H
  C118     1.0000 0.53857  0.73350  0.34408  Biso   1.000  C
  C119     1.0000 0.55091  0.72242  0.41823  Biso   1.000  C
  H79      1.0000 0.58830  0.67870  0.43970  Biso   1.000  H
  C120     1.0000 0.50823  0.77565  0.46065  Biso   1.000  C
  H80      1.0000 0.51810  0.76720  0.51120  Biso   1.000  H
  N11      1.0000 0.92742  0.81686  0.42950  Biso   1.000  N
  O21      1.0000 0.07675  0.53326  0.05861  Biso   1.000  O
  O22      1.0000 0.96402  0.59341  0.07975  Biso   1.000  O
  C121     1.0000 0.03217  0.56676  0.09905  Biso   1.000  C
  C122     1.0000 0.06260  0.57856  0.17746  Biso   1.000  C
  C123     1.0000 0.02133  0.63041  0.22243  Biso   1.000  C
  H81      1.0000 0.97230  0.65500  0.20410  Biso   1.000  H
  C124     1.0000 0.05095  0.64671  0.29390  Biso   1.000  C
  C125     1.0000 0.12275  0.60913  0.32057  Biso   1.000  C
  H82      1.0000 0.14390  0.62040  0.36910  Biso   1.000  H
  C126     1.0000 0.16282  0.55584  0.27667  Biso   1.000  C
  H83      1.0000 0.21090  0.52900  0.29560  Biso   1.000  H
  C127     1.0000 0.13384  0.54073  0.20491  Biso   1.000  C
  H84      1.0000 0.16240  0.50490  0.17480  Biso   1.000  H
  C128     1.0000 0.89108  0.75444  0.38268  Biso   1.000  C
  H85      1.0000 0.83690  0.74880  0.38010  Biso   1.000  H
  C129     1.0000 0.92810  0.69815  0.33811  Biso   1.000  C
  H86      1.0000 0.89960  0.65550  0.30560  Biso   1.000  H
  C130     1.0000 0.00782  0.70423  0.34112  Biso   1.000  C
  C131     1.0000 0.04558  0.76818  0.39032  Biso   1.000  C
  H87      1.0000 0.09990  0.77380  0.39520  Biso   1.000  H
  C132     1.0000 0.00395  0.82319  0.43185  Biso   1.000  C
  H88      1.0000 0.03070  0.86790  0.46380  Biso   1.000  H
  N12      1.0000 0.19123  0.19374  0.44635  Biso   1.000  N
  O23      1.0000 0.33678  0.47031  0.07088  Biso   1.000  O
  O24      1.0000 0.22508  0.41001  0.09348  Biso   1.000  O
  C133     1.0000 0.29300  0.43789  0.11220  Biso   1.000  C
  C134     1.0000 0.32384  0.43057  0.19165  Biso   1.000  C
  C135     1.0000 0.28390  0.37830  0.23757  Biso   1.000  C
  H89      1.0000 0.23680  0.34880  0.21910  Biso   1.000  H
  C136     1.0000 0.31211  0.36870  0.31039  Biso   1.000  C
  C137     1.0000 0.38121  0.41394  0.33667  Biso   1.000  C
  H90      1.0000 0.40130  0.40810  0.38600  Biso   1.000  H
  C138     1.0000 0.42051  0.46704  0.29146  Biso   1.000  C
  H91      1.0000 0.46700  0.49800  0.31010  Biso   1.000  H
  C139     1.0000 0.39228  0.47535  0.21883  Biso   1.000  C
  H92      1.0000 0.41960  0.51150  0.18790  Biso   1.000  H
  C140     1.0000 0.15343  0.25022  0.39536  Biso   1.000  C
  H93      1.0000 0.09890  0.24990  0.38960  Biso   1.000  H
  C141     1.0000 0.18935  0.30849  0.35107  Biso   1.000  C
  H94      1.0000 0.15980  0.34630  0.31580  Biso   1.000  H
  C142     1.0000 0.26989  0.31149  0.35853  Biso   1.000  C
  C143     1.0000 0.30805  0.25562  0.41292  Biso   1.000  C
  H95      1.0000 0.36250  0.25720  0.42180  Biso   1.000  H
  C144     1.0000 0.26823  0.19814  0.45403  Biso   1.000  C
  H96      1.0000 0.29660  0.15960  0.48970  Biso   1.000  H
  Mn7      1.0000 0.61542  0.07083  0.49462  Biso   1.000  Mn
  Mn8      1.0000 0.86755  0.92332  0.49482  Biso   1.000  Mn
  N13      1.0000 0.67566  0.18674  0.43197  Biso   1.000  N
  O25      1.0000 0.81913  0.47325  0.05779  Biso   1.000  O
  O26      1.0000 0.71076  0.40246  0.07924  Biso   1.000  O
  C145     1.0000 0.77784  0.43235  0.09772  Biso   1.000  C
  C146     1.0000 0.81179  0.41547  0.17527  Biso   1.000  C
  C147     1.0000 0.77125  0.36480  0.22116  Biso   1.000  C
  H97      1.0000 0.72150  0.34160  0.20380  Biso   1.000  H
  C148     1.0000 0.80230  0.34726  0.29236  Biso   1.000  C
  C149     1.0000 0.87612  0.38091  0.31655  Biso   1.000  C
  H98      1.0000 0.89880  0.36810  0.36440  Biso   1.000  H
  C150     1.0000 0.91646  0.43267  0.27141  Biso   1.000  C
  H99      1.0000 0.96610  0.45630  0.28870  Biso   1.000  H
  C151     1.0000 0.88443  0.45018  0.20080  Biso   1.000  C
  H100     1.0000 0.91220  0.48590  0.17000  Biso   1.000  H
  C152     1.0000 0.64150  0.25329  0.38724  Biso   1.000  C
  H101     1.0000 0.58810  0.26380  0.38670  Biso   1.000  H
  C153     1.0000 0.67998  0.30724  0.34198  Biso   1.000  C
  H102     1.0000 0.65300  0.35340  0.31150  Biso   1.000  H
  C154     1.0000 0.75826  0.29367  0.34113  Biso   1.000  C
  C155     1.0000 0.79410  0.22655  0.38873  Biso   1.000  C
  H103     1.0000 0.84780  0.21620  0.39140  Biso   1.000  H
  C156     1.0000 0.75169  0.17523  0.43186  Biso   1.000  C
  H104     1.0000 0.77750  0.12920  0.46330  Biso   1.000  H
  N14      1.0000 0.54589  0.33805  0.06484  Biso   1.000  N
  O27      1.0000 0.41212  0.04595  0.43935  Biso   1.000  O
  O28      1.0000 0.52372  0.09630  0.40836  Biso   1.000  O
  C157     1.0000 0.45275  0.07962  0.39576  Biso   1.000  C
  C158     1.0000 0.41376  0.10484  0.32099  Biso   1.000  C
  C159     1.0000 0.45332  0.15457  0.27356  Biso   1.000  C
  H105     1.0000 0.50510  0.17250  0.28830  Biso   1.000  H
  C160     1.0000 0.41855  0.17881  0.20465  Biso   1.000  C
  C161     1.0000 0.34262  0.15024  0.18323  Biso   1.000  C
  H106     1.0000 0.31820  0.16490  0.13630  Biso   1.000  H
  C162     1.0000 0.30291  0.10052  0.23036  Biso   1.000  C
  H107     1.0000 0.25150  0.08120  0.21540  Biso   1.000  H
  C163     1.0000 0.33791  0.07882  0.29933  Biso   1.000  C
  H108     1.0000 0.30990  0.04620  0.33170  Biso   1.000  H
  C164     1.0000 0.55686  0.34999  0.13663  Biso   1.000  C
  H109     1.0000 0.59440  0.39450  0.15650  Biso   1.000  H
  C165     1.0000 0.51649  0.30094  0.18280  Biso   1.000  C
  H110     1.0000 0.52600  0.31290  0.23300  Biso   1.000  H
  C166     1.0000 0.46143  0.23350  0.15592  Biso   1.000  C
  C167     1.0000 0.44909  0.22242  0.08177  Biso   1.000  C
  H111     1.0000 0.41170  0.17870  0.06030  Biso   1.000  H
  C168     1.0000 0.49177  0.27565  0.03935  Biso   1.000  C
  H112     1.0000 0.48190  0.26720  0.98880  Biso   1.000  H
  N15      1.0000 0.07258  0.31686  0.07050  Biso   1.000  N
  O29      1.0000 0.92325  0.03326  0.44139  Biso   1.000  O
  O30      1.0000 0.03598  0.09341  0.42025  Biso   1.000  O
  C169     1.0000 0.96783  0.06676  0.40095  Biso   1.000  C
  C170     1.0000 0.93740  0.07856  0.32254  Biso   1.000  C
  C171     1.0000 0.97867  0.13041  0.27757  Biso   1.000  C
  H113     1.0000 0.02770  0.15500  0.29590  Biso   1.000  H
  C172     1.0000 0.94905  0.14671  0.20610  Biso   1.000  C
  C173     1.0000 0.87725  0.10913  0.17943  Biso   1.000  C
  H114     1.0000 0.85610  0.12040  0.13090  Biso   1.000  H
  C174     1.0000 0.83718  0.05584  0.22333  Biso   1.000  C
  H115     1.0000 0.78910  0.02900  0.20440  Biso   1.000  H
  C175     1.0000 0.86616  0.04073  0.29509  Biso   1.000  C
  H116     1.0000 0.83760  0.00490  0.32520  Biso   1.000  H
  C176     1.0000 0.10892  0.25444  0.11732  Biso   1.000  C
  H117     1.0000 0.16310  0.24880  0.11990  Biso   1.000  H
  C177     1.0000 0.07190  0.19815  0.16189  Biso   1.000  C
  H118     1.0000 0.10040  0.15550  0.19440  Biso   1.000  H
  C178     1.0000 0.99218  0.20423  0.15888  Biso   1.000  C
  C179     1.0000 0.95442  0.26818  0.10968  Biso   1.000  C
  H119     1.0000 0.90010  0.27380  0.10480  Biso   1.000  H
  C180     1.0000 0.99605  0.32319  0.06815  Biso   1.000  C
  H120     1.0000 0.96930  0.36790  0.03620  Biso   1.000  H
  N16      1.0000 0.80877  0.69374  0.05365  Biso   1.000  N
  O31      1.0000 0.66322  0.97031  0.42912  Biso   1.000  O
  O32      1.0000 0.77492  0.91001  0.40652  Biso   1.000  O
  C181     1.0000 0.70700  0.93789  0.38780  Biso   1.000  C
  C182     1.0000 0.67616  0.93057  0.30835  Biso   1.000  C
  C183     1.0000 0.71610  0.87830  0.26243  Biso   1.000  C
  H121     1.0000 0.76320  0.84880  0.28090  Biso   1.000  H
  C184     1.0000 0.68789  0.86870  0.18961  Biso   1.000  C
  C185     1.0000 0.61879  0.91394  0.16333  Biso   1.000  C
  H122     1.0000 0.59870  0.90810  0.11400  Biso   1.000  H
  C186     1.0000 0.57949  0.96704  0.20854  Biso   1.000  C
  H123     1.0000 0.53300  0.99800  0.18990  Biso   1.000  H
  C187     1.0000 0.60772  0.97535  0.28117  Biso   1.000  C
  H124     1.0000 0.58040  0.01150  0.31210  Biso   1.000  H
  C188     1.0000 0.84657  0.75022  0.10464  Biso   1.000  C
  H125     1.0000 0.90110  0.74990  0.11040  Biso   1.000  H
  C189     1.0000 0.81065  0.80849  0.14893  Biso   1.000  C
  H126     1.0000 0.84020  0.84630  0.18420  Biso   1.000  H
  C190     1.0000 0.73011  0.81149  0.14147  Biso   1.000  C
  C191     1.0000 0.69195  0.75562  0.08708  Biso   1.000  C
  H127     1.0000 0.63750  0.75720  0.07820  Biso   1.000  H
  C192     1.0000 0.73177  0.69814  0.04597  Biso   1.000  C
  H128     1.0000 0.70340  0.65960  0.01030  Biso   1.000  H
