data_image0
_cell_length_a       9.949
_cell_length_b       16.15
_cell_length_c       24.55
_cell_angle_alpha    90
_cell_angle_beta     95.83
_cell_angle_gamma    90

_symmetry_space_group_name_H-M    P 1
_symmetry_int_tables_number       1

loop_
  _symmetry_equiv_pos_as_xyz
  'x, y, z'

loop_
  _atom_site_label
  _atom_site_occupancy
  _atom_site_fract_x
  _atom_site_fract_y
  _atom_site_fract_z
  _atom_site_thermal_displace_type
  _atom_site_B_iso_or_equiv
  _atom_site_type_symbol
  Cd1      1.0000 0.16054  0.58657  0.53658  Biso   1.000  Cd
  Cd2      1.0000 0.24860  0.85548  0.98422  Biso   1.000  Cd
  Cd3      1.0000 0.33946  0.08657  0.96342  Biso   1.000  Cd
  Cd4      1.0000 0.25140  0.35548  0.51578  Biso   1.000  Cd
  Cd5      1.0000 0.83946  0.41343  0.46342  Biso   1.000  Cd
  Cd6      1.0000 0.75140  0.14452  0.01578  Biso   1.000  Cd
  Cd7      1.0000 0.66054  0.91343  0.03658  Biso   1.000  Cd
  Cd8      1.0000 0.74860  0.64452  0.48422  Biso   1.000  Cd
  Cd9      1.0000 0.00000  0.00000  0.00000  Biso   1.000  Cd
  Cd10     1.0000 0.50000  0.50000  0.50000  Biso   1.000  Cd
  H1       1.0000 0.27330  0.62870  0.39380  Biso   1.000  H
  H2       1.0000 0.26240  0.77920  0.11910  Biso   1.000  H
  H3       1.0000 0.86250  0.53890  0.34330  Biso   1.000  H
  H4       1.0000 0.71320  0.53970  0.25590  Biso   1.000  H
  H5       1.0000 0.67870  0.57710  0.16570  Biso   1.000  H
  H6       1.0000 0.85310  0.64100  0.12430  Biso   1.000  H
  H7       1.0000 0.05080  0.67700  0.17230  Biso   1.000  H
  H8       1.0000 0.32470  0.70480  0.28230  Biso   1.000  H
  H9       1.0000 0.27470  0.67370  0.22340  Biso   1.000  H
  H10      1.0000 0.10460  0.00390  0.19030  Biso   1.000  H
  H11      1.0000 0.07960  0.04760  0.28640  Biso   1.000  H
  H12      1.0000 0.10320  0.01630  0.37770  Biso   1.000  H
  H13      1.0000 0.17450  0.88330  0.40770  Biso   1.000  H
  H14      1.0000 0.22510  0.78700  0.34850  Biso   1.000  H
  H15      1.0000 0.98530  0.62910  0.63750  Biso   1.000  H
  H16      1.0000 0.99530  0.67300  0.72650  Biso   1.000  H
  H17      1.0000 0.40090  0.67700  0.72750  Biso   1.000  H
  H18      1.0000 0.37660  0.63430  0.63820  Biso   1.000  H
  H19      1.0000 0.03310  0.77710  0.78890  Biso   1.000  H
  H20      1.0000 0.05680  0.83690  0.87410  Biso   1.000  H
  H21      1.0000 0.40900  0.73580  0.90600  Biso   1.000  H
  H22      1.0000 0.39800  0.67520  0.82160  Biso   1.000  H
  H23      1.0000 0.89040  0.68100  0.98790  Biso   1.000  H
  H24      1.0000 0.03040  0.71030  0.97090  Biso   1.000  H
  H25      1.0000 0.01400  0.69070  0.03240  Biso   1.000  H
  H26      1.0000 0.06370  0.85360  0.53470  Biso   1.000  H
  H27      1.0000 0.14210  0.77550  0.55890  Biso   1.000  H
  H28      1.0000 0.03730  0.81980  0.59250  Biso   1.000  H
  H29      1.0000 0.85990  0.02360  0.07130  Biso   1.000  H
  H30      1.0000 0.22670  0.12870  0.10620  Biso   1.000  H
  H31      1.0000 0.23760  0.27920  0.38090  Biso   1.000  H
  H32      1.0000 0.63750  0.03890  0.15670  Biso   1.000  H
  H33      1.0000 0.78680  0.03970  0.24410  Biso   1.000  H
  H34      1.0000 0.82130  0.07710  0.33430  Biso   1.000  H
  H35      1.0000 0.64690  0.14100  0.37570  Biso   1.000  H
  H36      1.0000 0.44920  0.17700  0.32770  Biso   1.000  H
  H37      1.0000 0.17530  0.20480  0.21770  Biso   1.000  H
  H38      1.0000 0.22530  0.17370  0.27660  Biso   1.000  H
  H39      1.0000 0.39540  0.50390  0.30970  Biso   1.000  H
  H40      1.0000 0.42040  0.54760  0.21360  Biso   1.000  H
  H41      1.0000 0.39680  0.51630  0.12230  Biso   1.000  H
  H42      1.0000 0.32550  0.38330  0.09230  Biso   1.000  H
  H43      1.0000 0.27490  0.28700  0.15150  Biso   1.000  H
  H44      1.0000 0.51470  0.12910  0.86250  Biso   1.000  H
  H45      1.0000 0.50470  0.17300  0.77350  Biso   1.000  H
  H46      1.0000 0.09910  0.17700  0.77250  Biso   1.000  H
  H47      1.0000 0.12340  0.13430  0.86180  Biso   1.000  H
  H48      1.0000 0.46690  0.27710  0.71110  Biso   1.000  H
  H49      1.0000 0.44320  0.33690  0.62590  Biso   1.000  H
  H50      1.0000 0.09100  0.23580  0.59400  Biso   1.000  H
  H51      1.0000 0.10200  0.17520  0.67840  Biso   1.000  H
  H52      1.0000 0.60960  0.18100  0.51210  Biso   1.000  H
  H53      1.0000 0.46960  0.21030  0.52910  Biso   1.000  H
  H54      1.0000 0.48600  0.19070  0.46760  Biso   1.000  H
  H55      1.0000 0.43630  0.35360  0.96530  Biso   1.000  H
  H56      1.0000 0.35790  0.27550  0.94110  Biso   1.000  H
  H57      1.0000 0.46270  0.31980  0.90750  Biso   1.000  H
  H58      1.0000 0.64010  0.52360  0.42870  Biso   1.000  H
  H59      1.0000 0.72670  0.37130  0.60620  Biso   1.000  H
  H60      1.0000 0.73760  0.22080  0.88090  Biso   1.000  H
  H61      1.0000 0.13750  0.46110  0.65670  Biso   1.000  H
  H62      1.0000 0.28680  0.46030  0.74410  Biso   1.000  H
  H63      1.0000 0.32130  0.42290  0.83430  Biso   1.000  H
  H64      1.0000 0.14690  0.35900  0.87570  Biso   1.000  H
  H65      1.0000 0.94920  0.32300  0.82770  Biso   1.000  H
  H66      1.0000 0.67530  0.29520  0.71770  Biso   1.000  H
  H67      1.0000 0.72530  0.32630  0.77660  Biso   1.000  H
  H68      1.0000 0.89540  0.99610  0.80970  Biso   1.000  H
  H69      1.0000 0.92040  0.95240  0.71360  Biso   1.000  H
  H70      1.0000 0.89680  0.98370  0.62230  Biso   1.000  H
  H71      1.0000 0.82550  0.11670  0.59230  Biso   1.000  H
  H72      1.0000 0.77490  0.21300  0.65150  Biso   1.000  H
  H73      1.0000 0.01470  0.37090  0.36250  Biso   1.000  H
  H74      1.0000 0.00470  0.32700  0.27350  Biso   1.000  H
  H75      1.0000 0.59910  0.32300  0.27250  Biso   1.000  H
  H76      1.0000 0.62340  0.36570  0.36180  Biso   1.000  H
  H77      1.0000 0.96690  0.22290  0.21110  Biso   1.000  H
  H78      1.0000 0.94320  0.16310  0.12590  Biso   1.000  H
  H79      1.0000 0.59100  0.26420  0.09400  Biso   1.000  H
  H80      1.0000 0.60200  0.32480  0.17840  Biso   1.000  H
  H81      1.0000 0.10960  0.31900  0.01210  Biso   1.000  H
  H82      1.0000 0.96960  0.28970  0.02910  Biso   1.000  H
  H83      1.0000 0.98600  0.30930  0.96760  Biso   1.000  H
  H84      1.0000 0.93630  0.14640  0.46530  Biso   1.000  H
  H85      1.0000 0.85790  0.22450  0.44110  Biso   1.000  H
  H86      1.0000 0.96270  0.18020  0.40750  Biso   1.000  H
  H87      1.0000 0.14010  0.97640  0.92870  Biso   1.000  H
  H88      1.0000 0.77330  0.87130  0.89380  Biso   1.000  H
  H89      1.0000 0.76240  0.72080  0.61910  Biso   1.000  H
  H90      1.0000 0.36250  0.96110  0.84330  Biso   1.000  H
  H91      1.0000 0.21320  0.96030  0.75590  Biso   1.000  H
  H92      1.0000 0.17870  0.92290  0.66570  Biso   1.000  H
  H93      1.0000 0.35310  0.85900  0.62430  Biso   1.000  H
  H94      1.0000 0.55080  0.82300  0.67230  Biso   1.000  H
  H95      1.0000 0.82470  0.79520  0.78230  Biso   1.000  H
  H96      1.0000 0.77470  0.82630  0.72340  Biso   1.000  H
  H97      1.0000 0.60460  0.49610  0.69030  Biso   1.000  H
  H98      1.0000 0.57960  0.45240  0.78640  Biso   1.000  H
  H99      1.0000 0.60320  0.48370  0.87770  Biso   1.000  H
  H100     1.0000 0.67450  0.61670  0.90770  Biso   1.000  H
  H101     1.0000 0.72510  0.71300  0.84850  Biso   1.000  H
  H102     1.0000 0.48530  0.87090  0.13750  Biso   1.000  H
  H103     1.0000 0.49530  0.82700  0.22650  Biso   1.000  H
  H104     1.0000 0.90090  0.82300  0.22750  Biso   1.000  H
  H105     1.0000 0.87660  0.86570  0.13820  Biso   1.000  H
  H106     1.0000 0.53310  0.72290  0.28890  Biso   1.000  H
  H107     1.0000 0.55680  0.66310  0.37410  Biso   1.000  H
  H108     1.0000 0.90900  0.76420  0.40600  Biso   1.000  H
  H109     1.0000 0.89800  0.82480  0.32160  Biso   1.000  H
  H110     1.0000 0.39040  0.81900  0.48790  Biso   1.000  H
  H111     1.0000 0.53040  0.78970  0.47090  Biso   1.000  H
  H112     1.0000 0.51400  0.80930  0.53240  Biso   1.000  H
  H113     1.0000 0.56370  0.64640  0.03470  Biso   1.000  H
  H114     1.0000 0.64210  0.72450  0.05890  Biso   1.000  H
  H115     1.0000 0.53730  0.68020  0.09250  Biso   1.000  H
  H116     1.0000 0.35990  0.47640  0.57130  Biso   1.000  H
  C1       1.0000 0.06810  0.56161  0.41813  Biso   1.000  C
  C2       1.0000 0.05048  0.58335  0.35806  Biso   1.000  C
  C3       1.0000 0.93032  0.56609  0.32693  Biso   1.000  C
  C4       1.0000 0.90682  0.58809  0.27160  Biso   1.000  C
  C5       1.0000 0.78050  0.56747  0.23960  Biso   1.000  C
  C6       1.0000 0.76060  0.58860  0.18612  Biso   1.000  C
  C7       1.0000 0.86620  0.62868  0.16143  Biso   1.000  C
  C8       1.0000 0.98540  0.64966  0.18996  Biso   1.000  C
  C9       1.0000 0.01150  0.62998  0.24722  Biso   1.000  C
  C10      1.0000 0.13505  0.65218  0.27834  Biso   1.000  C
  C11      1.0000 0.15435  0.62593  0.33284  Biso   1.000  C
  C12      1.0000 0.24715  0.70291  0.25493  Biso   1.000  C
  C13      1.0000 0.21073  0.79029  0.23796  Biso   1.000  C
  C14      1.0000 0.21060  0.81406  0.18401  Biso   1.000  C
  C15      1.0000 0.16867  0.89366  0.16534  Biso   1.000  C
  C16      1.0000 0.13392  0.95186  0.20258  Biso   1.000  C
  C17      1.0000 0.14221  0.93349  0.25908  Biso   1.000  C
  C18      1.0000 0.10940  0.99539  0.29825  Biso   1.000  C
  C19      1.0000 0.12260  0.97654  0.35228  Biso   1.000  C
  C20      1.0000 0.16630  0.89562  0.37046  Biso   1.000  C
  C21      1.0000 0.19519  0.83839  0.33506  Biso   1.000  C
  C22      1.0000 0.18275  0.85135  0.27734  Biso   1.000  C
  C23      1.0000 0.15757  0.91750  0.10548  Biso   1.000  C
  C24      1.0000 0.06983  0.63914  0.65614  Biso   1.000  C
  C25      1.0000 0.07437  0.66609  0.70979  Biso   1.000  C
  C26      1.0000 0.20055  0.68284  0.73839  Biso   1.000  C
  C27      1.0000 0.31476  0.66844  0.70993  Biso   1.000  C
  C28      1.0000 0.29967  0.64181  0.65619  Biso   1.000  C
  C29      1.0000 0.21202  0.71961  0.79447  Biso   1.000  C
  C30      1.0000 0.11180  0.76800  0.81202  Biso   1.000  C
  C31      1.0000 0.12590  0.80350  0.86363  Biso   1.000  C
  C32      1.0000 0.33205  0.74433  0.88181  Biso   1.000  C
  C33      1.0000 0.32667  0.70750  0.83118  Biso   1.000  C
  C34      1.0000 0.93160  0.80046  0.00757  Biso   1.000  C
  C35      1.0000 0.97000  0.71287  0.99890  Biso   1.000  C
  C36      1.0000 0.94713  0.74954  0.53019  Biso   1.000  C
  C37      1.0000 0.05760  0.80462  0.55645  Biso   1.000  C
  C38      1.0000 0.43190  0.06161  0.08187  Biso   1.000  C
  C39      1.0000 0.44952  0.08335  0.14194  Biso   1.000  C
  C40      1.0000 0.56968  0.06609  0.17307  Biso   1.000  C
  C41      1.0000 0.59318  0.08809  0.22840  Biso   1.000  C
  C42      1.0000 0.71950  0.06747  0.26040  Biso   1.000  C
  C43      1.0000 0.73940  0.08860  0.31388  Biso   1.000  C
  C44      1.0000 0.63380  0.12868  0.33857  Biso   1.000  C
  C45      1.0000 0.51460  0.14966  0.31004  Biso   1.000  C
  C46      1.0000 0.48850  0.12998  0.25278  Biso   1.000  C
  C47      1.0000 0.36495  0.15218  0.22166  Biso   1.000  C
  C48      1.0000 0.34565  0.12593  0.16716  Biso   1.000  C
  C49      1.0000 0.25285  0.20291  0.24507  Biso   1.000  C
  C50      1.0000 0.28927  0.29029  0.26204  Biso   1.000  C
  C51      1.0000 0.28940  0.31406  0.31599  Biso   1.000  C
  C52      1.0000 0.33133  0.39366  0.33466  Biso   1.000  C
  C53      1.0000 0.36608  0.45186  0.29742  Biso   1.000  C
  C54      1.0000 0.35779  0.43349  0.24092  Biso   1.000  C
  C55      1.0000 0.39060  0.49539  0.20175  Biso   1.000  C
  C56      1.0000 0.37740  0.47654  0.14772  Biso   1.000  C
  C57      1.0000 0.33370  0.39562  0.12954  Biso   1.000  C
  C58      1.0000 0.30481  0.33839  0.16494  Biso   1.000  C
  C59      1.0000 0.31725  0.35135  0.22266  Biso   1.000  C
  C60      1.0000 0.34243  0.41750  0.39452  Biso   1.000  C
  C61      1.0000 0.43017  0.13914  0.84386  Biso   1.000  C
  C62      1.0000 0.42563  0.16609  0.79021  Biso   1.000  C
  C63      1.0000 0.29945  0.18284  0.76161  Biso   1.000  C
  C64      1.0000 0.18524  0.16844  0.79007  Biso   1.000  C
  C65      1.0000 0.20033  0.14181  0.84381  Biso   1.000  C
  C66      1.0000 0.28798  0.21961  0.70553  Biso   1.000  C
  C67      1.0000 0.38820  0.26800  0.68798  Biso   1.000  C
  C68      1.0000 0.37410  0.30350  0.63637  Biso   1.000  C
  C69      1.0000 0.16795  0.24433  0.61819  Biso   1.000  C
  C70      1.0000 0.17333  0.20750  0.66882  Biso   1.000  C
  C71      1.0000 0.56840  0.30046  0.49243  Biso   1.000  C
  C72      1.0000 0.53000  0.21287  0.50110  Biso   1.000  C
  C73      1.0000 0.55287  0.24954  0.96981  Biso   1.000  C
  C74      1.0000 0.44240  0.30462  0.94355  Biso   1.000  C
  C75      1.0000 0.93190  0.43839  0.58187  Biso   1.000  C
  C76      1.0000 0.94952  0.41665  0.64194  Biso   1.000  C
  C77      1.0000 0.06968  0.43391  0.67307  Biso   1.000  C
  C78      1.0000 0.09318  0.41191  0.72840  Biso   1.000  C
  C79      1.0000 0.21950  0.43253  0.76040  Biso   1.000  C
  C80      1.0000 0.23940  0.41140  0.81388  Biso   1.000  C
  C81      1.0000 0.13380  0.37132  0.83857  Biso   1.000  C
  C82      1.0000 0.01460  0.35034  0.81004  Biso   1.000  C
  C83      1.0000 0.98850  0.37002  0.75278  Biso   1.000  C
  C84      1.0000 0.86495  0.34782  0.72166  Biso   1.000  C
  C85      1.0000 0.84565  0.37407  0.66716  Biso   1.000  C
  C86      1.0000 0.75285  0.29709  0.74507  Biso   1.000  C
  C87      1.0000 0.78927  0.20971  0.76204  Biso   1.000  C
  C88      1.0000 0.78940  0.18594  0.81599  Biso   1.000  C
  C89      1.0000 0.83133  0.10634  0.83466  Biso   1.000  C
  C90      1.0000 0.86608  0.04814  0.79742  Biso   1.000  C
  C91      1.0000 0.85779  0.06651  0.74092  Biso   1.000  C
  C92      1.0000 0.89060  0.00461  0.70175  Biso   1.000  C
  C93      1.0000 0.87740  0.02346  0.64772  Biso   1.000  C
  C94      1.0000 0.83370  0.10438  0.62954  Biso   1.000  C
  C95      1.0000 0.80481  0.16161  0.66494  Biso   1.000  C
  C96      1.0000 0.81725  0.14865  0.72266  Biso   1.000  C
  C97      1.0000 0.84243  0.08250  0.89452  Biso   1.000  C
  C98      1.0000 0.93017  0.36086  0.34386  Biso   1.000  C
  C99      1.0000 0.92563  0.33391  0.29021  Biso   1.000  C
  C100     1.0000 0.79945  0.31716  0.26161  Biso   1.000  C
  C101     1.0000 0.68524  0.33156  0.29007  Biso   1.000  C
  C102     1.0000 0.70033  0.35819  0.34381  Biso   1.000  C
  C103     1.0000 0.78798  0.28039  0.20553  Biso   1.000  C
  C104     1.0000 0.88820  0.23200  0.18798  Biso   1.000  C
  C105     1.0000 0.87410  0.19650  0.13637  Biso   1.000  C
  C106     1.0000 0.66795  0.25567  0.11819  Biso   1.000  C
  C107     1.0000 0.67333  0.29250  0.16882  Biso   1.000  C
  C108     1.0000 0.06840  0.19954  0.99243  Biso   1.000  C
  C109     1.0000 0.03000  0.28713  0.00110  Biso   1.000  C
  C110     1.0000 0.05287  0.25046  0.46981  Biso   1.000  C
  C111     1.0000 0.94240  0.19538  0.44355  Biso   1.000  C
  C112     1.0000 0.56810  0.93839  0.91813  Biso   1.000  C
  C113     1.0000 0.55048  0.91665  0.85806  Biso   1.000  C
  C114     1.0000 0.43032  0.93391  0.82693  Biso   1.000  C
  C115     1.0000 0.40682  0.91191  0.77160  Biso   1.000  C
  C116     1.0000 0.28050  0.93253  0.73960  Biso   1.000  C
  C117     1.0000 0.26060  0.91140  0.68612  Biso   1.000  C
  C118     1.0000 0.36620  0.87132  0.66143  Biso   1.000  C
  C119     1.0000 0.48540  0.85034  0.68996  Biso   1.000  C
  C120     1.0000 0.51150  0.87002  0.74722  Biso   1.000  C
  C121     1.0000 0.63505  0.84782  0.77834  Biso   1.000  C
  C122     1.0000 0.65435  0.87407  0.83284  Biso   1.000  C
  C123     1.0000 0.74715  0.79709  0.75493  Biso   1.000  C
  C124     1.0000 0.71073  0.70971  0.73796  Biso   1.000  C
  C125     1.0000 0.71060  0.68594  0.68401  Biso   1.000  C
  C126     1.0000 0.66867  0.60634  0.66534  Biso   1.000  C
  C127     1.0000 0.63392  0.54814  0.70258  Biso   1.000  C
  C128     1.0000 0.64221  0.56651  0.75908  Biso   1.000  C
  C129     1.0000 0.60940  0.50461  0.79825  Biso   1.000  C
  C130     1.0000 0.62260  0.52346  0.85228  Biso   1.000  C
  C131     1.0000 0.66630  0.60438  0.87046  Biso   1.000  C
  C132     1.0000 0.69519  0.66161  0.83506  Biso   1.000  C
  C133     1.0000 0.68275  0.64865  0.77734  Biso   1.000  C
  C134     1.0000 0.65757  0.58250  0.60548  Biso   1.000  C
  C135     1.0000 0.56983  0.86086  0.15614  Biso   1.000  C
  C136     1.0000 0.57437  0.83391  0.20979  Biso   1.000  C
  C137     1.0000 0.70055  0.81716  0.23839  Biso   1.000  C
  C138     1.0000 0.81476  0.83156  0.20993  Biso   1.000  C
  C139     1.0000 0.79967  0.85819  0.15619  Biso   1.000  C
  C140     1.0000 0.71202  0.78039  0.29447  Biso   1.000  C
  C141     1.0000 0.61180  0.73200  0.31202  Biso   1.000  C
  C142     1.0000 0.62590  0.69650  0.36363  Biso   1.000  C
  C143     1.0000 0.83205  0.75567  0.38181  Biso   1.000  C
  C144     1.0000 0.82667  0.79250  0.33118  Biso   1.000  C
  C145     1.0000 0.43160  0.69954  0.50757  Biso   1.000  C
  C146     1.0000 0.47000  0.78713  0.49890  Biso   1.000  C
  C147     1.0000 0.44713  0.75046  0.03019  Biso   1.000  C
  C148     1.0000 0.55760  0.69538  0.05645  Biso   1.000  C
  N1       1.0000 0.17874  0.62645  0.62898  Biso   1.000  N
  N2       1.0000 0.23398  0.79149  0.89850  Biso   1.000  N
  N3       1.0000 0.32126  0.12645  0.87102  Biso   1.000  N
  N4       1.0000 0.26602  0.29149  0.60150  Biso   1.000  N
  N5       1.0000 0.82126  0.37355  0.37102  Biso   1.000  N
  N6       1.0000 0.76602  0.20851  0.10150  Biso   1.000  N
  N7       1.0000 0.67874  0.87355  0.12898  Biso   1.000  N
  N8       1.0000 0.73398  0.70851  0.39850  Biso   1.000  N
  O1       1.0000 0.17462  0.58724  0.44589  Biso   1.000  O
  O2       1.0000 0.97594  0.52346  0.43816  Biso   1.000  O
  O3       1.0000 0.27612  0.64200  0.36168  Biso   1.000  O
  O4       1.0000 0.08392  0.97705  0.08909  Biso   1.000  O
  O5       1.0000 0.22859  0.87280  0.07565  Biso   1.000  O
  O6       1.0000 0.24798  0.75631  0.14772  Biso   1.000  O
  O7       1.0000 0.83773  0.81857  0.03517  Biso   1.000  O
  O8       1.0000 0.00247  0.85416  0.98453  Biso   1.000  O
  O9       1.0000 0.97583  0.67437  0.51821  Biso   1.000  O
  O10      1.0000 0.83015  0.77694  0.51940  Biso   1.000  O
  O11      1.0000 0.81093  0.01712  0.04331  Biso   1.000  O
  O12      1.0000 0.32538  0.08724  0.05411  Biso   1.000  O
  O13      1.0000 0.52406  0.02346  0.06184  Biso   1.000  O
  O14      1.0000 0.22388  0.14200  0.13832  Biso   1.000  O
  O15      1.0000 0.41608  0.47705  0.41091  Biso   1.000  O
  O16      1.0000 0.27141  0.37280  0.42435  Biso   1.000  O
  O17      1.0000 0.25202  0.25631  0.35228  Biso   1.000  O
  O18      1.0000 0.66227  0.31857  0.46483  Biso   1.000  O
  O19      1.0000 0.49753  0.35416  0.51547  Biso   1.000  O
  O20      1.0000 0.52417  0.17437  0.98179  Biso   1.000  O
  O21      1.0000 0.66985  0.27694  0.98060  Biso   1.000  O
  O22      1.0000 0.68907  0.51712  0.45669  Biso   1.000  O
  O23      1.0000 0.82538  0.41276  0.55411  Biso   1.000  O
  O24      1.0000 0.02406  0.47654  0.56184  Biso   1.000  O
  O25      1.0000 0.72388  0.35800  0.63832  Biso   1.000  O
  O26      1.0000 0.91608  0.02295  0.91091  Biso   1.000  O
  O27      1.0000 0.77141  0.12720  0.92435  Biso   1.000  O
  O28      1.0000 0.75202  0.24369  0.85228  Biso   1.000  O
  O29      1.0000 0.16227  0.18143  0.96483  Biso   1.000  O
  O30      1.0000 0.99753  0.14584  0.01547  Biso   1.000  O
  O31      1.0000 0.02417  0.32563  0.48179  Biso   1.000  O
  O32      1.0000 0.16985  0.22306  0.48060  Biso   1.000  O
  O33      1.0000 0.18907  0.98288  0.95669  Biso   1.000  O
  O34      1.0000 0.67462  0.91276  0.94589  Biso   1.000  O
  O35      1.0000 0.47594  0.97654  0.93816  Biso   1.000  O
  O36      1.0000 0.77612  0.85800  0.86168  Biso   1.000  O
  O37      1.0000 0.58392  0.52295  0.58909  Biso   1.000  O
  O38      1.0000 0.72859  0.62720  0.57565  Biso   1.000  O
  O39      1.0000 0.74798  0.74369  0.64772  Biso   1.000  O
  O40      1.0000 0.33773  0.68143  0.53517  Biso   1.000  O
  O41      1.0000 0.50247  0.64584  0.48453  Biso   1.000  O
  O42      1.0000 0.47583  0.82563  0.01821  Biso   1.000  O
  O43      1.0000 0.33015  0.72306  0.01940  Biso   1.000  O
  O44      1.0000 0.31093  0.48288  0.54331  Biso   1.000  O
