data_image0
_cell_length_a       15.952
_cell_length_b       15.952
_cell_length_c       15.952
_cell_angle_alpha    90
_cell_angle_beta     90
_cell_angle_gamma    90

_symmetry_space_group_name_H-M    "P 1"
_symmetry_int_tables_number       1

loop_
  _symmetry_equiv_pos_as_xyz
  'x, y, z'

loop_
  _atom_site_label
  _atom_site_occupancy
  _atom_site_fract_x
  _atom_site_fract_y
  _atom_site_fract_z
  _atom_site_thermal_displace_type
  _atom_site_B_iso_or_equiv
  _atom_site_type_symbol
  O1       1.0000 0.14000  0.11650  0.25450  Biso   1.000  O
  O2       1.0000 0.13670  0.01480  0.35020  Biso   1.000  O
  O3       1.0000 0.13600  0.00840  0.13190  Biso   1.000  O
  O4       1.0000 0.14020  0.90020  0.21970  Biso   1.000  O
  C1       1.0000 0.13890  0.04010  0.27820  Biso   1.000  C
  C2       1.0000 0.13850  0.97480  0.20460  Biso   1.000  C
  O5       1.0000 0.36000  0.88350  0.75450  Biso   1.000  O
  O6       1.0000 0.36330  0.98520  0.85020  Biso   1.000  O
  O7       1.0000 0.36400  0.99160  0.63190  Biso   1.000  O
  O8       1.0000 0.35980  0.09980  0.71970  Biso   1.000  O
  C3       1.0000 0.36110  0.95990  0.77820  Biso   1.000  C
  C4       1.0000 0.36150  0.02520  0.70460  Biso   1.000  C
  O9       1.0000 0.86000  0.61650  0.24550  Biso   1.000  O
  O10      1.0000 0.86330  0.51480  0.14980  Biso   1.000  O
  O11      1.0000 0.86400  0.50840  0.36810  Biso   1.000  O
  O12      1.0000 0.85980  0.40020  0.28030  Biso   1.000  O
  C5       1.0000 0.86110  0.54010  0.22180  Biso   1.000  C
  C6       1.0000 0.86150  0.47480  0.29540  Biso   1.000  C
  O13      1.0000 0.64000  0.38350  0.74550  Biso   1.000  O
  O14      1.0000 0.63670  0.48520  0.64980  Biso   1.000  O
  O15      1.0000 0.63600  0.49160  0.86810  Biso   1.000  O
  O16      1.0000 0.64020  0.59980  0.78030  Biso   1.000  O
  C7       1.0000 0.63890  0.45990  0.72180  Biso   1.000  C
  C8       1.0000 0.63850  0.52520  0.79540  Biso   1.000  C
  O17      1.0000 0.25450  0.14000  0.11650  Biso   1.000  O
  O18      1.0000 0.35020  0.13670  0.01480  Biso   1.000  O
  O19      1.0000 0.13190  0.13600  0.00840  Biso   1.000  O
  O20      1.0000 0.21970  0.14020  0.90020  Biso   1.000  O
  C9       1.0000 0.27820  0.13890  0.04010  Biso   1.000  C
  C10      1.0000 0.20460  0.13850  0.97480  Biso   1.000  C
  O21      1.0000 0.75450  0.36000  0.88350  Biso   1.000  O
  O22      1.0000 0.85020  0.36330  0.98520  Biso   1.000  O
  O23      1.0000 0.63190  0.36400  0.99160  Biso   1.000  O
  O24      1.0000 0.71970  0.35980  0.09980  Biso   1.000  O
  C11      1.0000 0.77820  0.36110  0.95990  Biso   1.000  C
  C12      1.0000 0.70460  0.36150  0.02520  Biso   1.000  C
  O25      1.0000 0.24550  0.86000  0.61650  Biso   1.000  O
  O26      1.0000 0.14980  0.86330  0.51480  Biso   1.000  O
  O27      1.0000 0.36810  0.86400  0.50840  Biso   1.000  O
  O28      1.0000 0.28030  0.85980  0.40020  Biso   1.000  O
  C13      1.0000 0.22180  0.86110  0.54010  Biso   1.000  C
  C14      1.0000 0.29540  0.86150  0.47480  Biso   1.000  C
  O29      1.0000 0.74550  0.64000  0.38350  Biso   1.000  O
  O30      1.0000 0.64980  0.63670  0.48520  Biso   1.000  O
  O31      1.0000 0.86810  0.63600  0.49160  Biso   1.000  O
  O32      1.0000 0.78030  0.64020  0.59980  Biso   1.000  O
  C15      1.0000 0.72180  0.63890  0.45990  Biso   1.000  C
  C16      1.0000 0.79540  0.63850  0.52520  Biso   1.000  C
  O33      1.0000 0.11650  0.25450  0.14000  Biso   1.000  O
  O34      1.0000 0.01480  0.35020  0.13670  Biso   1.000  O
  O35      1.0000 0.00840  0.13190  0.13600  Biso   1.000  O
  O36      1.0000 0.90020  0.21970  0.14020  Biso   1.000  O
  C17      1.0000 0.04010  0.27820  0.13890  Biso   1.000  C
  C18      1.0000 0.97480  0.20460  0.13850  Biso   1.000  C
  O37      1.0000 0.88350  0.75450  0.36000  Biso   1.000  O
  O38      1.0000 0.98520  0.85020  0.36330  Biso   1.000  O
  O39      1.0000 0.99160  0.63190  0.36400  Biso   1.000  O
  O40      1.0000 0.09980  0.71970  0.35980  Biso   1.000  O
  C19      1.0000 0.95990  0.77820  0.36110  Biso   1.000  C
  C20      1.0000 0.02520  0.70460  0.36150  Biso   1.000  C
  O41      1.0000 0.61650  0.24550  0.86000  Biso   1.000  O
  O42      1.0000 0.51480  0.14980  0.86330  Biso   1.000  O
  O43      1.0000 0.50840  0.36810  0.86400  Biso   1.000  O
  O44      1.0000 0.40020  0.28030  0.85980  Biso   1.000  O
  C21      1.0000 0.54010  0.22180  0.86110  Biso   1.000  C
  C22      1.0000 0.47480  0.29540  0.86150  Biso   1.000  C
  O45      1.0000 0.38350  0.74550  0.64000  Biso   1.000  O
  O46      1.0000 0.48520  0.64980  0.63670  Biso   1.000  O
  O47      1.0000 0.49160  0.86810  0.63600  Biso   1.000  O
  O48      1.0000 0.59980  0.78030  0.64020  Biso   1.000  O
  C23      1.0000 0.45990  0.72180  0.63890  Biso   1.000  C
  C24      1.0000 0.52520  0.79540  0.63850  Biso   1.000  C
  Cr1      1.0000 0.13195  0.13195  0.13195  Biso   1.000  Cr
  Cr2      1.0000 0.36805  0.86805  0.63195  Biso   1.000  Cr
  Cr3      1.0000 0.86805  0.63195  0.36805  Biso   1.000  Cr
  Cr4      1.0000 0.63195  0.36805  0.86805  Biso   1.000  Cr
  Na1      1.0000 0.13370  0.86630  0.36630  Biso   1.000  Na
  Na2      1.0000 0.36630  0.13370  0.86630  Biso   1.000  Na
  Na3      1.0000 0.86630  0.36630  0.13370  Biso   1.000  Na
  Na4      1.0000 0.63370  0.63370  0.63370  Biso   1.000  Na
