data_image0
_cell_length_a       8.254
_cell_length_b       18.896
_cell_length_c       18.006
_cell_angle_alpha    90
_cell_angle_beta     90
_cell_angle_gamma    90

_symmetry_space_group_name_H-M    "P 1"
_symmetry_int_tables_number       1

loop_
  _symmetry_equiv_pos_as_xyz
  'x, y, z'

loop_
  _atom_site_label
  _atom_site_occupancy
  _atom_site_fract_x
  _atom_site_fract_y
  _atom_site_fract_z
  _atom_site_thermal_displace_type
  _atom_site_B_iso_or_equiv
  _atom_site_type_symbol
  Cd1      1.0000 0.51269  0.97273  0.90663  Biso   1.000  Cd
  O1       1.0000 0.37320  0.36390  0.93880  Biso   1.000  O
  O2       1.0000 0.21480  0.44260  0.88230  Biso   1.000  O
  O3       1.0000 0.75830  0.00160  0.43390  Biso   1.000  O
  O4       1.0000 0.58680  0.01100  0.52800  Biso   1.000  O
  N1       1.0000 0.57510  0.08890  0.89900  Biso   1.000  N
  N2       1.0000 0.70680  0.18890  0.91280  Biso   1.000  N
  N3       1.0000 0.54390  0.20510  0.91980  Biso   1.000  N
  N4       1.0000 0.41840  0.94120  0.79400  Biso   1.000  N
  N5       1.0000 0.25490  0.93740  0.69680  Biso   1.000  N
  N6       1.0000 0.38460  0.89200  0.68190  Biso   1.000  N
  C1       1.0000 0.46270  0.14190  0.91210  Biso   1.000  C
  H1       1.0000 0.35110  0.13590  0.91510  Biso   1.000  H
  C2       1.0000 0.71910  0.11850  0.89940  Biso   1.000  C
  H2       1.0000 0.81600  0.09460  0.89150  Biso   1.000  H
  C3       1.0000 0.83850  0.23750  0.91420  Biso   1.000  C
  C4       1.0000 0.98680  0.21680  0.94510  Biso   1.000  C
  H3       1.0000 0.99850  0.17200  0.96580  Biso   1.000  H
  C5       1.0000 0.11580  0.26360  0.94450  Biso   1.000  C
  H4       1.0000 0.21580  0.24940  0.96300  Biso   1.000  H
  C6       1.0000 0.09750  0.33190  0.91630  Biso   1.000  C
  C7       1.0000 0.94680  0.35250  0.88770  Biso   1.000  C
  H5       1.0000 0.93360  0.39780  0.86850  Biso   1.000  H
  C8       1.0000 0.81670  0.30560  0.88780  Biso   1.000  C
  H6       1.0000 0.71590  0.31990  0.87020  Biso   1.000  H
  C9       1.0000 0.23700  0.38280  0.91180  Biso   1.000  C
  C10      1.0000 0.48540  0.89470  0.74210  Biso   1.000  C
  H7       1.0000 0.58200  0.86990  0.74750  Biso   1.000  H
  C11      1.0000 0.28260  0.96480  0.76550  Biso   1.000  C
  H8       1.0000 0.21370  0.99640  0.78930  Biso   1.000  H
  C12      1.0000 0.12200  0.95220  0.64890  Biso   1.000  C
  C13      1.0000 0.15290  0.96390  0.57410  Biso   1.000  C
  H9       1.0000 0.25800  0.96130  0.55560  Biso   1.000  H
  C14      1.0000 0.02340  0.97970  0.52690  Biso   1.000  C
  H10      1.0000 0.04240  0.98740  0.47670  Biso   1.000  H
  C15      1.0000 0.86600  0.98390  0.55450  Biso   1.000  C
  C16      1.0000 0.83880  0.97290  0.63010  Biso   1.000  C
  H11      1.0000 0.73390  0.97600  0.64870  Biso   1.000  H
  C17      1.0000 0.96610  0.95720  0.67830  Biso   1.000  C
  H12      1.0000 0.94760  0.95020  0.72870  Biso   1.000  H
  C18      1.0000 0.72750  0.99980  0.50270  Biso   1.000  C
  Cd2      1.0000 0.48731  0.02727  0.40663  Biso   1.000  Cd
  O5       1.0000 0.62680  0.63610  0.43880  Biso   1.000  O
  O6       1.0000 0.78520  0.55740  0.38230  Biso   1.000  O
  O7       1.0000 0.24170  0.99840  0.93390  Biso   1.000  O
  O8       1.0000 0.41320  0.98900  0.02800  Biso   1.000  O
  N7       1.0000 0.42490  0.91110  0.39900  Biso   1.000  N
  N8       1.0000 0.29320  0.81110  0.41280  Biso   1.000  N
  N9       1.0000 0.45610  0.79490  0.41980  Biso   1.000  N
  N10      1.0000 0.58160  0.05880  0.29400  Biso   1.000  N
  N11      1.0000 0.74510  0.06260  0.19680  Biso   1.000  N
  N12      1.0000 0.61540  0.10800  0.18190  Biso   1.000  N
  C19      1.0000 0.53730  0.85810  0.41210  Biso   1.000  C
  H13      1.0000 0.64890  0.86410  0.41510  Biso   1.000  H
  C20      1.0000 0.28090  0.88150  0.39940  Biso   1.000  C
  H14      1.0000 0.18400  0.90540  0.39150  Biso   1.000  H
  C21      1.0000 0.16150  0.76250  0.41420  Biso   1.000  C
  C22      1.0000 0.01320  0.78320  0.44510  Biso   1.000  C
  H15      1.0000 0.00150  0.82800  0.46580  Biso   1.000  H
  C23      1.0000 0.88420  0.73640  0.44450  Biso   1.000  C
  H16      1.0000 0.78420  0.75060  0.46300  Biso   1.000  H
  C24      1.0000 0.90250  0.66810  0.41630  Biso   1.000  C
  C25      1.0000 0.05320  0.64750  0.38770  Biso   1.000  C
  H17      1.0000 0.06640  0.60220  0.36850  Biso   1.000  H
  C26      1.0000 0.18330  0.69440  0.38780  Biso   1.000  C
  H18      1.0000 0.28410  0.68010  0.37020  Biso   1.000  H
  C27      1.0000 0.76300  0.61720  0.41180  Biso   1.000  C
  C28      1.0000 0.51460  0.10530  0.24210  Biso   1.000  C
  H19      1.0000 0.41800  0.13010  0.24750  Biso   1.000  H
  C29      1.0000 0.71740  0.03520  0.26550  Biso   1.000  C
  H20      1.0000 0.78630  0.00360  0.28930  Biso   1.000  H
  C30      1.0000 0.87800  0.04780  0.14890  Biso   1.000  C
  C31      1.0000 0.84710  0.03610  0.07410  Biso   1.000  C
  H21      1.0000 0.74200  0.03870  0.05560  Biso   1.000  H
  C32      1.0000 0.97660  0.02030  0.02690  Biso   1.000  C
  H22      1.0000 0.95760  0.01260  0.97670  Biso   1.000  H
  C33      1.0000 0.13400  0.01610  0.05450  Biso   1.000  C
  C34      1.0000 0.16120  0.02710  0.13010  Biso   1.000  C
  H23      1.0000 0.26610  0.02400  0.14870  Biso   1.000  H
  C35      1.0000 0.03390  0.04280  0.17830  Biso   1.000  C
  H24      1.0000 0.05240  0.04980  0.22870  Biso   1.000  H
  C36      1.0000 0.27250  0.00020  0.00270  Biso   1.000  C
  Cd3      1.0000 0.48731  0.47273  0.90663  Biso   1.000  Cd
  O9       1.0000 0.62680  0.86390  0.93880  Biso   1.000  O
  O10      1.0000 0.78520  0.94260  0.88230  Biso   1.000  O
  O11      1.0000 0.24170  0.50160  0.43390  Biso   1.000  O
  O12      1.0000 0.41320  0.51100  0.52800  Biso   1.000  O
  N13      1.0000 0.42490  0.58890  0.89900  Biso   1.000  N
  N14      1.0000 0.29320  0.68890  0.91280  Biso   1.000  N
  N15      1.0000 0.45610  0.70510  0.91980  Biso   1.000  N
  N16      1.0000 0.58160  0.44120  0.79400  Biso   1.000  N
  N17      1.0000 0.74510  0.43740  0.69680  Biso   1.000  N
  N18      1.0000 0.61540  0.39200  0.68190  Biso   1.000  N
  C37      1.0000 0.53730  0.64190  0.91210  Biso   1.000  C
  H25      1.0000 0.64890  0.63590  0.91510  Biso   1.000  H
  C38      1.0000 0.28090  0.61850  0.89940  Biso   1.000  C
  H26      1.0000 0.18400  0.59460  0.89150  Biso   1.000  H
  C39      1.0000 0.16150  0.73750  0.91420  Biso   1.000  C
  C40      1.0000 0.01320  0.71680  0.94510  Biso   1.000  C
  H27      1.0000 0.00150  0.67200  0.96580  Biso   1.000  H
  C41      1.0000 0.88420  0.76360  0.94450  Biso   1.000  C
  H28      1.0000 0.78420  0.74940  0.96300  Biso   1.000  H
  C42      1.0000 0.90250  0.83190  0.91630  Biso   1.000  C
  C43      1.0000 0.05320  0.85250  0.88770  Biso   1.000  C
  H29      1.0000 0.06640  0.89780  0.86850  Biso   1.000  H
  C44      1.0000 0.18330  0.80560  0.88780  Biso   1.000  C
  H30      1.0000 0.28410  0.81990  0.87020  Biso   1.000  H
  C45      1.0000 0.76300  0.88280  0.91180  Biso   1.000  C
  C46      1.0000 0.51460  0.39470  0.74210  Biso   1.000  C
  H31      1.0000 0.41800  0.36990  0.74750  Biso   1.000  H
  C47      1.0000 0.71740  0.46480  0.76550  Biso   1.000  C
  H32      1.0000 0.78630  0.49640  0.78930  Biso   1.000  H
  C48      1.0000 0.87800  0.45220  0.64890  Biso   1.000  C
  C49      1.0000 0.84710  0.46390  0.57410  Biso   1.000  C
  H33      1.0000 0.74200  0.46130  0.55560  Biso   1.000  H
  C50      1.0000 0.97660  0.47970  0.52690  Biso   1.000  C
  H34      1.0000 0.95760  0.48740  0.47670  Biso   1.000  H
  C51      1.0000 0.13400  0.48390  0.55450  Biso   1.000  C
  C52      1.0000 0.16120  0.47290  0.63010  Biso   1.000  C
  H35      1.0000 0.26610  0.47600  0.64870  Biso   1.000  H
  C53      1.0000 0.03390  0.45720  0.67830  Biso   1.000  C
  H36      1.0000 0.05240  0.45020  0.72870  Biso   1.000  H
  C54      1.0000 0.27250  0.49980  0.50270  Biso   1.000  C
  Cd4      1.0000 0.51269  0.52727  0.40663  Biso   1.000  Cd
  O13      1.0000 0.37320  0.13610  0.43880  Biso   1.000  O
  O14      1.0000 0.21480  0.05740  0.38230  Biso   1.000  O
  O15      1.0000 0.75830  0.49840  0.93390  Biso   1.000  O
  O16      1.0000 0.58680  0.48900  0.02800  Biso   1.000  O
  N19      1.0000 0.57510  0.41110  0.39900  Biso   1.000  N
  N20      1.0000 0.70680  0.31110  0.41280  Biso   1.000  N
  N21      1.0000 0.54390  0.29490  0.41980  Biso   1.000  N
  N22      1.0000 0.41840  0.55880  0.29400  Biso   1.000  N
  N23      1.0000 0.25490  0.56260  0.19680  Biso   1.000  N
  N24      1.0000 0.38460  0.60800  0.18190  Biso   1.000  N
  C55      1.0000 0.46270  0.35810  0.41210  Biso   1.000  C
  H37      1.0000 0.35110  0.36410  0.41510  Biso   1.000  H
  C56      1.0000 0.71910  0.38150  0.39940  Biso   1.000  C
  H38      1.0000 0.81600  0.40540  0.39150  Biso   1.000  H
  C57      1.0000 0.83850  0.26250  0.41420  Biso   1.000  C
  C58      1.0000 0.98680  0.28320  0.44510  Biso   1.000  C
  H39      1.0000 0.99850  0.32800  0.46580  Biso   1.000  H
  C59      1.0000 0.11580  0.23640  0.44450  Biso   1.000  C
  H40      1.0000 0.21580  0.25060  0.46300  Biso   1.000  H
  C60      1.0000 0.09750  0.16810  0.41630  Biso   1.000  C
  C61      1.0000 0.94680  0.14750  0.38770  Biso   1.000  C
  H41      1.0000 0.93360  0.10220  0.36850  Biso   1.000  H
  C62      1.0000 0.81670  0.19440  0.38780  Biso   1.000  C
  H42      1.0000 0.71590  0.18010  0.37020  Biso   1.000  H
  C63      1.0000 0.23700  0.11720  0.41180  Biso   1.000  C
  C64      1.0000 0.48540  0.60530  0.24210  Biso   1.000  C
  H43      1.0000 0.58200  0.63010  0.24750  Biso   1.000  H
  C65      1.0000 0.28260  0.53520  0.26550  Biso   1.000  C
  H44      1.0000 0.21370  0.50360  0.28930  Biso   1.000  H
  C66      1.0000 0.12200  0.54780  0.14890  Biso   1.000  C
  C67      1.0000 0.15290  0.53610  0.07410  Biso   1.000  C
  H45      1.0000 0.25800  0.53870  0.05560  Biso   1.000  H
  C68      1.0000 0.02340  0.52030  0.02690  Biso   1.000  C
  H46      1.0000 0.04240  0.51260  0.97670  Biso   1.000  H
  C69      1.0000 0.86600  0.51610  0.05450  Biso   1.000  C
  C70      1.0000 0.83880  0.52710  0.13010  Biso   1.000  C
  H47      1.0000 0.73390  0.52400  0.14870  Biso   1.000  H
  C71      1.0000 0.96610  0.54280  0.17830  Biso   1.000  C
  H48      1.0000 0.94760  0.54980  0.22870  Biso   1.000  H
  C72      1.0000 0.72750  0.50020  0.00270  Biso   1.000  C
