data_LIVTEP_charged
_audit_creation_date              2014-07-02
_audit_creation_method            'Materials Studio'
_symmetry_space_group_name_H-M    'P1'
_symmetry_Int_Tables_number       1
_symmetry_cell_setting            triclinic
loop_
_symmetry_equiv_pos_as_xyz
  x,y,z
_cell_length_a                    8.1570
_cell_length_b                    10.1706
_cell_length_c                    11.6130
_cell_angle_alpha                 90.0000
_cell_angle_beta                  90.0000
_cell_angle_gamma                 113.6410
loop_
_atom_site_label
_atom_site_type_symbol
_atom_site_fract_x
_atom_site_fract_y
_atom_site_fract_z
_atom_site_U_iso_or_equiv
_atom_site_adp_type
_atom_site_occupancy
Cu1    Cu    0.50000   0.00000   0.25000   0.01267  Uiso   1.00
Cu2    Cu    0.50000   0.00000   0.75000   0.01267  Uiso   1.00
H1     H     0.00000   0.50000   0.79830   0.01267  Uiso   1.00
H2     H     0.50000   0.50000   0.70170   0.01267  Uiso   1.00
H3     H     0.00000   0.50000   0.20170   0.01267  Uiso   1.00
H4     H     0.50000   0.50000   0.29830   0.01267  Uiso   1.00
C1     C     0.79110   0.24700   0.88060   0.01267  Uiso   1.00
C2     C     0.90050   0.37640   0.94030   0.01267  Uiso   1.00
C3     C     0.20890   0.75300   0.88060   0.01267  Uiso   1.00
C4     C     0.09950   0.62360   0.94030   0.01267  Uiso   1.00
C5     C     0.45590   0.24700   0.61940   0.01267  Uiso   1.00
C6     C     0.47590   0.37640   0.55970   0.01267  Uiso   1.00
C7     C     0.54410   0.75300   0.61940   0.01267  Uiso   1.00
C8     C     0.52410   0.62360   0.55970   0.01267  Uiso   1.00
C9     C     0.20890   0.75300   0.11940   0.01267  Uiso   1.00
C10    C     0.09950   0.62360   0.05970   0.01267  Uiso   1.00
C11    C     0.79110   0.24700   0.11940   0.01267  Uiso   1.00
C12    C     0.90050   0.37640   0.05970   0.01267  Uiso   1.00
C13    C     0.54410   0.75300   0.38060   0.01267  Uiso   1.00
C14    C     0.52410   0.62360   0.44030   0.01267  Uiso   1.00
C15    C     0.45590   0.24700   0.38060   0.01267  Uiso   1.00
C16    C     0.47590   0.37640   0.44030   0.01267  Uiso   1.00
C17    C     0.00000   0.50000   0.87840   0.01267  Uiso   1.00
C18    C     0.50000   0.50000   0.62160   0.01267  Uiso   1.00
C19    C     0.00000   0.50000   0.12160   0.01267  Uiso   1.00
C20    C     0.50000   0.50000   0.37840   0.01267  Uiso   1.00
N1     N     0.69760   0.14240   0.83840   0.01267  Uiso   1.00
N2     N     0.30240   0.85760   0.83840   0.01267  Uiso   1.00
N3     N     0.44480   0.14240   0.66160   0.01267  Uiso   1.00
N4     N     0.55520   0.85760   0.66160   0.01267  Uiso   1.00
N5     N     0.30240   0.85760   0.16160   0.01267  Uiso   1.00
N6     N     0.69760   0.14240   0.16160   0.01267  Uiso   1.00
N7     N     0.55520   0.85760   0.33840   0.01267  Uiso   1.00
N8     N     0.44480   0.14240   0.33840   0.01267  Uiso   1.00
P1     P     0.50000   0.50000   0.00000   0.01267  Uiso   1.00
F1     F     0.54360   0.40880   0.90440   0.01267  Uiso   1.00
F2     F     0.45640   0.59120   0.90440   0.01267  Uiso   1.00
F3     F     0.45640   0.59120   0.09560   0.01267  Uiso   1.00
F4     F     0.54360   0.40880   0.09560   0.01267  Uiso   1.00
F5     F     0.70230   0.60360   0.00000   0.01267  Uiso   1.00
F6     F     0.29770   0.39640   0.00000   0.01267  Uiso   1.00
P2     P     0.00000   0.50000   0.50000   0.01267  Uiso   1.00
F7     F     0.86520   0.40880   0.59560   0.01267  Uiso   1.00
F8     F     0.13480   0.59120   0.59560   0.01267  Uiso   1.00
F9     F     0.13480   0.59120   0.40440   0.01267  Uiso   1.00
F10    F     0.86520   0.40880   0.40440   0.01267  Uiso   1.00
F11    F     0.90130   0.60360   0.50000   0.01267  Uiso   1.00
F12    F     0.09870   0.39640   0.50000   0.01267  Uiso   1.00
