data_image0
_cell_length_a       10.0945
_cell_length_b       14.7356
_cell_length_c       14.4964
_cell_angle_alpha    90
_cell_angle_beta     97.497
_cell_angle_gamma    90

_symmetry_space_group_name_H-M    "P 1"
_symmetry_int_tables_number       1

loop_
  _symmetry_equiv_pos_as_xyz
  'x, y, z'

loop_
  _atom_site_label
  _atom_site_occupancy
  _atom_site_fract_x
  _atom_site_fract_y
  _atom_site_fract_z
  _atom_site_thermal_displace_type
  _atom_site_B_iso_or_equiv
  _atom_site_type_symbol
  Zn1      1.0000 0.95889  0.09878  0.89901  Biso   1.000  Zn
  Zn2      1.0000 0.96696  0.26045  0.26471  Biso   1.000  Zn
  Zn3      1.0000 0.51710  0.12896  0.43978  Biso   1.000  Zn
  P1       1.0000 0.00150  0.10713  0.11762  Biso   1.000  P
  H1       1.0000 0.13090  0.17010  0.10580  Biso   1.000  H
  P2       1.0000 0.68568  0.27605  0.34078  Biso   1.000  P
  H2       1.0000 0.64520  0.28410  0.25410  Biso   1.000  H
  P3       1.0000 0.27081  0.23310  0.34178  Biso   1.000  P
  H3       1.0000 0.27660  0.18820  0.26510  Biso   1.000  H
  P4       1.0000 0.55703  0.07372  0.64370  Biso   1.000  P
  H4       1.0000 0.68800  0.04030  0.69840  Biso   1.000  H
  O1       1.0000 0.63630  0.35380  0.39490  Biso   1.000  O
  O2       1.0000 0.05810  0.01970  0.15940  Biso   1.000  O
  O3       1.0000 0.33150  0.32280  0.32350  Biso   1.000  O
  O4       1.0000 0.91590  0.09350  0.02530  Biso   1.000  O
  O5       1.0000 0.92360  0.15800  0.18440  Biso   1.000  O
  O6       1.0000 0.48090  0.12270  0.71020  Biso   1.000  O
  O7       1.0000 0.83530  0.27810  0.34760  Biso   1.000  O
  O8       1.0000 0.12430  0.23850  0.35280  Biso   1.000  O
  O9       1.0000 0.34270  0.18250  0.42370  Biso   1.000  O
  O10      1.0000 0.47690  0.99280  0.60600  Biso   1.000  O
  O11      1.0000 0.63590  0.18480  0.36410  Biso   1.000  O
  O12      1.0000 0.59840  0.13350  0.56830  Biso   1.000  O
  Zn4      1.0000 0.54111  0.59878  0.60099  Biso   1.000  Zn
  Zn5      1.0000 0.53304  0.76045  0.23529  Biso   1.000  Zn
  Zn6      1.0000 0.98290  0.62896  0.06022  Biso   1.000  Zn
  P5       1.0000 0.49850  0.60713  0.38238  Biso   1.000  P
  H5       1.0000 0.36910  0.67010  0.39420  Biso   1.000  H
  P6       1.0000 0.81432  0.77605  0.15922  Biso   1.000  P
  H6       1.0000 0.85480  0.78410  0.24590  Biso   1.000  H
  P7       1.0000 0.22919  0.73310  0.15822  Biso   1.000  P
  H7       1.0000 0.22340  0.68820  0.23490  Biso   1.000  H
  P8       1.0000 0.94297  0.57372  0.85630  Biso   1.000  P
  H8       1.0000 0.81200  0.54030  0.80160  Biso   1.000  H
  O13      1.0000 0.86370  0.85380  0.10510  Biso   1.000  O
  O14      1.0000 0.44190  0.51970  0.34060  Biso   1.000  O
  O15      1.0000 0.16850  0.82280  0.17650  Biso   1.000  O
  O16      1.0000 0.58410  0.59350  0.47470  Biso   1.000  O
  O17      1.0000 0.57640  0.65800  0.31560  Biso   1.000  O
  O18      1.0000 0.01910  0.62270  0.78980  Biso   1.000  O
  O19      1.0000 0.66470  0.77810  0.15240  Biso   1.000  O
  O20      1.0000 0.37570  0.73850  0.14720  Biso   1.000  O
  O21      1.0000 0.15730  0.68250  0.07630  Biso   1.000  O
  O22      1.0000 0.02310  0.49280  0.89400  Biso   1.000  O
  O23      1.0000 0.86410  0.68480  0.13590  Biso   1.000  O
  O24      1.0000 0.90160  0.63350  0.93170  Biso   1.000  O
  Zn7      1.0000 0.04111  0.90122  0.10099  Biso   1.000  Zn
  Zn8      1.0000 0.03304  0.73955  0.73529  Biso   1.000  Zn
  Zn9      1.0000 0.48290  0.87104  0.56022  Biso   1.000  Zn
  P9       1.0000 0.99850  0.89287  0.88238  Biso   1.000  P
  H9       1.0000 0.86910  0.82990  0.89420  Biso   1.000  H
  P10      1.0000 0.31432  0.72395  0.65922  Biso   1.000  P
  H10      1.0000 0.35480  0.71590  0.74590  Biso   1.000  H
  P11      1.0000 0.72919  0.76690  0.65822  Biso   1.000  P
  H11      1.0000 0.72340  0.81180  0.73490  Biso   1.000  H
  P12      1.0000 0.44297  0.92628  0.35630  Biso   1.000  P
  H12      1.0000 0.31200  0.95970  0.30160  Biso   1.000  H
  O25      1.0000 0.36370  0.64620  0.60510  Biso   1.000  O
  O26      1.0000 0.94190  0.98030  0.84060  Biso   1.000  O
  O27      1.0000 0.66850  0.67720  0.67650  Biso   1.000  O
  O28      1.0000 0.08410  0.90650  0.97470  Biso   1.000  O
  O29      1.0000 0.07640  0.84200  0.81560  Biso   1.000  O
  O30      1.0000 0.51910  0.87730  0.28980  Biso   1.000  O
  O31      1.0000 0.16470  0.72190  0.65240  Biso   1.000  O
  O32      1.0000 0.87570  0.76150  0.64720  Biso   1.000  O
  O33      1.0000 0.65730  0.81750  0.57630  Biso   1.000  O
  O34      1.0000 0.52310  0.00720  0.39400  Biso   1.000  O
  O35      1.0000 0.36410  0.81520  0.63590  Biso   1.000  O
  O36      1.0000 0.40160  0.86650  0.43170  Biso   1.000  O
  Zn10     1.0000 0.45889  0.40122  0.39901  Biso   1.000  Zn
  Zn11     1.0000 0.46696  0.23955  0.76471  Biso   1.000  Zn
  Zn12     1.0000 0.01710  0.37104  0.93978  Biso   1.000  Zn
  P13      1.0000 0.50150  0.39287  0.61762  Biso   1.000  P
  H13      1.0000 0.63090  0.32990  0.60580  Biso   1.000  H
  P14      1.0000 0.18568  0.22395  0.84078  Biso   1.000  P
  H14      1.0000 0.14520  0.21590  0.75410  Biso   1.000  H
  P15      1.0000 0.77081  0.26690  0.84178  Biso   1.000  P
  H15      1.0000 0.77660  0.31180  0.76510  Biso   1.000  H
  P16      1.0000 0.05703  0.42628  0.14370  Biso   1.000  P
  H16      1.0000 0.18800  0.45970  0.19840  Biso   1.000  H
  O37      1.0000 0.13630  0.14620  0.89490  Biso   1.000  O
  O38      1.0000 0.55810  0.48030  0.65940  Biso   1.000  O
  O39      1.0000 0.83150  0.17720  0.82350  Biso   1.000  O
  O40      1.0000 0.41590  0.40650  0.52530  Biso   1.000  O
  O41      1.0000 0.42360  0.34200  0.68440  Biso   1.000  O
  O42      1.0000 0.98090  0.37730  0.21020  Biso   1.000  O
  O43      1.0000 0.33530  0.22190  0.84760  Biso   1.000  O
  O44      1.0000 0.62430  0.26150  0.85280  Biso   1.000  O
  O45      1.0000 0.84270  0.31750  0.92370  Biso   1.000  O
  O46      1.0000 0.97690  0.50720  0.10600  Biso   1.000  O
  O47      1.0000 0.13590  0.31520  0.86410  Biso   1.000  O
  O48      1.0000 0.09840  0.36650  0.06830  Biso   1.000  O
