data_image0
_cell_length_a       4.789
_cell_length_b       11.771
_cell_length_c       26.329
_cell_angle_alpha    96.822
_cell_angle_beta     90
_cell_angle_gamma    90

_symmetry_space_group_name_H-M    P 1
_symmetry_int_tables_number       1

loop_
  _symmetry_equiv_pos_as_xyz
  'x, y, z'

loop_
  _atom_site_label
  _atom_site_occupancy
  _atom_site_fract_x
  _atom_site_fract_y
  _atom_site_fract_z
  _atom_site_thermal_displace_type
  _atom_site_B_iso_or_equiv
  _atom_site_type_symbol
  Zn1      1.0000 0.29553  0.09541  0.55064  Biso   1.000  Zn
  Zn2      1.0000 0.27738  0.82415  0.97052  Biso   1.000  Zn
  Zn3      1.0000 0.79553  0.90459  0.44936  Biso   1.000  Zn
  Zn4      1.0000 0.77738  0.17585  0.02948  Biso   1.000  Zn
  H1       1.0000 0.78980  0.25670  0.42050  Biso   1.000  H
  H2       1.0000 0.90020  0.28710  0.33750  Biso   1.000  H
  H3       1.0000 0.36110  0.04230  0.28340  Biso   1.000  H
  H4       1.0000 0.77120  0.95810  0.23210  Biso   1.000  H
  H5       1.0000 0.63040  0.83380  0.16370  Biso   1.000  H
  H6       1.0000 0.46540  0.21820  0.16370  Biso   1.000  H
  H7       1.0000 0.33190  0.23950  0.65670  Biso   1.000  H
  H8       1.0000 0.81860  0.29020  0.54650  Biso   1.000  H
  H9       1.0000 0.76420  0.44970  0.61380  Biso   1.000  H
  H10      1.0000 0.12040  0.52340  0.69400  Biso   1.000  H
  H11      1.0000 0.30190  0.42680  0.71360  Biso   1.000  H
  H12      1.0000 0.88820  0.25800  0.73430  Biso   1.000  H
  H13      1.0000 0.59070  0.24210  0.80120  Biso   1.000  H
  H14      1.0000 0.53830  0.58210  0.82770  Biso   1.000  H
  H15      1.0000 0.84060  0.59780  0.76050  Biso   1.000  H
  H16      1.0000 0.14410  0.40160  0.85370  Biso   1.000  H
  H17      1.0000 0.36290  0.32470  0.87790  Biso   1.000  H
  H18      1.0000 0.08730  0.60950  0.89700  Biso   1.000  H
  H19      1.0000 0.69020  0.62030  0.99840  Biso   1.000  H
  H20      1.0000 0.71330  0.43320  0.94720  Biso   1.000  H
  H21      1.0000 0.28980  0.74330  0.57950  Biso   1.000  H
  H22      1.0000 0.40020  0.71290  0.66250  Biso   1.000  H
  H23      1.0000 0.86110  0.95770  0.71660  Biso   1.000  H
  H24      1.0000 0.27120  0.04190  0.76790  Biso   1.000  H
  H25      1.0000 0.13040  0.16620  0.83630  Biso   1.000  H
  H26      1.0000 0.96540  0.78180  0.83630  Biso   1.000  H
  H27      1.0000 0.83190  0.76050  0.34330  Biso   1.000  H
  H28      1.0000 0.31860  0.70980  0.45350  Biso   1.000  H
  H29      1.0000 0.26420  0.55030  0.38620  Biso   1.000  H
  H30      1.0000 0.62040  0.47660  0.30600  Biso   1.000  H
  H31      1.0000 0.80190  0.57320  0.28640  Biso   1.000  H
  H32      1.0000 0.38820  0.74200  0.26570  Biso   1.000  H
  H33      1.0000 0.09070  0.75790  0.19880  Biso   1.000  H
  H34      1.0000 0.03830  0.41790  0.17230  Biso   1.000  H
  H35      1.0000 0.34060  0.40220  0.23950  Biso   1.000  H
  H36      1.0000 0.64410  0.59840  0.14630  Biso   1.000  H
  H37      1.0000 0.86290  0.67530  0.12210  Biso   1.000  H
  H38      1.0000 0.58730  0.39050  0.10300  Biso   1.000  H
  H39      1.0000 0.19020  0.37970  0.00160  Biso   1.000  H
  H40      1.0000 0.21330  0.56680  0.05280  Biso   1.000  H
  C1       1.0000 0.44500  0.11630  0.45674  Biso   1.000  C
  C2       1.0000 0.50590  0.13110  0.40192  Biso   1.000  C
  C3       1.0000 0.70320  0.21350  0.39305  Biso   1.000  C
  C4       1.0000 0.77080  0.23110  0.34332  Biso   1.000  C
  C5       1.0000 0.64540  0.16530  0.30199  Biso   1.000  C
  C6       1.0000 0.44770  0.08500  0.31101  Biso   1.000  C
  C7       1.0000 0.37440  0.06630  0.36086  Biso   1.000  C
  C8       1.0000 0.15730  0.97900  0.36766  Biso   1.000  C
  C9       1.0000 0.71450  0.18840  0.24894  Biso   1.000  C
  C10      1.0000 0.62980  0.10200  0.20527  Biso   1.000  C
  C11      1.0000 0.68090  0.98540  0.20476  Biso   1.000  C
  C12      1.0000 0.59680  0.91160  0.16358  Biso   1.000  C
  C13      1.0000 0.46400  0.94800  0.12182  Biso   1.000  C
  C14      1.0000 0.41010  0.06570  0.12245  Biso   1.000  C
  C15      1.0000 0.49680  0.14020  0.16372  Biso   1.000  C
  C16      1.0000 0.25470  0.11390  0.08033  Biso   1.000  C
  C17      1.0000 0.38690  0.86360  0.07667  Biso   1.000  C
  C18      1.0000 0.19830  0.27230  0.63738  Biso   1.000  C
  C19      1.0000 0.91650  0.29980  0.57720  Biso   1.000  C
  C20      1.0000 0.88650  0.38850  0.61420  Biso   1.000  C
  C21      1.0000 0.11910  0.44410  0.70059  Biso   1.000  C
  C22      1.0000 0.90400  0.42970  0.74101  Biso   1.000  C
  C23      1.0000 0.82100  0.32390  0.75337  Biso   1.000  C
  C24      1.0000 0.64100  0.31430  0.79333  Biso   1.000  C
  C25      1.0000 0.53370  0.41060  0.82195  Biso   1.000  C
  C26      1.0000 0.60980  0.51630  0.80919  Biso   1.000  C
  C27      1.0000 0.79270  0.52570  0.76885  Biso   1.000  C
  C28      1.0000 0.33480  0.39860  0.86582  Biso   1.000  C
  C29      1.0000 0.24000  0.58980  0.91589  Biso   1.000  C
  C30      1.0000 0.57180  0.59470  0.97148  Biso   1.000  C
  C31      1.0000 0.58590  0.49120  0.94336  Biso   1.000  C
  C32      1.0000 0.94500  0.88370  0.54326  Biso   1.000  C
  C33      1.0000 0.00590  0.86890  0.59808  Biso   1.000  C
  C34      1.0000 0.20320  0.78650  0.60695  Biso   1.000  C
  C35      1.0000 0.27080  0.76890  0.65668  Biso   1.000  C
  C36      1.0000 0.14540  0.83470  0.69801  Biso   1.000  C
  C37      1.0000 0.94770  0.91500  0.68899  Biso   1.000  C
  C38      1.0000 0.87440  0.93370  0.63914  Biso   1.000  C
  C39      1.0000 0.65730  0.02100  0.63234  Biso   1.000  C
  C40      1.0000 0.21450  0.81160  0.75106  Biso   1.000  C
  C41      1.0000 0.12980  0.89800  0.79473  Biso   1.000  C
  C42      1.0000 0.18090  0.01460  0.79524  Biso   1.000  C
  C43      1.0000 0.09680  0.08840  0.83642  Biso   1.000  C
  C44      1.0000 0.96400  0.05200  0.87818  Biso   1.000  C
  C45      1.0000 0.91010  0.93430  0.87755  Biso   1.000  C
  C46      1.0000 0.99680  0.85980  0.83628  Biso   1.000  C
  C47      1.0000 0.75470  0.88610  0.91967  Biso   1.000  C
  C48      1.0000 0.88690  0.13640  0.92333  Biso   1.000  C
  C49      1.0000 0.69830  0.72770  0.36262  Biso   1.000  C
  C50      1.0000 0.41650  0.70020  0.42280  Biso   1.000  C
  C51      1.0000 0.38650  0.61150  0.38580  Biso   1.000  C
  C52      1.0000 0.61910  0.55590  0.29941  Biso   1.000  C
  C53      1.0000 0.40400  0.57030  0.25899  Biso   1.000  C
  C54      1.0000 0.32100  0.67610  0.24663  Biso   1.000  C
  C55      1.0000 0.14100  0.68570  0.20667  Biso   1.000  C
  C56      1.0000 0.03370  0.58940  0.17805  Biso   1.000  C
  C57      1.0000 0.10980  0.48370  0.19081  Biso   1.000  C
  C58      1.0000 0.29270  0.47430  0.23115  Biso   1.000  C
  C59      1.0000 0.83480  0.60140  0.13418  Biso   1.000  C
  C60      1.0000 0.74000  0.41020  0.08411  Biso   1.000  C
  C61      1.0000 0.07180  0.40530  0.02852  Biso   1.000  C
  C62      1.0000 0.08590  0.50880  0.05664  Biso   1.000  C
  N1       1.0000 0.11300  0.22610  0.59188  Biso   1.000  N
  N2       1.0000 0.07080  0.37130  0.65241  Biso   1.000  N
  N3       1.0000 0.37670  0.48860  0.90814  Biso   1.000  N
  N4       1.0000 0.35420  0.65640  0.95407  Biso   1.000  N
  N5       1.0000 0.61300  0.77390  0.40812  Biso   1.000  N
  N6       1.0000 0.57080  0.62870  0.34759  Biso   1.000  N
  N7       1.0000 0.87670  0.51140  0.09186  Biso   1.000  N
  N8       1.0000 0.85420  0.34360  0.04593  Biso   1.000  N
  O1       1.0000 0.30490  0.18690  0.48452  Biso   1.000  O
  O2       1.0000 0.55670  0.03540  0.47638  Biso   1.000  O
  O3       1.0000 0.08460  0.97480  0.41411  Biso   1.000  O
  O4       1.0000 0.06400  0.91750  0.33056  Biso   1.000  O
  O5       1.0000 0.83000  0.27670  0.24151  Biso   1.000  O
  O6       1.0000 0.99190  0.10400  0.08094  Biso   1.000  O
  O7       1.0000 0.38070  0.17000  0.04997  Biso   1.000  O
  O8       1.0000 0.38160  0.76140  0.08066  Biso   1.000  O
  O9       1.0000 0.33880  0.90840  0.03598  Biso   1.000  O
  O10      1.0000 0.80490  0.81310  0.51548  Biso   1.000  O
  O11      1.0000 0.05670  0.96460  0.52362  Biso   1.000  O
  O12      1.0000 0.58460  0.02520  0.58589  Biso   1.000  O
  O13      1.0000 0.56400  0.08250  0.66944  Biso   1.000  O
  O14      1.0000 0.33000  0.72330  0.75849  Biso   1.000  O
  O15      1.0000 0.49190  0.89600  0.91906  Biso   1.000  O
  O16      1.0000 0.88070  0.83000  0.95003  Biso   1.000  O
  O17      1.0000 0.88160  0.23860  0.91934  Biso   1.000  O
  O18      1.0000 0.83880  0.09160  0.96402  Biso   1.000  O
