data_image0
_cell_length_a       13.5328
_cell_length_b       13.9111
_cell_length_c       17.7634
_cell_angle_alpha    111.292
_cell_angle_beta     90
_cell_angle_gamma    90

_symmetry_space_group_name_H-M    P 1
_symmetry_int_tables_number       1

loop_
  _symmetry_equiv_pos_as_xyz
  'x, y, z'

loop_
  _atom_site_label
  _atom_site_occupancy
  _atom_site_fract_x
  _atom_site_fract_y
  _atom_site_fract_z
  _atom_site_thermal_displace_type
  _atom_site_B_iso_or_equiv
  _atom_site_type_symbol
  Ni1      1.0000 0.01711  0.73855  0.92276  Biso   1.000  Ni
  Ni2      1.0000 0.51711  0.26145  0.57724  Biso   1.000  Ni
  Ni3      1.0000 0.98289  0.26145  0.07724  Biso   1.000  Ni
  Ni4      1.0000 0.48289  0.73855  0.42276  Biso   1.000  Ni
  Ni5      1.0000 0.00000  0.00000  0.00000  Biso   1.000  Ni
  Ni6      1.0000 0.50000  0.00000  0.50000  Biso   1.000  Ni
  H1       1.0000 0.13900  0.86000  0.00210  Biso   1.000  H
  H2       1.0000 0.13500  0.86400  0.92300  Biso   1.000  H
  H3       1.0000 0.88550  0.70220  0.06850  Biso   1.000  H
  H4       1.0000 0.85850  0.00540  0.15820  Biso   1.000  H
  H5       1.0000 0.82240  0.89980  0.25820  Biso   1.000  H
  H6       1.0000 0.81070  0.77870  0.21350  Biso   1.000  H
  H7       1.0000 0.66420  0.80250  0.15170  Biso   1.000  H
  H8       1.0000 0.67750  0.92420  0.18980  Biso   1.000  H
  H9       1.0000 0.63180  0.01380  0.34350  Biso   1.000  H
  H10      1.0000 0.60570  0.71150  0.25290  Biso   1.000  H
  H11      1.0000 0.10950  0.53750  0.04770  Biso   1.000  H
  H12      1.0000 0.27180  0.52990  0.23610  Biso   1.000  H
  H13      1.0000 0.26050  0.78970  0.18500  Biso   1.000  H
  H14      1.0000 0.63900  0.14000  0.49790  Biso   1.000  H
  H15      1.0000 0.63500  0.13600  0.57700  Biso   1.000  H
  H16      1.0000 0.38550  0.29780  0.43150  Biso   1.000  H
  H17      1.0000 0.35850  0.99460  0.34180  Biso   1.000  H
  H18      1.0000 0.32240  0.10020  0.24180  Biso   1.000  H
  H19      1.0000 0.31070  0.22130  0.28650  Biso   1.000  H
  H20      1.0000 0.16420  0.19750  0.34830  Biso   1.000  H
  H21      1.0000 0.17750  0.07580  0.31020  Biso   1.000  H
  H22      1.0000 0.13180  0.98620  0.15650  Biso   1.000  H
  H23      1.0000 0.10570  0.28850  0.24710  Biso   1.000  H
  H24      1.0000 0.60950  0.46250  0.45230  Biso   1.000  H
  H25      1.0000 0.77180  0.47010  0.26390  Biso   1.000  H
  H26      1.0000 0.76050  0.21030  0.31500  Biso   1.000  H
  H27      1.0000 0.86100  0.14000  0.99790  Biso   1.000  H
  H28      1.0000 0.86500  0.13600  0.07700  Biso   1.000  H
  H29      1.0000 0.11450  0.29780  0.93150  Biso   1.000  H
  H30      1.0000 0.14150  0.99460  0.84180  Biso   1.000  H
  H31      1.0000 0.17760  0.10020  0.74180  Biso   1.000  H
  H32      1.0000 0.18930  0.22130  0.78650  Biso   1.000  H
  H33      1.0000 0.33580  0.19750  0.84830  Biso   1.000  H
  H34      1.0000 0.32250  0.07580  0.81020  Biso   1.000  H
  H35      1.0000 0.36820  0.98620  0.65650  Biso   1.000  H
  H36      1.0000 0.39430  0.28850  0.74710  Biso   1.000  H
  H37      1.0000 0.89050  0.46250  0.95230  Biso   1.000  H
  H38      1.0000 0.72820  0.47010  0.76390  Biso   1.000  H
  H39      1.0000 0.73950  0.21030  0.81500  Biso   1.000  H
  H40      1.0000 0.36100  0.86000  0.50210  Biso   1.000  H
  H41      1.0000 0.36500  0.86400  0.42300  Biso   1.000  H
  H42      1.0000 0.61450  0.70220  0.56850  Biso   1.000  H
  H43      1.0000 0.64150  0.00540  0.65820  Biso   1.000  H
  H44      1.0000 0.67760  0.89980  0.75820  Biso   1.000  H
  H45      1.0000 0.68930  0.77870  0.71350  Biso   1.000  H
  H46      1.0000 0.83580  0.80250  0.65170  Biso   1.000  H
  H47      1.0000 0.82250  0.92420  0.68980  Biso   1.000  H
  H48      1.0000 0.86820  0.01380  0.84350  Biso   1.000  H
  H49      1.0000 0.89430  0.71150  0.75290  Biso   1.000  H
  H50      1.0000 0.39050  0.53750  0.54770  Biso   1.000  H
  H51      1.0000 0.22820  0.52990  0.73610  Biso   1.000  H
  H52      1.0000 0.23950  0.78970  0.68500  Biso   1.000  H
  C1       1.0000 0.88990  0.77232  0.07528  Biso   1.000  C
  C2       1.0000 0.87510  0.93800  0.12421  Biso   1.000  C
  C3       1.0000 0.79860  0.84580  0.20878  Biso   1.000  C
  C4       1.0000 0.68910  0.85960  0.19878  Biso   1.000  C
  C5       1.0000 0.61570  0.94570  0.33733  Biso   1.000  C
  C6       1.0000 0.60150  0.78080  0.28787  Biso   1.000  C
  C7       1.0000 0.18450  0.67074  0.10578  Biso   1.000  C
  C8       1.0000 0.15254  0.57016  0.09100  Biso   1.000  C
  C9       1.0000 0.18421  0.51838  0.14024  Biso   1.000  C
  C10      1.0000 0.24738  0.56655  0.20475  Biso   1.000  C
  C11      1.0000 0.27440  0.66919  0.22287  Biso   1.000  C
  C12      1.0000 0.24249  0.72047  0.17296  Biso   1.000  C
  C13      1.0000 0.15330  0.72570  0.05061  Biso   1.000  C
  C14      1.0000 0.15000  0.40920  0.12280  Biso   1.000  C
  C15      1.0000 0.33330  0.72599  0.29673  Biso   1.000  C
  C16      1.0000 0.38990  0.22768  0.42472  Biso   1.000  C
  C17      1.0000 0.37510  0.06200  0.37579  Biso   1.000  C
  C18      1.0000 0.29860  0.15420  0.29122  Biso   1.000  C
  C19      1.0000 0.18910  0.14040  0.30122  Biso   1.000  C
  C20      1.0000 0.11570  0.05430  0.16267  Biso   1.000  C
  C21      1.0000 0.10150  0.21920  0.21213  Biso   1.000  C
  C22      1.0000 0.68450  0.32926  0.39422  Biso   1.000  C
  C23      1.0000 0.65254  0.42984  0.40900  Biso   1.000  C
  C24      1.0000 0.68421  0.48162  0.35976  Biso   1.000  C
  C25      1.0000 0.74738  0.43345  0.29525  Biso   1.000  C
  C26      1.0000 0.77440  0.33081  0.27713  Biso   1.000  C
  C27      1.0000 0.74249  0.27953  0.32704  Biso   1.000  C
  C28      1.0000 0.65330  0.27430  0.44939  Biso   1.000  C
  C29      1.0000 0.65000  0.59080  0.37720  Biso   1.000  C
  C30      1.0000 0.83330  0.27401  0.20327  Biso   1.000  C
  C31      1.0000 0.11010  0.22768  0.92472  Biso   1.000  C
  C32      1.0000 0.12490  0.06200  0.87579  Biso   1.000  C
  C33      1.0000 0.20140  0.15420  0.79122  Biso   1.000  C
  C34      1.0000 0.31090  0.14040  0.80122  Biso   1.000  C
  C35      1.0000 0.38430  0.05430  0.66267  Biso   1.000  C
  C36      1.0000 0.39850  0.21920  0.71213  Biso   1.000  C
  C37      1.0000 0.81550  0.32926  0.89422  Biso   1.000  C
  C38      1.0000 0.84746  0.42984  0.90900  Biso   1.000  C
  C39      1.0000 0.81579  0.48162  0.85976  Biso   1.000  C
  C40      1.0000 0.75262  0.43345  0.79525  Biso   1.000  C
  C41      1.0000 0.72560  0.33081  0.77713  Biso   1.000  C
  C42      1.0000 0.75751  0.27953  0.82704  Biso   1.000  C
  C43      1.0000 0.84670  0.27430  0.94939  Biso   1.000  C
  C44      1.0000 0.85000  0.59080  0.87720  Biso   1.000  C
  C45      1.0000 0.66670  0.27401  0.70327  Biso   1.000  C
  C46      1.0000 0.61010  0.77232  0.57528  Biso   1.000  C
  C47      1.0000 0.62490  0.93800  0.62421  Biso   1.000  C
  C48      1.0000 0.70140  0.84580  0.70878  Biso   1.000  C
  C49      1.0000 0.81090  0.85960  0.69878  Biso   1.000  C
  C50      1.0000 0.88430  0.94570  0.83733  Biso   1.000  C
  C51      1.0000 0.89850  0.78080  0.78787  Biso   1.000  C
  C52      1.0000 0.31550  0.67074  0.60578  Biso   1.000  C
  C53      1.0000 0.34746  0.57016  0.59100  Biso   1.000  C
  C54      1.0000 0.31579  0.51838  0.64024  Biso   1.000  C
  C55      1.0000 0.25262  0.56655  0.70475  Biso   1.000  C
  C56      1.0000 0.22560  0.66919  0.72287  Biso   1.000  C
  C57      1.0000 0.25751  0.72047  0.67296  Biso   1.000  C
  C58      1.0000 0.34670  0.72570  0.55061  Biso   1.000  C
  C59      1.0000 0.35000  0.40920  0.62280  Biso   1.000  C
  C60      1.0000 0.16670  0.72599  0.79673  Biso   1.000  C
  N1       1.0000 0.93311  0.80803  0.02523  Biso   1.000  N
  N2       1.0000 0.92351  0.91410  0.05636  Biso   1.000  N
  N3       1.0000 0.85230  0.85162  0.13856  Biso   1.000  N
  N4       1.0000 0.63688  0.86191  0.27174  Biso   1.000  N
  N5       1.0000 0.56955  0.91876  0.39115  Biso   1.000  N
  N6       1.0000 0.56040  0.81278  0.35916  Biso   1.000  N
  N7       1.0000 0.43311  0.19197  0.47477  Biso   1.000  N
  N8       1.0000 0.42351  0.08590  0.44364  Biso   1.000  N
  N9       1.0000 0.35230  0.14838  0.36144  Biso   1.000  N
  N10      1.0000 0.13688  0.13809  0.22826  Biso   1.000  N
  N11      1.0000 0.06955  0.08124  0.10885  Biso   1.000  N
  N12      1.0000 0.06040  0.18722  0.14084  Biso   1.000  N
  N13      1.0000 0.06689  0.19197  0.97477  Biso   1.000  N
  N14      1.0000 0.07649  0.08590  0.94364  Biso   1.000  N
  N15      1.0000 0.14770  0.14838  0.86144  Biso   1.000  N
  N16      1.0000 0.36312  0.13809  0.72826  Biso   1.000  N
  N17      1.0000 0.43045  0.08124  0.60885  Biso   1.000  N
  N18      1.0000 0.43960  0.18722  0.64084  Biso   1.000  N
  N19      1.0000 0.56689  0.80803  0.52523  Biso   1.000  N
  N20      1.0000 0.57649  0.91410  0.55636  Biso   1.000  N
  N21      1.0000 0.64770  0.85162  0.63856  Biso   1.000  N
  N22      1.0000 0.86312  0.86191  0.77174  Biso   1.000  N
  N23      1.0000 0.93045  0.91876  0.89115  Biso   1.000  N
  N24      1.0000 0.93960  0.81278  0.85916  Biso   1.000  N
  O1       1.0000 0.09969  0.87970  0.96622  Biso   1.000  O
  O2       1.0000 0.10222  0.67667  0.99008  Biso   1.000  O
  O3       1.0000 0.18025  0.81893  0.06966  Biso   1.000  O
  O4       1.0000 0.05855  0.39436  0.11238  Biso   1.000  O
  O5       1.0000 0.21264  0.34275  0.11870  Biso   1.000  O
  O6       1.0000 0.39064  0.67573  0.32428  Biso   1.000  O
  O7       1.0000 0.31960  0.82299  0.32810  Biso   1.000  O
  O8       1.0000 0.59969  0.12030  0.53378  Biso   1.000  O
  O9       1.0000 0.60222  0.32333  0.50992  Biso   1.000  O
  O10      1.0000 0.68025  0.18107  0.43034  Biso   1.000  O
  O11      1.0000 0.55855  0.60564  0.38762  Biso   1.000  O
  O12      1.0000 0.71264  0.65725  0.38130  Biso   1.000  O
  O13      1.0000 0.89064  0.32427  0.17572  Biso   1.000  O
  O14      1.0000 0.81960  0.17701  0.17190  Biso   1.000  O
  O15      1.0000 0.90031  0.12030  0.03378  Biso   1.000  O
  O16      1.0000 0.89778  0.32333  0.00992  Biso   1.000  O
  O17      1.0000 0.81975  0.18107  0.93034  Biso   1.000  O
  O18      1.0000 0.94145  0.60564  0.88762  Biso   1.000  O
  O19      1.0000 0.78736  0.65725  0.88130  Biso   1.000  O
  O20      1.0000 0.60936  0.32427  0.67572  Biso   1.000  O
  O21      1.0000 0.68040  0.17701  0.67190  Biso   1.000  O
  O22      1.0000 0.40031  0.87970  0.46622  Biso   1.000  O
  O23      1.0000 0.39778  0.67667  0.49008  Biso   1.000  O
  O24      1.0000 0.31975  0.81893  0.56966  Biso   1.000  O
  O25      1.0000 0.44145  0.39436  0.61238  Biso   1.000  O
  O26      1.0000 0.28736  0.34275  0.61870  Biso   1.000  O
  O27      1.0000 0.10936  0.67573  0.82428  Biso   1.000  O
  O28      1.0000 0.18040  0.82299  0.82810  Biso   1.000  O
