data_LODPUR_freeONLY
_audit_creation_date              2015-10-16
_audit_creation_method            'Materials Studio'
_symmetry_space_group_name_H-M    'P1'
_symmetry_Int_Tables_number       1
_symmetry_cell_setting            triclinic
loop_
_symmetry_equiv_pos_as_xyz
  x,y,z
_cell_length_a                    7.8005
_cell_length_b                    11.2947
_cell_length_c                    13.1552
_cell_angle_alpha                 82.7190
_cell_angle_beta                  80.4990
_cell_angle_gamma                 83.1940
loop_
_atom_site_label
_atom_site_type_symbol
_atom_site_fract_x
_atom_site_fract_y
_atom_site_fract_z
_atom_site_U_iso_or_equiv
_atom_site_adp_type
_atom_site_occupancy
Zn1    Zn    0.71638   0.76470   0.73578   0.01267  Uiso   1.00
Zn2    Zn    0.28362   0.23530   0.26422   0.01267  Uiso   1.00
H1     H     0.75220   0.11460   0.56650   0.01267  Uiso   1.00
H2     H     0.28220   0.52080   0.20970   0.01267  Uiso   1.00
H3     H     0.34400   0.46520   0.66390   0.01267  Uiso   1.00
H4     H     0.52900   0.61400   0.12140   0.01267  Uiso   1.00
H5     H     0.12370   0.90570   0.85540   0.01267  Uiso   1.00
H6     H     0.87630   0.09430   0.14460   0.01267  Uiso   1.00
H7     H     0.52860   0.02090   0.75720   0.01267  Uiso   1.00
H8     H     0.47140   0.97910   0.24280   0.01267  Uiso   1.00
H9     H     0.71780   0.47920   0.79030   0.01267  Uiso   1.00
H10    H     0.62770   0.37860   0.62770   0.01267  Uiso   1.00
H11    H     0.29910   0.98680   0.94790   0.01267  Uiso   1.00
H12    H     0.95610   0.31640   0.09430   0.01267  Uiso   1.00
H13    H     0.78900   0.72240   0.49780   0.01267  Uiso   1.00
H14    H     0.70090   0.01320   0.05210   0.01267  Uiso   1.00
H15    H     0.65200   0.26940   0.12860   0.01267  Uiso   1.00
H16    H     0.42560   0.79330   0.57970   0.01267  Uiso   1.00
H17    H     0.21100   0.27760   0.50220   0.01267  Uiso   1.00
H18    H     0.06060   0.63890   0.41240   0.01267  Uiso   1.00
H19    H     0.10190   0.62680   0.70370   0.01267  Uiso   1.00
H20    H     0.04390   0.68360   0.90570   0.01267  Uiso   1.00
H21    H     0.24780   0.88540   0.43350   0.01267  Uiso   1.00
H22    H     0.57440   0.20670   0.42030   0.01267  Uiso   1.00
H23    H     0.98660   0.08080   0.65450   0.01267  Uiso   1.00
H24    H     0.34800   0.73060   0.87140   0.01267  Uiso   1.00
H25    H     0.23130   0.35280   0.01080   0.01267  Uiso   1.00
H26    H     0.37230   0.62140   0.37230   0.01267  Uiso   1.00
H27    H     0.65600   0.53480   0.33610   0.01267  Uiso   1.00
H28    H     0.89810   0.37320   0.29630   0.01267  Uiso   1.00
H29    H     0.47100   0.38600   0.87860   0.01267  Uiso   1.00
H30    H     0.76870   0.64720   0.98920   0.01267  Uiso   1.00
H31    H     0.01340   0.91920   0.34550   0.01267  Uiso   1.00
H32    H     0.93940   0.36110   0.58760   0.01267  Uiso   1.00
C1     C     0.92630   0.05690   0.08610   0.01267  Uiso   1.00
C2     C     0.67150   0.44580   0.47720   0.01267  Uiso   1.00
C3     C     0.02670   0.60950   0.94360   0.01267  Uiso   1.00
C4     C     0.17870   0.99270   0.96860   0.01267  Uiso   1.00
C5     C     0.40830   0.65560   0.86270   0.01267  Uiso   1.00
C6     C     0.14930   0.61120   0.54930   0.01267  Uiso   1.00
C7     C     0.14780   0.93140   0.46050   0.01267  Uiso   1.00
C8     C     0.89510   0.94850   0.94520   0.01267  Uiso   1.00
C9     C     0.88650   0.69280   0.52870   0.01267  Uiso   1.00
C10    C     0.86120   0.58770   0.99380   0.01267  Uiso   1.00
C11    C     0.85220   0.06860   0.53950   0.01267  Uiso   1.00
C12    C     0.14290   0.97820   0.55380   0.01267  Uiso   1.00
C13    C     0.34190   0.54850   0.89550   0.01267  Uiso   1.00
C14    C     0.85070   0.38880   0.45070   0.01267  Uiso   1.00
C15    C     0.97330   0.39050   0.05640   0.01267  Uiso   1.00
C16    C     0.16840   0.52210   0.94890   0.01267  Uiso   1.00
C17    C     0.13880   0.41230   0.00620   0.01267  Uiso   1.00
C18    C     0.10490   0.05150   0.05480   0.01267  Uiso   1.00
C19    C     0.52410   0.01460   0.28810   0.01267  Uiso   1.00
C20    C     0.94110   0.36000   0.35900   0.01267  Uiso   1.00
C21    C     0.59170   0.34440   0.13730   0.01267  Uiso   1.00
C22    C     0.41880   0.86100   0.61430   0.01267  Uiso   1.00
C23    C     0.99220   0.04810   0.59250   0.01267  Uiso   1.00
C24    C     0.40640   0.48000   0.59770   0.01267  Uiso   1.00
C25    C     0.78050   0.89000   0.88970   0.01267  Uiso   1.00
C26    C     0.61210   0.51830   0.81820   0.01267  Uiso   1.00
C27    C     0.42310   0.57300   0.42420   0.01267  Uiso   1.00
C28    C     0.11350   0.30720   0.47130   0.01267  Uiso   1.00
C29    C     0.83160   0.47790   0.05110   0.01267  Uiso   1.00
C30    C     0.47590   0.98540   0.71190   0.01267  Uiso   1.00
C31    C     0.32850   0.55420   0.52280   0.01267  Uiso   1.00
C32    C     0.29390   0.95550   0.60910   0.01267  Uiso   1.00
C33    C     0.82130   0.00730   0.03140   0.01267  Uiso   1.00
C34    C     0.65810   0.45150   0.10450   0.01267  Uiso   1.00
C35    C     0.59360   0.52000   0.40230   0.01267  Uiso   1.00
C36    C     0.57690   0.42700   0.57580   0.01267  Uiso   1.00
C37    C     0.58120   0.13900   0.38570   0.01267  Uiso   1.00
C38    C     0.07370   0.94310   0.91390   0.01267  Uiso   1.00
C39    C     0.38790   0.48170   0.18180   0.01267  Uiso   1.00
C40    C     0.00780   0.95190   0.40750   0.01267  Uiso   1.00
C41    C     0.70610   0.04450   0.39090   0.01267  Uiso   1.00
C42    C     0.21950   0.11000   0.11030   0.01267  Uiso   1.00
C43    C     0.05890   0.64000   0.64100   0.01267  Uiso   1.00
C44    C     0.85710   0.02180   0.44620   0.01267  Uiso   1.00
N1     N     0.96230   0.35410   0.52220   0.01267  Uiso   1.00
N2     N     0.42090   0.36430   0.18560   0.01267  Uiso   1.00
N3     N     0.52490   0.53770   0.13290   0.01267  Uiso   1.00
N4     N     0.53360   0.88010   0.67800   0.01267  Uiso   1.00
N5     N     0.89380   0.69160   0.62820   0.01267  Uiso   1.00
N6     N     0.33240   0.03450   0.67280   0.01267  Uiso   1.00
N7     N     0.10620   0.30840   0.37180   0.01267  Uiso   1.00
N8     N     0.57910   0.63570   0.81440   0.01267  Uiso   1.00
N9     N     0.47510   0.46230   0.86710   0.01267  Uiso   1.00
N10    N     0.03770   0.64590   0.47780   0.01267  Uiso   1.00
N11    N     0.46640   0.11990   0.32200   0.01267  Uiso   1.00
N12    N     0.66760   0.96550   0.32720   0.01267  Uiso   1.00
O1     O     0.14330   0.15100   0.19466   0.01267  Uiso   1.00
O2     O     0.62580   0.88130   0.92530   0.01267  Uiso   1.00
O3     O     0.85670   0.84900   0.80534   0.01267  Uiso   1.00
O4     O     0.37420   0.11870   0.07470   0.01267  Uiso   1.00
