data_image0
_cell_length_a       18.658
_cell_length_b       20.089
_cell_length_c       21.137
_cell_angle_alpha    90
_cell_angle_beta     90
_cell_angle_gamma    90

_symmetry_space_group_name_H-M    P 1
_symmetry_int_tables_number       1

loop_
  _symmetry_equiv_pos_as_xyz
  'x, y, z'

loop_
  _atom_site_label
  _atom_site_occupancy
  _atom_site_fract_x
  _atom_site_fract_y
  _atom_site_fract_z
  _atom_site_thermal_displace_type
  _atom_site_B_iso_or_equiv
  _atom_site_type_symbol
  Ni1      1.0000 0.54918  0.14384  0.81094  Biso   1.000  Ni
  Ni2      1.0000 0.21956  0.99255  0.01360  Biso   1.000  Ni
  Ni3      1.0000 0.95082  0.85616  0.31094  Biso   1.000  Ni
  Ni4      1.0000 0.28044  0.00745  0.51360  Biso   1.000  Ni
  Ni5      1.0000 0.45082  0.64384  0.68906  Biso   1.000  Ni
  Ni6      1.0000 0.78044  0.49255  0.48640  Biso   1.000  Ni
  Ni7      1.0000 0.04918  0.35616  0.18906  Biso   1.000  Ni
  Ni8      1.0000 0.71956  0.50745  0.98640  Biso   1.000  Ni
  Mo1      1.0000 0.60955  0.54809  0.72467  Biso   1.000  Mo
  Mo2      1.0000 0.63708  0.44204  0.60055  Biso   1.000  Mo
  Mo3      1.0000 0.68740  0.29288  0.65843  Biso   1.000  Mo
  Mo4      1.0000 0.66984  0.29437  0.81954  Biso   1.000  Mo
  Mo5      1.0000 0.59189  0.44097  0.86202  Biso   1.000  Mo
  Mo6      1.0000 0.89045  0.45191  0.22467  Biso   1.000  Mo
  Mo7      1.0000 0.86292  0.55796  0.10055  Biso   1.000  Mo
  Mo8      1.0000 0.81260  0.70712  0.15843  Biso   1.000  Mo
  Mo9      1.0000 0.83016  0.70563  0.31954  Biso   1.000  Mo
  Mo10     1.0000 0.90811  0.55903  0.36202  Biso   1.000  Mo
  Mo11     1.0000 0.39045  0.04809  0.77533  Biso   1.000  Mo
  Mo12     1.0000 0.36292  0.94204  0.89945  Biso   1.000  Mo
  Mo13     1.0000 0.31260  0.79288  0.84157  Biso   1.000  Mo
  Mo14     1.0000 0.33016  0.79437  0.68046  Biso   1.000  Mo
  Mo15     1.0000 0.40811  0.94097  0.63798  Biso   1.000  Mo
  Mo16     1.0000 0.10955  0.95191  0.27533  Biso   1.000  Mo
  Mo17     1.0000 0.13708  0.05796  0.39945  Biso   1.000  Mo
  Mo18     1.0000 0.18740  0.20712  0.34157  Biso   1.000  Mo
  Mo19     1.0000 0.16984  0.20563  0.18046  Biso   1.000  Mo
  Mo20     1.0000 0.09189  0.05903  0.13798  Biso   1.000  Mo
  P1       1.0000 0.73230  0.43250  0.74499  Biso   1.000  P
  P2       1.0000 0.54100  0.37906  0.72352  Biso   1.000  P
  P3       1.0000 0.76770  0.56750  0.24499  Biso   1.000  P
  P4       1.0000 0.95900  0.62094  0.22352  Biso   1.000  P
  P5       1.0000 0.26770  0.93250  0.75501  Biso   1.000  P
  P6       1.0000 0.45900  0.87906  0.77648  Biso   1.000  P
  P7       1.0000 0.23230  0.06750  0.25501  Biso   1.000  P
  P8       1.0000 0.04100  0.12094  0.27648  Biso   1.000  P
  H1       1.0000 0.58150  0.99450  0.76180  Biso   1.000  H
  H2       1.0000 0.71490  0.14230  0.75010  Biso   1.000  H
  H3       1.0000 0.83720  0.05840  0.74070  Biso   1.000  H
  H4       1.0000 0.81730  0.99760  0.69750  Biso   1.000  H
  H5       1.0000 0.87100  0.89990  0.73410  Biso   1.000  H
  H6       1.0000 0.93510  0.85170  0.82460  Biso   1.000  H
  H7       1.0000 0.86010  0.00790  0.93320  Biso   1.000  H
  H8       1.0000 0.79330  0.04490  0.85160  Biso   1.000  H
  H9       1.0000 0.94870  0.84850  0.93870  Biso   1.000  H
  H10      1.0000 0.92840  0.91090  0.98000  Biso   1.000  H
  H11      1.0000 0.04550  0.97200  0.01750  Biso   1.000  H
  H12      1.0000 0.17370  0.91380  0.88460  Biso   1.000  H
  H13      1.0000 0.67800  0.34980  0.97090  Biso   1.000  H
  H14      1.0000 0.73770  0.43770  0.12390  Biso   1.000  H
  H15      1.0000 0.72560  0.21650  0.06820  Biso   1.000  H
  H16      1.0000 0.68620  0.22920  0.00380  Biso   1.000  H
  H17      1.0000 0.57050  0.20390  0.99140  Biso   1.000  H
  H18      1.0000 0.45930  0.17120  0.03290  Biso   1.000  H
  H19      1.0000 0.52830  0.18690  0.20570  Biso   1.000  H
  H20      1.0000 0.64140  0.22530  0.17060  Biso   1.000  H
  H21      1.0000 0.42810  0.12690  0.19110  Biso   1.000  H
  H22      1.0000 0.38510  0.17930  0.15180  Biso   1.000  H
  H23      1.0000 0.28670  0.12120  0.08660  Biso   1.000  H
  H24      1.0000 0.38170  0.95240  0.06900  Biso   1.000  H
  H25      1.0000 0.68450  0.14250  0.90540  Biso   1.000  H
  H26      1.0000 0.52260  0.02710  0.91540  Biso   1.000  H
  H27      1.0000 0.61900  0.98480  0.05040  Biso   1.000  H
  H28      1.0000 0.55810  0.95290  0.00890  Biso   1.000  H
  H29      1.0000 0.62040  0.91440  0.89930  Biso   1.000  H
  H30      1.0000 0.69740  0.83970  0.86290  Biso   1.000  H
  H31      1.0000 0.78670  0.82010  0.03250  Biso   1.000  H
  H32      1.0000 0.71610  0.90200  0.06480  Biso   1.000  H
  H33      1.0000 0.83390  0.77190  0.88440  Biso   1.000  H
  H34      1.0000 0.84560  0.75830  0.95690  Biso   1.000  H
  H35      1.0000 0.69940  0.58790  0.84990  Biso   1.000  H
  H36      1.0000 0.76570  0.65820  0.00660  Biso   1.000  H
  H37      1.0000 0.40790  0.12720  0.90400  Biso   1.000  H
  H38      1.0000 0.49590  0.28980  0.84980  Biso   1.000  H
  H39      1.0000 0.34250  0.34600  0.93740  Biso   1.000  H
  H40      1.0000 0.41800  0.37370  0.91790  Biso   1.000  H
  H41      1.0000 0.32250  0.30530  0.04520  Biso   1.000  H
  H42      1.0000 0.35160  0.31220  0.15110  Biso   1.000  H
  H43      1.0000 0.54750  0.37800  0.10370  Biso   1.000  H
  H44      1.0000 0.51280  0.37950  0.99720  Biso   1.000  H
  H45      1.0000 0.42300  0.39440  0.22340  Biso   1.000  H
  H46      1.0000 0.45660  0.32330  0.23180  Biso   1.000  H
  H47      1.0000 0.68560  0.40480  0.24970  Biso   1.000  H
  H48      1.0000 0.51280  0.49570  0.20520  Biso   1.000  H
  H49      1.0000 0.62940  0.51010  0.24060  Biso   1.000  H
  H50      1.0000 0.91850  0.00550  0.26180  Biso   1.000  H
  H51      1.0000 0.78510  0.85770  0.25010  Biso   1.000  H
  H52      1.0000 0.66280  0.94160  0.24070  Biso   1.000  H
  H53      1.0000 0.68270  0.00240  0.19750  Biso   1.000  H
  H54      1.0000 0.62900  0.10010  0.23410  Biso   1.000  H
  H55      1.0000 0.56490  0.14830  0.32460  Biso   1.000  H
  H56      1.0000 0.63990  0.99210  0.43320  Biso   1.000  H
  H57      1.0000 0.70670  0.95510  0.35160  Biso   1.000  H
  H58      1.0000 0.55130  0.15150  0.43870  Biso   1.000  H
  H59      1.0000 0.57160  0.08910  0.48000  Biso   1.000  H
  H60      1.0000 0.45450  0.02800  0.51750  Biso   1.000  H
  H61      1.0000 0.32630  0.08620  0.38460  Biso   1.000  H
  H62      1.0000 0.82200  0.65020  0.47090  Biso   1.000  H
  H63      1.0000 0.76230  0.56230  0.62390  Biso   1.000  H
  H64      1.0000 0.77440  0.78350  0.56820  Biso   1.000  H
  H65      1.0000 0.81380  0.77080  0.50380  Biso   1.000  H
  H66      1.0000 0.92950  0.79610  0.49140  Biso   1.000  H
  H67      1.0000 0.04070  0.82880  0.53290  Biso   1.000  H
  H68      1.0000 0.97170  0.81310  0.70570  Biso   1.000  H
  H69      1.0000 0.85860  0.77470  0.67060  Biso   1.000  H
  H70      1.0000 0.07190  0.87310  0.69110  Biso   1.000  H
  H71      1.0000 0.11490  0.82070  0.65180  Biso   1.000  H
  H72      1.0000 0.21330  0.87880  0.58660  Biso   1.000  H
  H73      1.0000 0.11830  0.04760  0.56900  Biso   1.000  H
  H74      1.0000 0.81550  0.85750  0.40540  Biso   1.000  H
  H75      1.0000 0.97740  0.97290  0.41540  Biso   1.000  H
  H76      1.0000 0.88100  0.01520  0.55040  Biso   1.000  H
  H77      1.0000 0.94190  0.04710  0.50890  Biso   1.000  H
  H78      1.0000 0.87960  0.08560  0.39930  Biso   1.000  H
  H79      1.0000 0.80260  0.16030  0.36290  Biso   1.000  H
  H80      1.0000 0.71330  0.17990  0.53250  Biso   1.000  H
  H81      1.0000 0.78390  0.09800  0.56480  Biso   1.000  H
  H82      1.0000 0.66610  0.22810  0.38440  Biso   1.000  H
  H83      1.0000 0.65440  0.24170  0.45690  Biso   1.000  H
  H84      1.0000 0.80060  0.41210  0.34990  Biso   1.000  H
  H85      1.0000 0.73430  0.34180  0.50660  Biso   1.000  H
  H86      1.0000 0.09210  0.87280  0.40400  Biso   1.000  H
  H87      1.0000 0.00410  0.71020  0.34980  Biso   1.000  H
  H88      1.0000 0.15750  0.65400  0.43740  Biso   1.000  H
  H89      1.0000 0.08200  0.62630  0.41790  Biso   1.000  H
  H90      1.0000 0.17750  0.69470  0.54520  Biso   1.000  H
  H91      1.0000 0.14840  0.68780  0.65110  Biso   1.000  H
  H92      1.0000 0.95250  0.62200  0.60370  Biso   1.000  H
  H93      1.0000 0.98720  0.62050  0.49720  Biso   1.000  H
  H94      1.0000 0.07700  0.60560  0.72340  Biso   1.000  H
  H95      1.0000 0.04340  0.67670  0.73180  Biso   1.000  H
  H96      1.0000 0.81440  0.59520  0.74970  Biso   1.000  H
  H97      1.0000 0.98720  0.50430  0.70520  Biso   1.000  H
  H98      1.0000 0.87060  0.48990  0.74060  Biso   1.000  H
  H99      1.0000 0.41850  0.49450  0.73820  Biso   1.000  H
  H100     1.0000 0.28510  0.64230  0.74990  Biso   1.000  H
  H101     1.0000 0.16280  0.55840  0.75930  Biso   1.000  H
  H102     1.0000 0.18270  0.49760  0.80250  Biso   1.000  H
  H103     1.0000 0.12900  0.39990  0.76590  Biso   1.000  H
  H104     1.0000 0.06490  0.35170  0.67540  Biso   1.000  H
  H105     1.0000 0.13990  0.50790  0.56680  Biso   1.000  H
  H106     1.0000 0.20670  0.54490  0.64840  Biso   1.000  H
  H107     1.0000 0.05130  0.34850  0.56130  Biso   1.000  H
  H108     1.0000 0.07160  0.41090  0.52000  Biso   1.000  H
  H109     1.0000 0.95450  0.47200  0.48250  Biso   1.000  H
  H110     1.0000 0.82630  0.41380  0.61540  Biso   1.000  H
  H111     1.0000 0.32200  0.84980  0.52910  Biso   1.000  H
  H112     1.0000 0.26230  0.93770  0.37610  Biso   1.000  H
  H113     1.0000 0.27440  0.71650  0.43180  Biso   1.000  H
  H114     1.0000 0.31380  0.72920  0.49620  Biso   1.000  H
  H115     1.0000 0.42950  0.70390  0.50860  Biso   1.000  H
  H116     1.0000 0.54070  0.67120  0.46710  Biso   1.000  H
  H117     1.0000 0.47170  0.68690  0.29430  Biso   1.000  H
  H118     1.0000 0.35860  0.72530  0.32940  Biso   1.000  H
  H119     1.0000 0.57190  0.62690  0.30890  Biso   1.000  H
  H120     1.0000 0.61490  0.67930  0.34820  Biso   1.000  H
  H121     1.0000 0.71330  0.62120  0.41340  Biso   1.000  H
  H122     1.0000 0.61830  0.45240  0.43100  Biso   1.000  H
  H123     1.0000 0.31550  0.64250  0.59460  Biso   1.000  H
  H124     1.0000 0.47740  0.52710  0.58460  Biso   1.000  H
  H125     1.0000 0.38100  0.48480  0.44960  Biso   1.000  H
  H126     1.0000 0.44190  0.45290  0.49110  Biso   1.000  H
  H127     1.0000 0.37960  0.41440  0.60070  Biso   1.000  H
  H128     1.0000 0.30260  0.33970  0.63710  Biso   1.000  H
  H129     1.0000 0.21330  0.32010  0.46750  Biso   1.000  H
  H130     1.0000 0.28390  0.40200  0.43520  Biso   1.000  H
  H131     1.0000 0.16610  0.27190  0.61560  Biso   1.000  H
  H132     1.0000 0.15440  0.25830  0.54310  Biso   1.000  H
  H133     1.0000 0.30060  0.08790  0.65010  Biso   1.000  H
  H134     1.0000 0.23430  0.15820  0.49340  Biso   1.000  H
  H135     1.0000 0.59210  0.62720  0.59600  Biso   1.000  H
  H136     1.0000 0.50410  0.78980  0.65020  Biso   1.000  H
  H137     1.0000 0.65750  0.84600  0.56260  Biso   1.000  H
  H138     1.0000 0.58200  0.87370  0.58210  Biso   1.000  H
  H139     1.0000 0.67750  0.80530  0.45480  Biso   1.000  H
  H140     1.0000 0.64840  0.81220  0.34890  Biso   1.000  H
  H141     1.0000 0.45250  0.87800  0.39630  Biso   1.000  H
  H142     1.0000 0.48720  0.87950  0.50280  Biso   1.000  H
  H143     1.0000 0.57700  0.89440  0.27660  Biso   1.000  H
  H144     1.0000 0.54340  0.82330  0.26820  Biso   1.000  H
  H145     1.0000 0.31440  0.90480  0.25030  Biso   1.000  H
  H146     1.0000 0.48720  0.99570  0.29480  Biso   1.000  H
  H147     1.0000 0.37060  0.01010  0.25940  Biso   1.000  H
  H148     1.0000 0.08150  0.50550  0.23820  Biso   1.000  H
  H149     1.0000 0.21490  0.35770  0.24990  Biso   1.000  H
  H150     1.0000 0.33720  0.44160  0.25930  Biso   1.000  H
  H151     1.0000 0.31730  0.50240  0.30250  Biso   1.000  H
  H152     1.0000 0.37100  0.60010  0.26590  Biso   1.000  H
  H153     1.0000 0.43510  0.64830  0.17540  Biso   1.000  H
  H154     1.0000 0.36010  0.49210  0.06680  Biso   1.000  H
  H155     1.0000 0.29330  0.45510  0.14840  Biso   1.000  H
  H156     1.0000 0.44870  0.65150  0.06130  Biso   1.000  H
  H157     1.0000 0.42840  0.58910  0.02000  Biso   1.000  H
  H158     1.0000 0.54550  0.52800  0.98250  Biso   1.000  H
  H159     1.0000 0.67370  0.58620  0.11540  Biso   1.000  H
  H160     1.0000 0.17800  0.15020  0.02910  Biso   1.000  H
  H161     1.0000 0.23770  0.06230  0.87610  Biso   1.000  H
  H162     1.0000 0.22560  0.28350  0.93180  Biso   1.000  H
  H163     1.0000 0.18620  0.27080  0.99620  Biso   1.000  H
  H164     1.0000 0.07050  0.29610  0.00860  Biso   1.000  H
  H165     1.0000 0.95930  0.32880  0.96710  Biso   1.000  H
  H166     1.0000 0.02830  0.31310  0.79430  Biso   1.000  H
  H167     1.0000 0.14140  0.27470  0.82940  Biso   1.000  H
  H168     1.0000 0.92810  0.37310  0.80890  Biso   1.000  H
  H169     1.0000 0.88510  0.32070  0.84820  Biso   1.000  H
  H170     1.0000 0.78670  0.37880  0.91340  Biso   1.000  H
  H171     1.0000 0.88170  0.54760  0.93100  Biso   1.000  H
  H172     1.0000 0.18450  0.35750  0.09460  Biso   1.000  H
  H173     1.0000 0.02260  0.47290  0.08460  Biso   1.000  H
  H174     1.0000 0.11900  0.51520  0.94960  Biso   1.000  H
  H175     1.0000 0.05810  0.54710  0.99110  Biso   1.000  H
  H176     1.0000 0.12040  0.58560  0.10070  Biso   1.000  H
  H177     1.0000 0.19740  0.66030  0.13710  Biso   1.000  H
  H178     1.0000 0.28670  0.67990  0.96750  Biso   1.000  H
  H179     1.0000 0.21610  0.59800  0.93520  Biso   1.000  H
  H180     1.0000 0.33390  0.72810  0.11560  Biso   1.000  H
  H181     1.0000 0.34560  0.74170  0.04310  Biso   1.000  H
  H182     1.0000 0.19940  0.91210  0.15010  Biso   1.000  H
  H183     1.0000 0.26570  0.84180  0.99340  Biso   1.000  H
  H184     1.0000 0.90790  0.37280  0.09600  Biso   1.000  H
  H185     1.0000 0.99590  0.21020  0.15020  Biso   1.000  H
  H186     1.0000 0.84250  0.15400  0.06260  Biso   1.000  H
  H187     1.0000 0.91800  0.12630  0.08210  Biso   1.000  H
  H188     1.0000 0.82250  0.19470  0.95480  Biso   1.000  H
  H189     1.0000 0.85160  0.18780  0.84890  Biso   1.000  H
  H190     1.0000 0.04750  0.12200  0.89630  Biso   1.000  H
  H191     1.0000 0.01280  0.12050  0.00280  Biso   1.000  H
  H192     1.0000 0.92300  0.10560  0.77660  Biso   1.000  H
  H193     1.0000 0.95660  0.17670  0.76820  Biso   1.000  H
  H194     1.0000 0.18560  0.09520  0.75030  Biso   1.000  H
  H195     1.0000 0.01280  0.00430  0.79480  Biso   1.000  H
  H196     1.0000 0.12940  0.98990  0.75940  Biso   1.000  H
  C1       1.0000 0.62330  0.01870  0.75550  Biso   1.000  C
  C2       1.0000 0.69400  0.10030  0.74970  Biso   1.000  C
  C3       1.0000 0.80650  0.01950  0.73730  Biso   1.000  C
  C4       1.0000 0.82200  0.97530  0.78790  Biso   1.000  C
  C5       1.0000 0.86790  0.91830  0.77440  Biso   1.000  C
  C6       1.0000 0.90940  0.89120  0.82860  Biso   1.000  C
  C7       1.0000 0.90890  0.92580  0.88500  Biso   1.000  C
  C8       1.0000 0.86150  0.98610  0.89440  Biso   1.000  C
  C9       1.0000 0.82190  0.00740  0.84620  Biso   1.000  C
  C10      1.0000 0.95010  0.89670  0.94050  Biso   1.000  C
  C11      1.0000 0.06400  0.95330  0.98080  Biso   1.000  C
  C12      1.0000 0.13220  0.92160  0.90780  Biso   1.000  C
  C13      1.0000 0.69180  0.35830  0.01240  Biso   1.000  C
  C14      1.0000 0.72430  0.40440  0.09570  Biso   1.000  C
  C15      1.0000 0.68580  0.23980  0.04860  Biso   1.000  C
  C16      1.0000 0.61930  0.21580  0.07600  Biso   1.000  C
  C17      1.0000 0.56420  0.20040  0.03490  Biso   1.000  C
  C18      1.0000 0.49700  0.17870  0.06080  Biso   1.000  C
  C19      1.0000 0.48510  0.16860  0.12320  Biso   1.000  C
  C20      1.0000 0.53720  0.18850  0.16250  Biso   1.000  C
  C21      1.0000 0.60650  0.21250  0.14160  Biso   1.000  C
  C22      1.0000 0.41900  0.14290  0.14860  Biso   1.000  C
  C23      1.0000 0.32020  0.08680  0.08710  Biso   1.000  C
  C24      1.0000 0.37370  0.99670  0.07960  Biso   1.000  C
  C25      1.0000 0.65310  0.10890  0.91750  Biso   1.000  C
  C26      1.0000 0.56680  0.04680  0.92340  Biso   1.000  C
  C27      1.0000 0.60660  0.97040  0.00800  Biso   1.000  C
  C28      1.0000 0.65870  0.91600  0.98620  Biso   1.000  C
  C29      1.0000 0.65500  0.89650  0.92600  Biso   1.000  C
  C30      1.0000 0.70200  0.84950  0.90580  Biso   1.000  C
  C31      1.0000 0.75810  0.81100  0.93860  Biso   1.000  C
  C32      1.0000 0.75520  0.83810  0.00300  Biso   1.000  C
  C33      1.0000 0.71100  0.88700  0.02340  Biso   1.000  C
  C34      1.0000 0.80990  0.76090  0.92370  Biso   1.000  C
  C35      1.0000 0.72350  0.61540  0.87810  Biso   1.000  C
  C36      1.0000 0.75780  0.65130  0.96370  Biso   1.000  C
  C37      1.0000 0.41800  0.17240  0.90070  Biso   1.000  C
  C38      1.0000 0.46800  0.25820  0.87050  Biso   1.000  C
  C39      1.0000 0.39380  0.33920  0.94190  Biso   1.000  C
  C40      1.0000 0.41420  0.34450  0.01030  Biso   1.000  C
  C41      1.0000 0.36670  0.32270  0.05700  Biso   1.000  C
  C42      1.0000 0.38440  0.32660  0.12090  Biso   1.000  C
  C43      1.0000 0.45040  0.35180  0.14030  Biso   1.000  C
  C44      1.0000 0.50070  0.36700  0.09270  Biso   1.000  C
  C45      1.0000 0.48040  0.36570  0.02790  Biso   1.000  C
  C46      1.0000 0.46040  0.36480  0.20860  Biso   1.000  C
  C47      1.0000 0.63700  0.41220  0.24280  Biso   1.000  C
  C48      1.0000 0.54530  0.46320  0.21780  Biso   1.000  C
  C49      1.0000 0.87670  0.98130  0.25550  Biso   1.000  C
  C50      1.0000 0.80600  0.89970  0.24970  Biso   1.000  C
  C51      1.0000 0.69350  0.98050  0.23730  Biso   1.000  C
  C52      1.0000 0.67800  0.02470  0.28790  Biso   1.000  C
  C53      1.0000 0.63210  0.08170  0.27440  Biso   1.000  C
  C54      1.0000 0.59060  0.10880  0.32860  Biso   1.000  C
  C55      1.0000 0.59110  0.07420  0.38500  Biso   1.000  C
  C56      1.0000 0.63850  0.01390  0.39440  Biso   1.000  C
  C57      1.0000 0.67810  0.99260  0.34620  Biso   1.000  C
  C58      1.0000 0.54990  0.10330  0.44050  Biso   1.000  C
  C59      1.0000 0.43600  0.04670  0.48080  Biso   1.000  C
  C60      1.0000 0.36780  0.07840  0.40780  Biso   1.000  C
  C61      1.0000 0.80820  0.64170  0.51240  Biso   1.000  C
  C62      1.0000 0.77570  0.59560  0.59570  Biso   1.000  C
  C63      1.0000 0.81420  0.76020  0.54860  Biso   1.000  C
  C64      1.0000 0.88070  0.78420  0.57600  Biso   1.000  C
  C65      1.0000 0.93580  0.79960  0.53490  Biso   1.000  C
  C66      1.0000 0.00300  0.82130  0.56080  Biso   1.000  C
  C67      1.0000 0.01490  0.83140  0.62320  Biso   1.000  C
  C68      1.0000 0.96280  0.81150  0.66250  Biso   1.000  C
  C69      1.0000 0.89350  0.78750  0.64160  Biso   1.000  C
  C70      1.0000 0.08100  0.85710  0.64860  Biso   1.000  C
  C71      1.0000 0.17980  0.91320  0.58710  Biso   1.000  C
  C72      1.0000 0.12630  0.00330  0.57960  Biso   1.000  C
  C73      1.0000 0.84690  0.89110  0.41750  Biso   1.000  C
  C74      1.0000 0.93320  0.95320  0.42340  Biso   1.000  C
  C75      1.0000 0.89340  0.02960  0.50800  Biso   1.000  C
  C76      1.0000 0.84130  0.08400  0.48620  Biso   1.000  C
  C77      1.0000 0.84500  0.10350  0.42600  Biso   1.000  C
  C78      1.0000 0.79800  0.15050  0.40580  Biso   1.000  C
  C79      1.0000 0.74190  0.18900  0.43860  Biso   1.000  C
  C80      1.0000 0.74480  0.16190  0.50300  Biso   1.000  C
  C81      1.0000 0.78900  0.11300  0.52340  Biso   1.000  C
  C82      1.0000 0.69010  0.23910  0.42370  Biso   1.000  C
  C83      1.0000 0.77650  0.38460  0.37810  Biso   1.000  C
  C84      1.0000 0.74220  0.34870  0.46370  Biso   1.000  C
  C85      1.0000 0.08200  0.82760  0.40070  Biso   1.000  C
  C86      1.0000 0.03200  0.74180  0.37050  Biso   1.000  C
  C87      1.0000 0.10620  0.66080  0.44190  Biso   1.000  C
  C88      1.0000 0.08580  0.65550  0.51030  Biso   1.000  C
  C89      1.0000 0.13330  0.67730  0.55700  Biso   1.000  C
  C90      1.0000 0.11560  0.67340  0.62090  Biso   1.000  C
  C91      1.0000 0.04960  0.64820  0.64030  Biso   1.000  C
  C92      1.0000 0.99930  0.63300  0.59270  Biso   1.000  C
  C93      1.0000 0.01960  0.63430  0.52790  Biso   1.000  C
  C94      1.0000 0.03960  0.63520  0.70860  Biso   1.000  C
  C95      1.0000 0.86300  0.58780  0.74280  Biso   1.000  C
  C96      1.0000 0.95470  0.53680  0.71780  Biso   1.000  C
  C97      1.0000 0.37670  0.51870  0.74450  Biso   1.000  C
  C98      1.0000 0.30600  0.60030  0.75030  Biso   1.000  C
  C99      1.0000 0.19350  0.51950  0.76270  Biso   1.000  C
  C100     1.0000 0.17800  0.47530  0.71210  Biso   1.000  C
  C101     1.0000 0.13210  0.41830  0.72560  Biso   1.000  C
  C102     1.0000 0.09060  0.39120  0.67140  Biso   1.000  C
  C103     1.0000 0.09110  0.42580  0.61500  Biso   1.000  C
  C104     1.0000 0.13850  0.48610  0.60560  Biso   1.000  C
  C105     1.0000 0.17810  0.50740  0.65380  Biso   1.000  C
  C106     1.0000 0.04990  0.39670  0.55950  Biso   1.000  C
  C107     1.0000 0.93600  0.45330  0.51920  Biso   1.000  C
  C108     1.0000 0.86780  0.42160  0.59220  Biso   1.000  C
  C109     1.0000 0.30820  0.85830  0.48760  Biso   1.000  C
  C110     1.0000 0.27570  0.90440  0.40430  Biso   1.000  C
  C111     1.0000 0.31420  0.73980  0.45140  Biso   1.000  C
  C112     1.0000 0.38070  0.71580  0.42400  Biso   1.000  C
  C113     1.0000 0.43580  0.70040  0.46510  Biso   1.000  C
  C114     1.0000 0.50300  0.67870  0.43920  Biso   1.000  C
  C115     1.0000 0.51490  0.66860  0.37680  Biso   1.000  C
  C116     1.0000 0.46280  0.68850  0.33750  Biso   1.000  C
  C117     1.0000 0.39350  0.71250  0.35840  Biso   1.000  C
  C118     1.0000 0.58100  0.64290  0.35140  Biso   1.000  C
  C119     1.0000 0.67980  0.58680  0.41290  Biso   1.000  C
  C120     1.0000 0.62630  0.49670  0.42040  Biso   1.000  C
  C121     1.0000 0.34690  0.60890  0.58250  Biso   1.000  C
  C122     1.0000 0.43320  0.54680  0.57660  Biso   1.000  C
  C123     1.0000 0.39340  0.47040  0.49200  Biso   1.000  C
  C124     1.0000 0.34130  0.41600  0.51380  Biso   1.000  C
  C125     1.0000 0.34500  0.39650  0.57400  Biso   1.000  C
  C126     1.0000 0.29800  0.34950  0.59420  Biso   1.000  C
  C127     1.0000 0.24190  0.31100  0.56140  Biso   1.000  C
  C128     1.0000 0.24480  0.33810  0.49700  Biso   1.000  C
  C129     1.0000 0.28900  0.38700  0.47660  Biso   1.000  C
  C130     1.0000 0.19010  0.26090  0.57630  Biso   1.000  C
  C131     1.0000 0.27650  0.11540  0.62190  Biso   1.000  C
  C132     1.0000 0.24220  0.15130  0.53630  Biso   1.000  C
  C133     1.0000 0.58200  0.67240  0.59930  Biso   1.000  C
  C134     1.0000 0.53200  0.75820  0.62950  Biso   1.000  C
  C135     1.0000 0.60620  0.83920  0.55810  Biso   1.000  C
  C136     1.0000 0.58580  0.84450  0.48970  Biso   1.000  C
  C137     1.0000 0.63330  0.82270  0.44300  Biso   1.000  C
  C138     1.0000 0.61560  0.82660  0.37910  Biso   1.000  C
  C139     1.0000 0.54960  0.85180  0.35970  Biso   1.000  C
  C140     1.0000 0.49930  0.86700  0.40730  Biso   1.000  C
  C141     1.0000 0.51960  0.86570  0.47210  Biso   1.000  C
  C142     1.0000 0.53960  0.86480  0.29140  Biso   1.000  C
  C143     1.0000 0.36300  0.91220  0.25720  Biso   1.000  C
  C144     1.0000 0.45470  0.96320  0.28220  Biso   1.000  C
  C145     1.0000 0.12330  0.48130  0.24450  Biso   1.000  C
  C146     1.0000 0.19400  0.39970  0.25030  Biso   1.000  C
  C147     1.0000 0.30650  0.48050  0.26270  Biso   1.000  C
  C148     1.0000 0.32200  0.52470  0.21210  Biso   1.000  C
  C149     1.0000 0.36790  0.58170  0.22560  Biso   1.000  C
  C150     1.0000 0.40940  0.60880  0.17140  Biso   1.000  C
  C151     1.0000 0.40890  0.57420  0.11500  Biso   1.000  C
  C152     1.0000 0.36150  0.51390  0.10560  Biso   1.000  C
  C153     1.0000 0.32190  0.49260  0.15380  Biso   1.000  C
  C154     1.0000 0.45010  0.60330  0.05950  Biso   1.000  C
  C155     1.0000 0.56400  0.54670  0.01920  Biso   1.000  C
  C156     1.0000 0.63220  0.57840  0.09220  Biso   1.000  C
  C157     1.0000 0.19180  0.14170  0.98760  Biso   1.000  C
  C158     1.0000 0.22430  0.09560  0.90430  Biso   1.000  C
  C159     1.0000 0.18580  0.26020  0.95140  Biso   1.000  C
  C160     1.0000 0.11930  0.28420  0.92400  Biso   1.000  C
  C161     1.0000 0.06420  0.29960  0.96510  Biso   1.000  C
  C162     1.0000 0.99700  0.32130  0.93920  Biso   1.000  C
  C163     1.0000 0.98510  0.33140  0.87680  Biso   1.000  C
  C164     1.0000 0.03720  0.31150  0.83750  Biso   1.000  C
  C165     1.0000 0.10650  0.28750  0.85840  Biso   1.000  C
  C166     1.0000 0.91900  0.35710  0.85140  Biso   1.000  C
  C167     1.0000 0.82020  0.41320  0.91290  Biso   1.000  C
  C168     1.0000 0.87370  0.50330  0.92040  Biso   1.000  C
  C169     1.0000 0.15310  0.39110  0.08250  Biso   1.000  C
  C170     1.0000 0.06680  0.45320  0.07660  Biso   1.000  C
  C171     1.0000 0.10660  0.52960  0.99200  Biso   1.000  C
  C172     1.0000 0.15870  0.58400  0.01380  Biso   1.000  C
  C173     1.0000 0.15500  0.60350  0.07400  Biso   1.000  C
  C174     1.0000 0.20200  0.65050  0.09420  Biso   1.000  C
  C175     1.0000 0.25810  0.68900  0.06140  Biso   1.000  C
  C176     1.0000 0.25520  0.66190  0.99700  Biso   1.000  C
  C177     1.0000 0.21100  0.61300  0.97660  Biso   1.000  C
  C178     1.0000 0.30990  0.73910  0.07630  Biso   1.000  C
  C179     1.0000 0.22350  0.88460  0.12190  Biso   1.000  C
  C180     1.0000 0.25780  0.84870  0.03630  Biso   1.000  C
  C181     1.0000 0.91800  0.32760  0.09930  Biso   1.000  C
  C182     1.0000 0.96800  0.24180  0.12950  Biso   1.000  C
  C183     1.0000 0.89380  0.16080  0.05810  Biso   1.000  C
  C184     1.0000 0.91420  0.15550  0.98970  Biso   1.000  C
  C185     1.0000 0.86670  0.17730  0.94300  Biso   1.000  C
  C186     1.0000 0.88440  0.17340  0.87910  Biso   1.000  C
  C187     1.0000 0.95040  0.14820  0.85970  Biso   1.000  C
  C188     1.0000 0.00070  0.13300  0.90730  Biso   1.000  C
  C189     1.0000 0.98040  0.13430  0.97210  Biso   1.000  C
  C190     1.0000 0.96040  0.13520  0.79140  Biso   1.000  C
  C191     1.0000 0.13700  0.08780  0.75720  Biso   1.000  C
  C192     1.0000 0.04530  0.03680  0.78220  Biso   1.000  C
  N1       1.0000 0.62480  0.08610  0.76160  Biso   1.000  N
  N2       1.0000 0.67790  0.99250  0.74160  Biso   1.000  N
  N3       1.0000 0.72730  0.04200  0.73720  Biso   1.000  N
  N4       1.0000 0.13160  0.95500  0.96350  Biso   1.000  N
  N5       1.0000 0.07130  0.90220  0.89040  Biso   1.000  N
  N6       1.0000 0.02620  0.92040  0.93730  Biso   1.000  N
  N7       1.0000 0.70860  0.41690  0.03480  Biso   1.000  N
  N8       1.0000 0.71920  0.33960  0.11300  Biso   1.000  N
  N9       1.0000 0.69710  0.31370  0.05650  Biso   1.000  N
  N10      1.0000 0.31110  0.02630  0.06200  Biso   1.000  N
  N11      1.0000 0.42270  0.02950  0.11100  Biso   1.000  N
  N12      1.0000 0.38560  0.08970  0.11290  Biso   1.000  N
  N13      1.0000 0.59130  0.10070  0.89160  Biso   1.000  N
  N14      1.0000 0.66910  0.06430  0.96440  Biso   1.000  N
  N15      1.0000 0.61020  0.02580  0.96550  Biso   1.000  N
  N16      1.0000 0.73150  0.59800  0.94070  Biso   1.000  N
  N17      1.0000 0.77300  0.69710  0.91750  Biso   1.000  N
  N18      1.0000 0.75110  0.67170  0.86010  Biso   1.000  N
  N19      1.0000 0.47180  0.19500  0.86360  Biso   1.000  N
  N20      1.0000 0.38050  0.21710  0.93190  Biso   1.000  N
  N21      1.0000 0.41400  0.27130  0.91540  Biso   1.000  N
  N22      1.0000 0.59060  0.36570  0.23970  Biso   1.000  N
  N23      1.0000 0.60850  0.47250  0.23500  Biso   1.000  N
  N24      1.0000 0.53280  0.39590  0.22100  Biso   1.000  N
  N25      1.0000 0.87520  0.91390  0.26160  Biso   1.000  N
  N26      1.0000 0.82210  0.00750  0.24160  Biso   1.000  N
  N27      1.0000 0.77270  0.95800  0.23720  Biso   1.000  N
  N28      1.0000 0.36840  0.04500  0.46350  Biso   1.000  N
  N29      1.0000 0.42870  0.09780  0.39040  Biso   1.000  N
  N30      1.0000 0.47380  0.07960  0.43730  Biso   1.000  N
  N31      1.0000 0.79140  0.58310  0.53480  Biso   1.000  N
  N32      1.0000 0.78080  0.66040  0.61300  Biso   1.000  N
  N33      1.0000 0.80290  0.68630  0.55650  Biso   1.000  N
  N34      1.0000 0.18890  0.97370  0.56200  Biso   1.000  N
  N35      1.0000 0.07730  0.97050  0.61100  Biso   1.000  N
  N36      1.0000 0.11440  0.91030  0.61290  Biso   1.000  N
  N37      1.0000 0.90870  0.89930  0.39160  Biso   1.000  N
  N38      1.0000 0.83090  0.93570  0.46440  Biso   1.000  N
  N39      1.0000 0.88980  0.97420  0.46550  Biso   1.000  N
  N40      1.0000 0.76850  0.40200  0.44070  Biso   1.000  N
  N41      1.0000 0.72700  0.30290  0.41750  Biso   1.000  N
  N42      1.0000 0.74890  0.32830  0.36010  Biso   1.000  N
  N43      1.0000 0.02820  0.80500  0.36360  Biso   1.000  N
  N44      1.0000 0.11950  0.78290  0.43190  Biso   1.000  N
  N45      1.0000 0.08600  0.72870  0.41540  Biso   1.000  N
  N46      1.0000 0.90940  0.63430  0.73970  Biso   1.000  N
  N47      1.0000 0.89150  0.52750  0.73500  Biso   1.000  N
  N48      1.0000 0.96720  0.60410  0.72100  Biso   1.000  N
  N49      1.0000 0.37520  0.58610  0.73840  Biso   1.000  N
  N50      1.0000 0.32210  0.49250  0.75840  Biso   1.000  N
  N51      1.0000 0.27270  0.54200  0.76280  Biso   1.000  N
  N52      1.0000 0.86840  0.45500  0.53650  Biso   1.000  N
  N53      1.0000 0.92870  0.40220  0.60960  Biso   1.000  N
  N54      1.0000 0.97380  0.42040  0.56270  Biso   1.000  N
  N55      1.0000 0.29140  0.91690  0.46520  Biso   1.000  N
  N56      1.0000 0.28080  0.83960  0.38700  Biso   1.000  N
  N57      1.0000 0.30290  0.81370  0.44350  Biso   1.000  N
  N58      1.0000 0.68890  0.52630  0.43800  Biso   1.000  N
  N59      1.0000 0.57730  0.52950  0.38900  Biso   1.000  N
  N60      1.0000 0.61440  0.58970  0.38710  Biso   1.000  N
  N61      1.0000 0.40870  0.60070  0.60840  Biso   1.000  N
  N62      1.0000 0.33090  0.56430  0.53560  Biso   1.000  N
  N63      1.0000 0.38980  0.52580  0.53450  Biso   1.000  N
  N64      1.0000 0.26850  0.09800  0.55930  Biso   1.000  N
  N65      1.0000 0.22700  0.19710  0.58250  Biso   1.000  N
  N66      1.0000 0.24890  0.17170  0.63990  Biso   1.000  N
  N67      1.0000 0.52820  0.69500  0.63640  Biso   1.000  N
  N68      1.0000 0.61950  0.71710  0.56810  Biso   1.000  N
  N69      1.0000 0.58600  0.77130  0.58460  Biso   1.000  N
  N70      1.0000 0.40940  0.86570  0.26030  Biso   1.000  N
  N71      1.0000 0.39150  0.97250  0.26500  Biso   1.000  N
  N72      1.0000 0.46720  0.89590  0.27900  Biso   1.000  N
  N73      1.0000 0.12480  0.41390  0.23840  Biso   1.000  N
  N74      1.0000 0.17790  0.50750  0.25840  Biso   1.000  N
  N75      1.0000 0.22730  0.45800  0.26280  Biso   1.000  N
  N76      1.0000 0.63160  0.54500  0.03650  Biso   1.000  N
  N77      1.0000 0.57130  0.59780  0.10960  Biso   1.000  N
  N78      1.0000 0.52620  0.57960  0.06270  Biso   1.000  N
  N79      1.0000 0.20860  0.08310  0.96520  Biso   1.000  N
  N80      1.0000 0.21920  0.16040  0.88700  Biso   1.000  N
  N81      1.0000 0.19710  0.18630  0.94350  Biso   1.000  N
  N82      1.0000 0.81110  0.47370  0.93800  Biso   1.000  N
  N83      1.0000 0.92270  0.47050  0.88900  Biso   1.000  N
  N84      1.0000 0.88560  0.41030  0.88710  Biso   1.000  N
  N85      1.0000 0.09130  0.39930  0.10840  Biso   1.000  N
  N86      1.0000 0.16910  0.43570  0.03560  Biso   1.000  N
  N87      1.0000 0.11020  0.47420  0.03450  Biso   1.000  N
  N88      1.0000 0.23150  0.90200  0.05930  Biso   1.000  N
  N89      1.0000 0.27300  0.80290  0.08250  Biso   1.000  N
  N90      1.0000 0.25110  0.82830  0.13990  Biso   1.000  N
  N91      1.0000 0.97180  0.30500  0.13640  Biso   1.000  N
  N92      1.0000 0.88050  0.28290  0.06810  Biso   1.000  N
  N93      1.0000 0.91400  0.22870  0.08460  Biso   1.000  N
  N94      1.0000 0.09060  0.13430  0.76030  Biso   1.000  N
  N95      1.0000 0.10850  0.02750  0.76500  Biso   1.000  N
  N96      1.0000 0.03280  0.10410  0.77900  Biso   1.000  N
  O1       1.0000 0.52220  0.56790  0.70580  Biso   1.000  O
  O2       1.0000 0.64430  0.62420  0.73670  Biso   1.000  O
  O3       1.0000 0.59310  0.51250  0.80830  Biso   1.000  O
  O4       1.0000 0.64160  0.52630  0.64300  Biso   1.000  O
  O5       1.0000 0.57550  0.43690  0.69060  Biso   1.000  O
  O6       1.0000 0.71470  0.50530  0.74430  Biso   1.000  O
  O7       1.0000 0.56910  0.45570  0.55060  Biso   1.000  O
  O8       1.0000 0.71060  0.45530  0.55580  Biso   1.000  O
  O9       1.0000 0.63410  0.34610  0.60120  Biso   1.000  O
  O10      1.0000 0.71290  0.40080  0.68080  Biso   1.000  O
  O11      1.0000 0.76620  0.28630  0.61900  Biso   1.000  O
  O12      1.0000 0.64790  0.21750  0.64530  Biso   1.000  O
  O13      1.0000 0.72330  0.28080  0.74400  Biso   1.000  O
  O14      1.0000 0.59260  0.31960  0.72710  Biso   1.000  O
  O15      1.0000 0.73460  0.28200  0.87290  Biso   1.000  O
  O16      1.0000 0.61980  0.22210  0.82200  Biso   1.000  O
  O17      1.0000 0.60630  0.34660  0.87090  Biso   1.000  O
  O18      1.0000 0.65570  0.46800  0.91410  Biso   1.000  O
  O19      1.0000 0.51620  0.45450  0.90230  Biso   1.000  O
  O20      1.0000 0.51930  0.40100  0.79030  Biso   1.000  O
  O21      1.0000 0.68970  0.39910  0.79900  Biso   1.000  O
  O22      1.0000 0.81320  0.42460  0.75690  Biso   1.000  O
  O23      1.0000 0.47350  0.35960  0.68900  Biso   1.000  O
  O24      1.0000 0.51370  0.19010  0.72890  Biso   1.000  O
  O25      1.0000 0.97780  0.43210  0.20580  Biso   1.000  O
  O26      1.0000 0.85570  0.37580  0.23670  Biso   1.000  O
  O27      1.0000 0.90690  0.48750  0.30830  Biso   1.000  O
  O28      1.0000 0.85840  0.47370  0.14300  Biso   1.000  O
  O29      1.0000 0.92450  0.56310  0.19060  Biso   1.000  O
  O30      1.0000 0.78530  0.49470  0.24430  Biso   1.000  O
  O31      1.0000 0.93090  0.54430  0.05060  Biso   1.000  O
  O32      1.0000 0.78940  0.54470  0.05580  Biso   1.000  O
  O33      1.0000 0.86590  0.65390  0.10120  Biso   1.000  O
  O34      1.0000 0.78710  0.59920  0.18080  Biso   1.000  O
  O35      1.0000 0.73380  0.71370  0.11900  Biso   1.000  O
  O36      1.0000 0.85210  0.78250  0.14530  Biso   1.000  O
  O37      1.0000 0.77670  0.71920  0.24400  Biso   1.000  O
  O38      1.0000 0.90740  0.68040  0.22710  Biso   1.000  O
  O39      1.0000 0.76540  0.71800  0.37290  Biso   1.000  O
  O40      1.0000 0.88020  0.77790  0.32200  Biso   1.000  O
  O41      1.0000 0.89370  0.65340  0.37090  Biso   1.000  O
  O42      1.0000 0.84430  0.53200  0.41410  Biso   1.000  O
  O43      1.0000 0.98380  0.54550  0.40230  Biso   1.000  O
  O44      1.0000 0.98070  0.59900  0.29030  Biso   1.000  O
  O45      1.0000 0.81030  0.60090  0.29900  Biso   1.000  O
  O46      1.0000 0.68680  0.57540  0.25690  Biso   1.000  O
  O47      1.0000 0.02650  0.64040  0.18900  Biso   1.000  O
  O48      1.0000 0.98630  0.80990  0.22890  Biso   1.000  O
  O49      1.0000 0.47780  0.06790  0.79420  Biso   1.000  O
  O50      1.0000 0.35570  0.12420  0.76330  Biso   1.000  O
  O51      1.0000 0.40690  0.01250  0.69170  Biso   1.000  O
  O52      1.0000 0.35840  0.02630  0.85700  Biso   1.000  O
  O53      1.0000 0.42450  0.93690  0.80940  Biso   1.000  O
  O54      1.0000 0.28530  0.00530  0.75570  Biso   1.000  O
  O55      1.0000 0.43090  0.95570  0.94940  Biso   1.000  O
  O56      1.0000 0.28940  0.95530  0.94420  Biso   1.000  O
  O57      1.0000 0.36590  0.84610  0.89880  Biso   1.000  O
  O58      1.0000 0.28710  0.90080  0.81920  Biso   1.000  O
  O59      1.0000 0.23380  0.78630  0.88100  Biso   1.000  O
  O60      1.0000 0.35210  0.71750  0.85470  Biso   1.000  O
  O61      1.0000 0.27670  0.78080  0.75600  Biso   1.000  O
  O62      1.0000 0.40740  0.81960  0.77290  Biso   1.000  O
  O63      1.0000 0.26540  0.78200  0.62710  Biso   1.000  O
  O64      1.0000 0.38020  0.72210  0.67800  Biso   1.000  O
  O65      1.0000 0.39370  0.84660  0.62910  Biso   1.000  O
  O66      1.0000 0.34430  0.96800  0.58590  Biso   1.000  O
  O67      1.0000 0.48380  0.95450  0.59770  Biso   1.000  O
  O68      1.0000 0.48070  0.90100  0.70970  Biso   1.000  O
  O69      1.0000 0.31030  0.89910  0.70100  Biso   1.000  O
  O70      1.0000 0.18680  0.92460  0.74310  Biso   1.000  O
  O71      1.0000 0.52650  0.85960  0.81100  Biso   1.000  O
  O72      1.0000 0.48630  0.69010  0.77110  Biso   1.000  O
  O73      1.0000 0.02220  0.93210  0.29420  Biso   1.000  O
  O74      1.0000 0.14430  0.87580  0.26330  Biso   1.000  O
  O75      1.0000 0.09310  0.98750  0.19170  Biso   1.000  O
  O76      1.0000 0.14160  0.97370  0.35700  Biso   1.000  O
  O77      1.0000 0.07550  0.06310  0.30940  Biso   1.000  O
  O78      1.0000 0.21470  0.99470  0.25570  Biso   1.000  O
  O79      1.0000 0.06910  0.04430  0.44940  Biso   1.000  O
  O80      1.0000 0.21060  0.04470  0.44420  Biso   1.000  O
  O81      1.0000 0.13410  0.15390  0.39880  Biso   1.000  O
  O82      1.0000 0.21290  0.09920  0.31920  Biso   1.000  O
  O83      1.0000 0.26620  0.21370  0.38100  Biso   1.000  O
  O84      1.0000 0.14790  0.28250  0.35470  Biso   1.000  O
  O85      1.0000 0.22330  0.21920  0.25600  Biso   1.000  O
  O86      1.0000 0.09260  0.18040  0.27290  Biso   1.000  O
  O87      1.0000 0.23460  0.21800  0.12710  Biso   1.000  O
  O88      1.0000 0.11980  0.27790  0.17800  Biso   1.000  O
  O89      1.0000 0.10630  0.15340  0.12910  Biso   1.000  O
  O90      1.0000 0.15570  0.03200  0.08590  Biso   1.000  O
  O91      1.0000 0.01620  0.04550  0.09770  Biso   1.000  O
  O92      1.0000 0.01930  0.09900  0.20970  Biso   1.000  O
  O93      1.0000 0.18970  0.10090  0.20100  Biso   1.000  O
  O94      1.0000 0.31320  0.07540  0.24310  Biso   1.000  O
  O95      1.0000 0.97350  0.14040  0.31100  Biso   1.000  O
  O96      1.0000 0.01370  0.30990  0.27110  Biso   1.000  O
