data_image0
_cell_length_a       13.102
_cell_length_b       26.104
_cell_length_c       26.279
_cell_angle_alpha    90
_cell_angle_beta     90
_cell_angle_gamma    93.923

_symmetry_space_group_name_H-M    P 1
_symmetry_int_tables_number       1

loop_
  _symmetry_equiv_pos_as_xyz
  'x, y, z'

loop_
  _atom_site_label
  _atom_site_occupancy
  _atom_site_fract_x
  _atom_site_fract_y
  _atom_site_fract_z
  _atom_site_thermal_displace_type
  _atom_site_B_iso_or_equiv
  _atom_site_type_symbol
  Tb1      1.0000 0.52724  0.61657  0.70988  Biso   1.000  Tb
  Tb2      1.0000 0.52724  0.11657  0.79012  Biso   1.000  Tb
  V1       1.0000 0.86116  0.69552  0.20389  Biso   1.000  V
  V2       1.0000 0.87917  0.57114  0.19337  Biso   1.000  V
  V3       1.0000 0.06815  0.65156  0.15410  Biso   1.000  V
  V4       1.0000 0.08573  0.58160  0.24461  Biso   1.000  V
  V5       1.0000 0.06751  0.70543  0.25571  Biso   1.000  V
  V6       1.0000 0.87879  0.62503  0.29497  Biso   1.000  V
  V7       1.0000 0.86116  0.19552  0.29611  Biso   1.000  V
  V8       1.0000 0.87917  0.07114  0.30663  Biso   1.000  V
  V9       1.0000 0.06815  0.15156  0.34590  Biso   1.000  V
  V10      1.0000 0.08573  0.08160  0.25539  Biso   1.000  V
  V11      1.0000 0.06751  0.20543  0.24429  Biso   1.000  V
  V12      1.0000 0.87879  0.12503  0.20503  Biso   1.000  V
  H1       1.0000 0.97640  0.67290  0.39220  Biso   1.000  H
  H2       1.0000 0.06910  0.71130  0.37260  Biso   1.000  H
  H3       1.0000 0.22460  0.67670  0.33520  Biso   1.000  H
  H4       1.0000 0.23400  0.61620  0.32800  Biso   1.000  H
  H5       1.0000 0.09100  0.55360  0.36210  Biso   1.000  H
  H6       1.0000 0.98930  0.57670  0.38430  Biso   1.000  H
  H7       1.0000 0.14940  0.69990  0.43990  Biso   1.000  H
  H8       1.0000 0.24770  0.68400  0.40890  Biso   1.000  H
  H9       1.0000 0.88270  0.56330  0.07570  Biso   1.000  H
  H10      1.0000 0.97180  0.60430  0.05710  Biso   1.000  H
  H11      1.0000 0.95210  0.70140  0.06680  Biso   1.000  H
  H12      1.0000 0.85030  0.72020  0.09250  Biso   1.000  H
  H13      1.0000 0.71010  0.65650  0.11870  Biso   1.000  H
  H14      1.0000 0.72180  0.59600  0.11560  Biso   1.000  H
  H15      1.0000 0.74970  0.70520  0.01220  Biso   1.000  H
  H16      1.0000 0.66120  0.66500  0.03360  Biso   1.000  H
  H17      1.0000 0.75800  0.72420  0.93540  Biso   1.000  H
  H18      1.0000 0.70880  0.70460  0.84490  Biso   1.000  H
  H19      1.0000 0.59190  0.56340  0.86780  Biso   1.000  H
  H20      1.0000 0.63530  0.57530  0.96090  Biso   1.000  H
  H21      1.0000 0.45850  0.61020  0.52290  Biso   1.000  H
  H22      1.0000 0.37020  0.63320  0.44880  Biso   1.000  H
  H23      1.0000 0.15110  0.68960  0.53630  Biso   1.000  H
  H24      1.0000 0.23910  0.66680  0.61150  Biso   1.000  H
  H25      1.0000 0.41490  0.73440  0.67980  Biso   1.000  H
  H26      1.0000 0.38630  0.81590  0.70470  Biso   1.000  H
  H27      1.0000 0.68850  0.84310  0.73050  Biso   1.000  H
  H28      1.0000 0.71150  0.76170  0.70340  Biso   1.000  H
  H29      1.0000 0.63300  0.00250  0.76770  Biso   1.000  H
  H30      1.0000 0.66100  0.91980  0.73480  Biso   1.000  H
  H31      1.0000 0.36110  0.88090  0.74900  Biso   1.000  H
  H32      1.0000 0.33370  0.96070  0.77570  Biso   1.000  H
  H33      1.0000 0.28580  0.69420  0.73840  Biso   1.000  H
  H34      1.0000 0.11160  0.68570  0.72590  Biso   1.000  H
  H35      1.0000 0.11270  0.53430  0.75510  Biso   1.000  H
  H36      1.0000 0.28690  0.54760  0.77330  Biso   1.000  H
  H37      1.0000 0.77930  0.66840  0.72180  Biso   1.000  H
  H38      1.0000 0.94800  0.67490  0.74680  Biso   1.000  H
  H39      1.0000 0.97400  0.52990  0.70500  Biso   1.000  H
  H40      1.0000 0.80860  0.52540  0.67500  Biso   1.000  H
  H41      1.0000 0.13740  0.60090  0.43940  Biso   1.000  H
  H42      1.0000 0.82230  0.61390  0.00890  Biso   1.000  H
  H43      1.0000 0.97640  0.17290  0.10780  Biso   1.000  H
  H44      1.0000 0.06910  0.21130  0.12740  Biso   1.000  H
  H45      1.0000 0.22460  0.17670  0.16480  Biso   1.000  H
  H46      1.0000 0.23400  0.11620  0.17200  Biso   1.000  H
  H47      1.0000 0.09100  0.05360  0.13790  Biso   1.000  H
  H48      1.0000 0.98930  0.07670  0.11570  Biso   1.000  H
  H49      1.0000 0.14940  0.19990  0.06010  Biso   1.000  H
  H50      1.0000 0.24770  0.18400  0.09110  Biso   1.000  H
  H51      1.0000 0.88270  0.06330  0.42430  Biso   1.000  H
  H52      1.0000 0.97180  0.10430  0.44290  Biso   1.000  H
  H53      1.0000 0.95210  0.20140  0.43320  Biso   1.000  H
  H54      1.0000 0.85030  0.22020  0.40750  Biso   1.000  H
  H55      1.0000 0.71010  0.15650  0.38130  Biso   1.000  H
  H56      1.0000 0.72180  0.09600  0.38440  Biso   1.000  H
  H57      1.0000 0.74970  0.20520  0.48780  Biso   1.000  H
  H58      1.0000 0.66120  0.16500  0.46640  Biso   1.000  H
  H59      1.0000 0.75800  0.22420  0.56460  Biso   1.000  H
  H60      1.0000 0.70880  0.20460  0.65510  Biso   1.000  H
  H61      1.0000 0.59190  0.06340  0.63220  Biso   1.000  H
  H62      1.0000 0.63530  0.07530  0.53910  Biso   1.000  H
  H63      1.0000 0.45850  0.11020  0.97710  Biso   1.000  H
  H64      1.0000 0.37020  0.13320  0.05120  Biso   1.000  H
  H65      1.0000 0.15110  0.18960  0.96370  Biso   1.000  H
  H66      1.0000 0.23910  0.16680  0.88850  Biso   1.000  H
  H67      1.0000 0.41490  0.23440  0.82020  Biso   1.000  H
  H68      1.0000 0.38630  0.31590  0.79530  Biso   1.000  H
  H69      1.0000 0.68850  0.34310  0.76950  Biso   1.000  H
  H70      1.0000 0.71150  0.26170  0.79660  Biso   1.000  H
  H71      1.0000 0.63300  0.50250  0.73230  Biso   1.000  H
  H72      1.0000 0.66100  0.41980  0.76520  Biso   1.000  H
  H73      1.0000 0.36110  0.38090  0.75100  Biso   1.000  H
  H74      1.0000 0.33370  0.46070  0.72430  Biso   1.000  H
  H75      1.0000 0.28580  0.19420  0.76160  Biso   1.000  H
  H76      1.0000 0.11160  0.18570  0.77410  Biso   1.000  H
  H77      1.0000 0.11270  0.03430  0.74490  Biso   1.000  H
  H78      1.0000 0.28690  0.04760  0.72670  Biso   1.000  H
  H79      1.0000 0.77930  0.16840  0.77820  Biso   1.000  H
  H80      1.0000 0.94800  0.17490  0.75320  Biso   1.000  H
  H81      1.0000 0.97400  0.02990  0.79500  Biso   1.000  H
  H82      1.0000 0.80860  0.02540  0.82500  Biso   1.000  H
  H83      1.0000 0.13740  0.10090  0.06060  Biso   1.000  H
  H84      1.0000 0.82230  0.11390  0.49110  Biso   1.000  H
  C1       1.0000 0.02880  0.67870  0.36530  Biso   1.000  C
  C2       1.0000 0.18620  0.64390  0.32630  Biso   1.000  C
  C3       1.0000 0.10060  0.63310  0.36410  Biso   1.000  C
  C4       1.0000 0.04370  0.58140  0.35830  Biso   1.000  C
  C5       1.0000 0.19700  0.67260  0.43540  Biso   1.000  C
  C6       1.0000 0.91890  0.59690  0.08350  Biso   1.000  C
  C7       1.0000 0.90060  0.69370  0.09380  Biso   1.000  C
  C8       1.0000 0.84350  0.63860  0.08330  Biso   1.000  C
  C9       1.0000 0.75920  0.62950  0.12240  Biso   1.000  C
  C10      1.0000 0.72300  0.66880  0.01220  Biso   1.000  C
  C11      1.0000 0.70000  0.64990  0.95700  Biso   1.000  C
  C12      1.0000 0.72580  0.69230  0.92460  Biso   1.000  C
  C13      1.0000 0.69490  0.67930  0.87040  Biso   1.000  C
  C14      1.0000 0.65150  0.63650  0.85730  Biso   1.000  C
  C15      1.0000 0.62400  0.59390  0.88200  Biso   1.000  C
  C16      1.0000 0.65100  0.60250  0.93800  Biso   1.000  C
  C17      1.0000 0.61750  0.62980  0.80530  Biso   1.000  C
  C18      1.0000 0.41350  0.62390  0.62070  Biso   1.000  C
  C19      1.0000 0.35790  0.63610  0.57310  Biso   1.000  C
  C20      1.0000 0.39600  0.62640  0.52590  Biso   1.000  C
  C21      1.0000 0.34280  0.64030  0.48130  Biso   1.000  C
  C22      1.0000 0.25210  0.66380  0.48460  Biso   1.000  C
  C23      1.0000 0.21370  0.67350  0.53340  Biso   1.000  C
  C24      1.0000 0.26580  0.65990  0.57880  Biso   1.000  C
  C25      1.0000 0.47090  0.75700  0.69010  Biso   1.000  C
  C26      1.0000 0.45400  0.80500  0.70540  Biso   1.000  C
  C27      1.0000 0.53050  0.83750  0.72130  Biso   1.000  C
  C28      1.0000 0.63170  0.82090  0.72020  Biso   1.000  C
  C29      1.0000 0.64440  0.77340  0.70430  Biso   1.000  C
  C30      1.0000 0.51490  0.89210  0.73760  Biso   1.000  C
  C31      1.0000 0.57710  0.97770  0.76340  Biso   1.000  C
  C32      1.0000 0.59370  0.92790  0.74370  Biso   1.000  C
  C33      1.0000 0.41740  0.90570  0.75160  Biso   1.000  C
  C34      1.0000 0.40180  0.95250  0.76850  Biso   1.000  C
  C35      1.0000 0.24910  0.66210  0.74420  Biso   1.000  C
  C36      1.0000 0.14650  0.65640  0.73520  Biso   1.000  C
  C37      1.0000 0.09230  0.61020  0.73930  Biso   1.000  C
  C38      1.0000 0.14610  0.56770  0.75310  Biso   1.000  C
  C39      1.0000 0.24950  0.57600  0.76380  Biso   1.000  C
  C40      1.0000 0.82010  0.64000  0.71780  Biso   1.000  C
  C41      1.0000 0.91940  0.64380  0.73230  Biso   1.000  C
  C42      1.0000 0.97910  0.60290  0.72610  Biso   1.000  C
  C43      1.0000 0.93520  0.55930  0.70720  Biso   1.000  C
  C44      1.0000 0.83690  0.55580  0.69100  Biso   1.000  C
  C45      1.0000 0.02880  0.17870  0.13470  Biso   1.000  C
  C46      1.0000 0.18620  0.14390  0.17370  Biso   1.000  C
  C47      1.0000 0.10060  0.13310  0.13590  Biso   1.000  C
  C48      1.0000 0.04370  0.08140  0.14170  Biso   1.000  C
  C49      1.0000 0.19700  0.17260  0.06460  Biso   1.000  C
  C50      1.0000 0.91890  0.09690  0.41650  Biso   1.000  C
  C51      1.0000 0.90060  0.19370  0.40620  Biso   1.000  C
  C52      1.0000 0.84350  0.13860  0.41670  Biso   1.000  C
  C53      1.0000 0.75920  0.12950  0.37760  Biso   1.000  C
  C54      1.0000 0.72300  0.16880  0.48780  Biso   1.000  C
  C55      1.0000 0.70000  0.14990  0.54300  Biso   1.000  C
  C56      1.0000 0.72580  0.19230  0.57540  Biso   1.000  C
  C57      1.0000 0.69490  0.17930  0.62960  Biso   1.000  C
  C58      1.0000 0.65150  0.13650  0.64270  Biso   1.000  C
  C59      1.0000 0.62400  0.09390  0.61800  Biso   1.000  C
  C60      1.0000 0.65100  0.10250  0.56200  Biso   1.000  C
  C61      1.0000 0.61750  0.12980  0.69470  Biso   1.000  C
  C62      1.0000 0.41350  0.12390  0.87930  Biso   1.000  C
  C63      1.0000 0.35790  0.13610  0.92690  Biso   1.000  C
  C64      1.0000 0.39600  0.12640  0.97410  Biso   1.000  C
  C65      1.0000 0.34280  0.14030  0.01870  Biso   1.000  C
  C66      1.0000 0.25210  0.16380  0.01540  Biso   1.000  C
  C67      1.0000 0.21370  0.17350  0.96660  Biso   1.000  C
  C68      1.0000 0.26580  0.15990  0.92120  Biso   1.000  C
  C69      1.0000 0.47090  0.25700  0.80990  Biso   1.000  C
  C70      1.0000 0.45400  0.30500  0.79460  Biso   1.000  C
  C71      1.0000 0.53050  0.33750  0.77870  Biso   1.000  C
  C72      1.0000 0.63170  0.32090  0.77980  Biso   1.000  C
  C73      1.0000 0.64440  0.27340  0.79570  Biso   1.000  C
  C74      1.0000 0.51490  0.39210  0.76240  Biso   1.000  C
  C75      1.0000 0.57710  0.47770  0.73660  Biso   1.000  C
  C76      1.0000 0.59370  0.42790  0.75630  Biso   1.000  C
  C77      1.0000 0.41740  0.40570  0.74840  Biso   1.000  C
  C78      1.0000 0.40180  0.45250  0.73150  Biso   1.000  C
  C79      1.0000 0.24910  0.16210  0.75580  Biso   1.000  C
  C80      1.0000 0.14650  0.15640  0.76480  Biso   1.000  C
  C81      1.0000 0.09230  0.11020  0.76070  Biso   1.000  C
  C82      1.0000 0.14610  0.06770  0.74690  Biso   1.000  C
  C83      1.0000 0.24950  0.07600  0.73620  Biso   1.000  C
  C84      1.0000 0.82010  0.14000  0.78220  Biso   1.000  C
  C85      1.0000 0.91940  0.14380  0.76770  Biso   1.000  C
  C86      1.0000 0.97910  0.10290  0.77390  Biso   1.000  C
  C87      1.0000 0.93520  0.05930  0.79280  Biso   1.000  C
  C88      1.0000 0.83690  0.05580  0.80900  Biso   1.000  C
  N1       1.0000 0.14550  0.62860  0.42040  Biso   1.000  N
  N2       1.0000 0.79960  0.63650  0.03020  Biso   1.000  N
  N3       1.0000 0.77990  0.59630  0.69800  Biso   1.000  N
  N4       1.0000 0.56470  0.74110  0.68940  Biso   1.000  N
  N5       1.0000 0.29760  0.62190  0.76110  Biso   1.000  N
  N6       1.0000 0.48020  0.98960  0.77600  Biso   1.000  N
  N7       1.0000 0.14550  0.12860  0.07960  Biso   1.000  N
  N8       1.0000 0.79960  0.13650  0.46980  Biso   1.000  N
  N9       1.0000 0.77990  0.09630  0.80200  Biso   1.000  N
  N10      1.0000 0.56470  0.24110  0.81060  Biso   1.000  N
  N11      1.0000 0.29760  0.12190  0.73890  Biso   1.000  N
  N12      1.0000 0.48020  0.48960  0.72400  Biso   1.000  N
  O1       1.0000 0.82160  0.61310  0.34670  Biso   1.000  O
  O2       1.0000 0.98010  0.68120  0.31570  Biso   1.000  O
  O3       1.0000 0.99850  0.58050  0.30620  Biso   1.000  O
  O4       1.0000 0.13530  0.75020  0.28500  Biso   1.000  O
  O5       1.0000 0.14750  0.64710  0.27650  Biso   1.000  O
  O6       1.0000 0.17020  0.54590  0.26690  Biso   1.000  O
  O7       1.0000 0.80130  0.67180  0.26390  Biso   1.000  O
  O8       1.0000 0.95420  0.73860  0.23450  Biso   1.000  O
  O9       1.0000 0.82370  0.57060  0.25470  Biso   1.000  O
  O10      1.0000 0.97410  0.63750  0.22450  Biso   1.000  O
  O11      1.0000 0.12450  0.70440  0.19350  Biso   1.000  O
  O12      1.0000 0.99290  0.53810  0.21410  Biso   1.000  O
  O13      1.0000 0.14340  0.60500  0.18550  Biso   1.000  O
  O14      1.0000 0.77710  0.73190  0.18170  Biso   1.000  O
  O15      1.0000 0.79710  0.63000  0.17350  Biso   1.000  O
  O16      1.0000 0.95030  0.69550  0.14240  Biso   1.000  O
  O17      1.0000 0.81430  0.52620  0.16330  Biso   1.000  O
  O18      1.0000 0.96650  0.59480  0.13280  Biso   1.000  O
  O19      1.0000 0.11800  0.65980  0.09980  Biso   1.000  O
  O20      1.0000 0.61180  0.66610  0.77440  Biso   1.000  O
  O21      1.0000 0.59610  0.58370  0.78760  Biso   1.000  O
  O22      1.0000 0.37660  0.63570  0.66310  Biso   1.000  O
  O23      1.0000 0.49990  0.60430  0.61830  Biso   1.000  O
  O24      1.0000 0.68280  0.59150  0.68220  Biso   1.000  O
  O25      1.0000 0.58280  0.69550  0.67070  Biso   1.000  O
  O26      1.0000 0.39940  0.62810  0.76980  Biso   1.000  O
  O27      1.0000 0.46010  0.03320  0.79670  Biso   1.000  O
  O28      1.0000 0.82160  0.11310  0.15330  Biso   1.000  O
  O29      1.0000 0.98010  0.18120  0.18430  Biso   1.000  O
  O30      1.0000 0.99850  0.08050  0.19380  Biso   1.000  O
  O31      1.0000 0.13530  0.25020  0.21500  Biso   1.000  O
  O32      1.0000 0.14750  0.14710  0.22350  Biso   1.000  O
  O33      1.0000 0.17020  0.04590  0.23310  Biso   1.000  O
  O34      1.0000 0.80130  0.17180  0.23610  Biso   1.000  O
  O35      1.0000 0.95420  0.23860  0.26550  Biso   1.000  O
  O36      1.0000 0.82370  0.07060  0.24530  Biso   1.000  O
  O37      1.0000 0.97410  0.13750  0.27550  Biso   1.000  O
  O38      1.0000 0.12450  0.20440  0.30650  Biso   1.000  O
  O39      1.0000 0.99290  0.03810  0.28590  Biso   1.000  O
  O40      1.0000 0.14340  0.10500  0.31450  Biso   1.000  O
  O41      1.0000 0.77710  0.23190  0.31830  Biso   1.000  O
  O42      1.0000 0.79710  0.13000  0.32650  Biso   1.000  O
  O43      1.0000 0.95030  0.19550  0.35760  Biso   1.000  O
  O44      1.0000 0.81430  0.02620  0.33670  Biso   1.000  O
  O45      1.0000 0.96650  0.09480  0.36720  Biso   1.000  O
  O46      1.0000 0.11800  0.15980  0.40020  Biso   1.000  O
  O47      1.0000 0.61180  0.16610  0.72560  Biso   1.000  O
  O48      1.0000 0.59610  0.08370  0.71240  Biso   1.000  O
  O49      1.0000 0.37660  0.13570  0.83690  Biso   1.000  O
  O50      1.0000 0.49990  0.10430  0.88170  Biso   1.000  O
  O51      1.0000 0.68280  0.09150  0.81780  Biso   1.000  O
  O52      1.0000 0.58280  0.19550  0.82930  Biso   1.000  O
  O53      1.0000 0.39940  0.12810  0.73020  Biso   1.000  O
  O54      1.0000 0.46010  0.53320  0.70330  Biso   1.000  O
  Tb3      1.0000 0.47276  0.88343  0.20988  Biso   1.000  Tb
  Tb4      1.0000 0.47276  0.38343  0.29012  Biso   1.000  Tb
  V13      1.0000 0.13884  0.80448  0.70389  Biso   1.000  V
  V14      1.0000 0.12083  0.92886  0.69337  Biso   1.000  V
  V15      1.0000 0.93185  0.84844  0.65410  Biso   1.000  V
  V16      1.0000 0.91427  0.91840  0.74461  Biso   1.000  V
  V17      1.0000 0.93249  0.79457  0.75571  Biso   1.000  V
  V18      1.0000 0.12121  0.87497  0.79497  Biso   1.000  V
  V19      1.0000 0.13884  0.30448  0.79611  Biso   1.000  V
  V20      1.0000 0.12083  0.42886  0.80663  Biso   1.000  V
  V21      1.0000 0.93185  0.34844  0.84590  Biso   1.000  V
  V22      1.0000 0.91427  0.41840  0.75539  Biso   1.000  V
  V23      1.0000 0.93249  0.29457  0.74429  Biso   1.000  V
  V24      1.0000 0.12121  0.37497  0.70503  Biso   1.000  V
  H85      1.0000 0.02360  0.82710  0.89220  Biso   1.000  H
  H86      1.0000 0.93090  0.78870  0.87260  Biso   1.000  H
  H87      1.0000 0.77540  0.82330  0.83520  Biso   1.000  H
  H88      1.0000 0.76600  0.88380  0.82800  Biso   1.000  H
  H89      1.0000 0.90900  0.94640  0.86210  Biso   1.000  H
  H90      1.0000 0.01070  0.92330  0.88430  Biso   1.000  H
  H91      1.0000 0.85060  0.80010  0.93990  Biso   1.000  H
  H92      1.0000 0.75230  0.81600  0.90890  Biso   1.000  H
  H93      1.0000 0.11730  0.93670  0.57570  Biso   1.000  H
  H94      1.0000 0.02820  0.89570  0.55710  Biso   1.000  H
  H95      1.0000 0.04790  0.79860  0.56680  Biso   1.000  H
  H96      1.0000 0.14970  0.77980  0.59250  Biso   1.000  H
  H97      1.0000 0.28990  0.84350  0.61870  Biso   1.000  H
  H98      1.0000 0.27820  0.90400  0.61560  Biso   1.000  H
  H99      1.0000 0.25030  0.79480  0.51220  Biso   1.000  H
  H100     1.0000 0.33880  0.83500  0.53360  Biso   1.000  H
  H101     1.0000 0.24200  0.77580  0.43540  Biso   1.000  H
  H102     1.0000 0.29120  0.79540  0.34490  Biso   1.000  H
  H103     1.0000 0.40810  0.93660  0.36780  Biso   1.000  H
  H104     1.0000 0.36470  0.92470  0.46090  Biso   1.000  H
  H105     1.0000 0.54150  0.88980  0.02290  Biso   1.000  H
  H106     1.0000 0.62980  0.86680  0.94880  Biso   1.000  H
  H107     1.0000 0.84890  0.81040  0.03630  Biso   1.000  H
  H108     1.0000 0.76090  0.83320  0.11150  Biso   1.000  H
  H109     1.0000 0.58510  0.76560  0.17980  Biso   1.000  H
  H110     1.0000 0.61370  0.68410  0.20470  Biso   1.000  H
  H111     1.0000 0.31150  0.65690  0.23050  Biso   1.000  H
  H112     1.0000 0.28850  0.73830  0.20340  Biso   1.000  H
  H113     1.0000 0.36700  0.49750  0.26770  Biso   1.000  H
  H114     1.0000 0.33900  0.58020  0.23480  Biso   1.000  H
  H115     1.0000 0.63890  0.61910  0.24900  Biso   1.000  H
  H116     1.0000 0.66630  0.53930  0.27570  Biso   1.000  H
  H117     1.0000 0.71420  0.80580  0.23840  Biso   1.000  H
  H118     1.0000 0.88840  0.81430  0.22590  Biso   1.000  H
  H119     1.0000 0.88730  0.96570  0.25510  Biso   1.000  H
  H120     1.0000 0.71310  0.95240  0.27330  Biso   1.000  H
  H121     1.0000 0.22070  0.83160  0.22180  Biso   1.000  H
  H122     1.0000 0.05200  0.82510  0.24680  Biso   1.000  H
  H123     1.0000 0.02600  0.97010  0.20500  Biso   1.000  H
  H124     1.0000 0.19140  0.97460  0.17500  Biso   1.000  H
  H125     1.0000 0.86260  0.89910  0.93940  Biso   1.000  H
  H126     1.0000 0.17770  0.88610  0.50890  Biso   1.000  H
  H127     1.0000 0.02360  0.32710  0.60780  Biso   1.000  H
  H128     1.0000 0.93090  0.28870  0.62740  Biso   1.000  H
  H129     1.0000 0.77540  0.32330  0.66480  Biso   1.000  H
  H130     1.0000 0.76600  0.38380  0.67200  Biso   1.000  H
  H131     1.0000 0.90900  0.44640  0.63790  Biso   1.000  H
  H132     1.0000 0.01070  0.42330  0.61570  Biso   1.000  H
  H133     1.0000 0.85060  0.30010  0.56010  Biso   1.000  H
  H134     1.0000 0.75230  0.31600  0.59110  Biso   1.000  H
  H135     1.0000 0.11730  0.43670  0.92430  Biso   1.000  H
  H136     1.0000 0.02820  0.39570  0.94290  Biso   1.000  H
  H137     1.0000 0.04790  0.29860  0.93320  Biso   1.000  H
  H138     1.0000 0.14970  0.27980  0.90750  Biso   1.000  H
  H139     1.0000 0.28990  0.34350  0.88130  Biso   1.000  H
  H140     1.0000 0.27820  0.40400  0.88440  Biso   1.000  H
  H141     1.0000 0.25030  0.29480  0.98780  Biso   1.000  H
  H142     1.0000 0.33880  0.33500  0.96640  Biso   1.000  H
  H143     1.0000 0.24200  0.27580  0.06460  Biso   1.000  H
  H144     1.0000 0.29120  0.29540  0.15510  Biso   1.000  H
  H145     1.0000 0.40810  0.43660  0.13220  Biso   1.000  H
  H146     1.0000 0.36470  0.42470  0.03910  Biso   1.000  H
  H147     1.0000 0.54150  0.38980  0.47710  Biso   1.000  H
  H148     1.0000 0.62980  0.36680  0.55120  Biso   1.000  H
  H149     1.0000 0.84890  0.31040  0.46370  Biso   1.000  H
  H150     1.0000 0.76090  0.33320  0.38850  Biso   1.000  H
  H151     1.0000 0.58510  0.26560  0.32020  Biso   1.000  H
  H152     1.0000 0.61370  0.18410  0.29530  Biso   1.000  H
  H153     1.0000 0.31150  0.15690  0.26950  Biso   1.000  H
  H154     1.0000 0.28850  0.23830  0.29660  Biso   1.000  H
  H155     1.0000 0.36700  0.99750  0.23230  Biso   1.000  H
  H156     1.0000 0.33900  0.08020  0.26520  Biso   1.000  H
  H157     1.0000 0.63890  0.11910  0.25100  Biso   1.000  H
  H158     1.0000 0.66630  0.03930  0.22430  Biso   1.000  H
  H159     1.0000 0.71420  0.30580  0.26160  Biso   1.000  H
  H160     1.0000 0.88840  0.31430  0.27410  Biso   1.000  H
  H161     1.0000 0.88730  0.46570  0.24490  Biso   1.000  H
  H162     1.0000 0.71310  0.45240  0.22670  Biso   1.000  H
  H163     1.0000 0.22070  0.33160  0.27820  Biso   1.000  H
  H164     1.0000 0.05200  0.32510  0.25320  Biso   1.000  H
  H165     1.0000 0.02600  0.47010  0.29500  Biso   1.000  H
  H166     1.0000 0.19140  0.47460  0.32500  Biso   1.000  H
  H167     1.0000 0.86260  0.39910  0.56060  Biso   1.000  H
  H168     1.0000 0.17770  0.38610  0.99110  Biso   1.000  H
  C89      1.0000 0.97120  0.82130  0.86530  Biso   1.000  C
  C90      1.0000 0.81380  0.85610  0.82630  Biso   1.000  C
  C91      1.0000 0.89940  0.86690  0.86410  Biso   1.000  C
  C92      1.0000 0.95630  0.91860  0.85830  Biso   1.000  C
  C93      1.0000 0.80300  0.82740  0.93540  Biso   1.000  C
  C94      1.0000 0.08110  0.90310  0.58350  Biso   1.000  C
  C95      1.0000 0.09940  0.80630  0.59380  Biso   1.000  C
  C96      1.0000 0.15650  0.86140  0.58330  Biso   1.000  C
  C97      1.0000 0.24080  0.87050  0.62240  Biso   1.000  C
  C98      1.0000 0.27700  0.83120  0.51220  Biso   1.000  C
  C99      1.0000 0.30000  0.85010  0.45700  Biso   1.000  C
  C100     1.0000 0.27420  0.80770  0.42460  Biso   1.000  C
  C101     1.0000 0.30510  0.82070  0.37040  Biso   1.000  C
  C102     1.0000 0.34850  0.86350  0.35730  Biso   1.000  C
  C103     1.0000 0.37600  0.90610  0.38200  Biso   1.000  C
  C104     1.0000 0.34900  0.89750  0.43800  Biso   1.000  C
  C105     1.0000 0.38250  0.87020  0.30530  Biso   1.000  C
  C106     1.0000 0.58650  0.87610  0.12070  Biso   1.000  C
  C107     1.0000 0.64210  0.86390  0.07310  Biso   1.000  C
  C108     1.0000 0.60400  0.87360  0.02590  Biso   1.000  C
  C109     1.0000 0.65720  0.85970  0.98130  Biso   1.000  C
  C110     1.0000 0.74790  0.83620  0.98460  Biso   1.000  C
  C111     1.0000 0.78630  0.82650  0.03340  Biso   1.000  C
  C112     1.0000 0.73420  0.84010  0.07880  Biso   1.000  C
  C113     1.0000 0.52910  0.74300  0.19010  Biso   1.000  C
  C114     1.0000 0.54600  0.69500  0.20540  Biso   1.000  C
  C115     1.0000 0.46950  0.66250  0.22130  Biso   1.000  C
  C116     1.0000 0.36830  0.67910  0.22020  Biso   1.000  C
  C117     1.0000 0.35560  0.72660  0.20430  Biso   1.000  C
  C118     1.0000 0.48510  0.60790  0.23760  Biso   1.000  C
  C119     1.0000 0.42290  0.52230  0.26340  Biso   1.000  C
  C120     1.0000 0.40630  0.57210  0.24370  Biso   1.000  C
  C121     1.0000 0.58260  0.59430  0.25160  Biso   1.000  C
  C122     1.0000 0.59820  0.54750  0.26850  Biso   1.000  C
  C123     1.0000 0.75090  0.83790  0.24420  Biso   1.000  C
  C124     1.0000 0.85350  0.84360  0.23520  Biso   1.000  C
  C125     1.0000 0.90770  0.88980  0.23930  Biso   1.000  C
  C126     1.0000 0.85390  0.93230  0.25310  Biso   1.000  C
  C127     1.0000 0.75050  0.92400  0.26380  Biso   1.000  C
  C128     1.0000 0.17990  0.86000  0.21780  Biso   1.000  C
  C129     1.0000 0.08060  0.85620  0.23230  Biso   1.000  C
  C130     1.0000 0.02090  0.89710  0.22610  Biso   1.000  C
  C131     1.0000 0.06480  0.94070  0.20720  Biso   1.000  C
  C132     1.0000 0.16310  0.94420  0.19100  Biso   1.000  C
  C133     1.0000 0.97120  0.32130  0.63470  Biso   1.000  C
  C134     1.0000 0.81380  0.35610  0.67370  Biso   1.000  C
  C135     1.0000 0.89940  0.36690  0.63590  Biso   1.000  C
  C136     1.0000 0.95630  0.41860  0.64170  Biso   1.000  C
  C137     1.0000 0.80300  0.32740  0.56460  Biso   1.000  C
  C138     1.0000 0.08110  0.40310  0.91650  Biso   1.000  C
  C139     1.0000 0.09940  0.30630  0.90620  Biso   1.000  C
  C140     1.0000 0.15650  0.36140  0.91670  Biso   1.000  C
  C141     1.0000 0.24080  0.37050  0.87760  Biso   1.000  C
  C142     1.0000 0.27700  0.33120  0.98780  Biso   1.000  C
  C143     1.0000 0.30000  0.35010  0.04300  Biso   1.000  C
  C144     1.0000 0.27420  0.30770  0.07540  Biso   1.000  C
  C145     1.0000 0.30510  0.32070  0.12960  Biso   1.000  C
  C146     1.0000 0.34850  0.36350  0.14270  Biso   1.000  C
  C147     1.0000 0.37600  0.40610  0.11800  Biso   1.000  C
  C148     1.0000 0.34900  0.39750  0.06200  Biso   1.000  C
  C149     1.0000 0.38250  0.37020  0.19470  Biso   1.000  C
  C150     1.0000 0.58650  0.37610  0.37930  Biso   1.000  C
  C151     1.0000 0.64210  0.36390  0.42690  Biso   1.000  C
  C152     1.0000 0.60400  0.37360  0.47410  Biso   1.000  C
  C153     1.0000 0.65720  0.35970  0.51870  Biso   1.000  C
  C154     1.0000 0.74790  0.33620  0.51540  Biso   1.000  C
  C155     1.0000 0.78630  0.32650  0.46660  Biso   1.000  C
  C156     1.0000 0.73420  0.34010  0.42120  Biso   1.000  C
  C157     1.0000 0.52910  0.24300  0.30990  Biso   1.000  C
  C158     1.0000 0.54600  0.19500  0.29460  Biso   1.000  C
  C159     1.0000 0.46950  0.16250  0.27870  Biso   1.000  C
  C160     1.0000 0.36830  0.17910  0.27980  Biso   1.000  C
  C161     1.0000 0.35560  0.22660  0.29570  Biso   1.000  C
  C162     1.0000 0.48510  0.10790  0.26240  Biso   1.000  C
  C163     1.0000 0.42290  0.02230  0.23660  Biso   1.000  C
  C164     1.0000 0.40630  0.07210  0.25630  Biso   1.000  C
  C165     1.0000 0.58260  0.09430  0.24840  Biso   1.000  C
  C166     1.0000 0.59820  0.04750  0.23150  Biso   1.000  C
  C167     1.0000 0.75090  0.33790  0.25580  Biso   1.000  C
  C168     1.0000 0.85350  0.34360  0.26480  Biso   1.000  C
  C169     1.0000 0.90770  0.38980  0.26070  Biso   1.000  C
  C170     1.0000 0.85390  0.43230  0.24690  Biso   1.000  C
  C171     1.0000 0.75050  0.42400  0.23620  Biso   1.000  C
  C172     1.0000 0.17990  0.36000  0.28220  Biso   1.000  C
  C173     1.0000 0.08060  0.35620  0.26770  Biso   1.000  C
  C174     1.0000 0.02090  0.39710  0.27390  Biso   1.000  C
  C175     1.0000 0.06480  0.44070  0.29280  Biso   1.000  C
  C176     1.0000 0.16310  0.44420  0.30900  Biso   1.000  C
  N13      1.0000 0.85450  0.87140  0.92040  Biso   1.000  N
  N14      1.0000 0.20040  0.86350  0.53020  Biso   1.000  N
  N15      1.0000 0.22010  0.90370  0.19800  Biso   1.000  N
  N16      1.0000 0.43530  0.75890  0.18940  Biso   1.000  N
  N17      1.0000 0.70240  0.87810  0.26110  Biso   1.000  N
  N18      1.0000 0.51980  0.51040  0.27600  Biso   1.000  N
  N19      1.0000 0.85450  0.37140  0.57960  Biso   1.000  N
  N20      1.0000 0.20040  0.36350  0.96980  Biso   1.000  N
  N21      1.0000 0.22010  0.40370  0.30200  Biso   1.000  N
  N22      1.0000 0.43530  0.25890  0.31060  Biso   1.000  N
  N23      1.0000 0.70240  0.37810  0.23890  Biso   1.000  N
  N24      1.0000 0.51980  0.01040  0.22400  Biso   1.000  N
  O55      1.0000 0.17840  0.88690  0.84670  Biso   1.000  O
  O56      1.0000 0.01990  0.81880  0.81570  Biso   1.000  O
  O57      1.0000 0.00150  0.91950  0.80620  Biso   1.000  O
  O58      1.0000 0.86470  0.74980  0.78500  Biso   1.000  O
  O59      1.0000 0.85250  0.85290  0.77650  Biso   1.000  O
  O60      1.0000 0.82980  0.95410  0.76690  Biso   1.000  O
  O61      1.0000 0.19870  0.82820  0.76390  Biso   1.000  O
  O62      1.0000 0.04580  0.76140  0.73450  Biso   1.000  O
  O63      1.0000 0.17630  0.92940  0.75470  Biso   1.000  O
  O64      1.0000 0.02590  0.86250  0.72450  Biso   1.000  O
  O65      1.0000 0.87550  0.79560  0.69350  Biso   1.000  O
  O66      1.0000 0.00710  0.96190  0.71410  Biso   1.000  O
  O67      1.0000 0.85660  0.89500  0.68550  Biso   1.000  O
  O68      1.0000 0.22290  0.76810  0.68170  Biso   1.000  O
  O69      1.0000 0.20290  0.87000  0.67350  Biso   1.000  O
  O70      1.0000 0.04970  0.80450  0.64240  Biso   1.000  O
  O71      1.0000 0.18570  0.97380  0.66330  Biso   1.000  O
  O72      1.0000 0.03350  0.90520  0.63280  Biso   1.000  O
  O73      1.0000 0.88200  0.84020  0.59980  Biso   1.000  O
  O74      1.0000 0.38820  0.83390  0.27440  Biso   1.000  O
  O75      1.0000 0.40390  0.91630  0.28760  Biso   1.000  O
  O76      1.0000 0.62340  0.86430  0.16310  Biso   1.000  O
  O77      1.0000 0.50010  0.89570  0.11830  Biso   1.000  O
  O78      1.0000 0.31720  0.90850  0.18220  Biso   1.000  O
  O79      1.0000 0.41720  0.80450  0.17070  Biso   1.000  O
  O80      1.0000 0.60060  0.87190  0.26980  Biso   1.000  O
  O81      1.0000 0.53990  0.46680  0.29670  Biso   1.000  O
  O82      1.0000 0.17840  0.38690  0.65330  Biso   1.000  O
  O83      1.0000 0.01990  0.31880  0.68430  Biso   1.000  O
  O84      1.0000 0.00150  0.41950  0.69380  Biso   1.000  O
  O85      1.0000 0.86470  0.24980  0.71500  Biso   1.000  O
  O86      1.0000 0.85250  0.35290  0.72350  Biso   1.000  O
  O87      1.0000 0.82980  0.45410  0.73310  Biso   1.000  O
  O88      1.0000 0.19870  0.32820  0.73610  Biso   1.000  O
  O89      1.0000 0.04580  0.26140  0.76550  Biso   1.000  O
  O90      1.0000 0.17630  0.42940  0.74530  Biso   1.000  O
  O91      1.0000 0.02590  0.36250  0.77550  Biso   1.000  O
  O92      1.0000 0.87550  0.29560  0.80650  Biso   1.000  O
  O93      1.0000 0.00710  0.46190  0.78590  Biso   1.000  O
  O94      1.0000 0.85660  0.39500  0.81450  Biso   1.000  O
  O95      1.0000 0.22290  0.26810  0.81830  Biso   1.000  O
  O96      1.0000 0.20290  0.37000  0.82650  Biso   1.000  O
  O97      1.0000 0.04970  0.30450  0.85760  Biso   1.000  O
  O98      1.0000 0.18570  0.47380  0.83670  Biso   1.000  O
  O99      1.0000 0.03350  0.40520  0.86720  Biso   1.000  O
  O100     1.0000 0.88200  0.34020  0.90020  Biso   1.000  O
  O101     1.0000 0.38820  0.33390  0.22560  Biso   1.000  O
  O102     1.0000 0.40390  0.41630  0.21240  Biso   1.000  O
  O103     1.0000 0.62340  0.36430  0.33690  Biso   1.000  O
  O104     1.0000 0.50010  0.39570  0.38170  Biso   1.000  O
  O105     1.0000 0.31720  0.40850  0.31780  Biso   1.000  O
  O106     1.0000 0.41720  0.30450  0.32930  Biso   1.000  O
  O107     1.0000 0.60060  0.37190  0.23020  Biso   1.000  O
  O108     1.0000 0.53990  0.96680  0.20330  Biso   1.000  O
