data_image0
_cell_length_a       13.102
_cell_length_b       26.104
_cell_length_c       26.279
_cell_angle_alpha    90
_cell_angle_beta     90
_cell_angle_gamma    93.923

_symmetry_space_group_name_H-M    P 1
_symmetry_int_tables_number       1

loop_
  _symmetry_equiv_pos_as_xyz
  'x, y, z'

loop_
  _atom_site_label
  _atom_site_occupancy
  _atom_site_fract_x
  _atom_site_fract_y
  _atom_site_fract_z
  _atom_site_thermal_displace_type
  _atom_site_B_iso_or_equiv
  _atom_site_type_symbol
  Tb1      1.0000 0.52725  0.61657  0.70990  Biso   1.000  Tb
  Tb2      1.0000 0.52725  0.11657  0.79010  Biso   1.000  Tb
  V1       1.0000 0.86110  0.69547  0.20393  Biso   1.000  V
  V2       1.0000 0.87890  0.57119  0.19339  Biso   1.000  V
  V3       1.0000 0.06820  0.65140  0.15427  Biso   1.000  V
  V4       1.0000 0.08570  0.58174  0.24451  Biso   1.000  V
  V5       1.0000 0.06740  0.70540  0.25567  Biso   1.000  V
  V6       1.0000 0.87890  0.62510  0.29492  Biso   1.000  V
  V7       1.0000 0.86110  0.19547  0.29607  Biso   1.000  V
  V8       1.0000 0.87890  0.07119  0.30661  Biso   1.000  V
  V9       1.0000 0.06820  0.15140  0.34573  Biso   1.000  V
  V10      1.0000 0.08570  0.08174  0.25549  Biso   1.000  V
  V11      1.0000 0.06740  0.20540  0.24433  Biso   1.000  V
  V12      1.0000 0.87890  0.12510  0.20508  Biso   1.000  V
  H1       1.0000 0.97720  0.67070  0.39010  Biso   1.000  H
  H2       1.0000 0.06810  0.71030  0.37110  Biso   1.000  H
  H3       1.0000 0.22610  0.67620  0.33530  Biso   1.000  H
  H4       1.0000 0.23380  0.61560  0.32780  Biso   1.000  H
  H5       1.0000 0.09250  0.55450  0.36140  Biso   1.000  H
  H6       1.0000 0.99180  0.57810  0.38420  Biso   1.000  H
  H7       1.0000 0.14140  0.69370  0.44030  Biso   1.000  H
  H8       1.0000 0.23890  0.68070  0.40770  Biso   1.000  H
  H9       1.0000 0.88260  0.56260  0.07700  Biso   1.000  H
  H10      1.0000 0.97130  0.60360  0.05820  Biso   1.000  H
  H11      1.0000 0.94910  0.69980  0.06710  Biso   1.000  H
  H12      1.0000 0.84700  0.71800  0.09270  Biso   1.000  H
  H13      1.0000 0.71230  0.65740  0.11840  Biso   1.000  H
  H14      1.0000 0.72090  0.59670  0.11540  Biso   1.000  H
  H15      1.0000 0.76390  0.70400  0.01480  Biso   1.000  H
  H16      1.0000 0.67130  0.66530  0.03420  Biso   1.000  H
  H17      1.0000 0.76300  0.72330  0.93170  Biso   1.000  H
  H18      1.0000 0.71760  0.70940  0.84540  Biso   1.000  H
  H19      1.0000 0.59380  0.56160  0.87750  Biso   1.000  H
  H20      1.0000 0.64540  0.58350  0.96040  Biso   1.000  H
  H21      1.0000 0.46100  0.61090  0.52190  Biso   1.000  H
  H22      1.0000 0.37250  0.63440  0.44640  Biso   1.000  H
  H23      1.0000 0.14940  0.68850  0.53480  Biso   1.000  H
  H24      1.0000 0.23480  0.66650  0.61070  Biso   1.000  H
  H25      1.0000 0.41300  0.23430  0.82030  Biso   1.000  H
  H26      1.0000 0.38570  0.31580  0.79390  Biso   1.000  H
  H27      1.0000 0.68770  0.34330  0.76990  Biso   1.000  H
  H28      1.0000 0.71080  0.26080  0.79470  Biso   1.000  H
  H29      1.0000 0.63350  0.50230  0.73120  Biso   1.000  H
  H30      1.0000 0.66010  0.41910  0.76590  Biso   1.000  H
  H31      1.0000 0.36120  0.38070  0.75030  Biso   1.000  H
  H32      1.0000 0.33370  0.45950  0.72250  Biso   1.000  H
  H33      1.0000 0.28600  0.69490  0.73730  Biso   1.000  H
  H34      1.0000 0.11180  0.68540  0.72590  Biso   1.000  H
  H35      1.0000 0.11370  0.53520  0.75910  Biso   1.000  H
  H36      1.0000 0.28610  0.54800  0.77270  Biso   1.000  H
  H37      1.0000 0.77720  0.66730  0.72150  Biso   1.000  H
  H38      1.0000 0.94860  0.67510  0.74770  Biso   1.000  H
  H39      1.0000 0.97620  0.53170  0.70440  Biso   1.000  H
  H40      1.0000 0.80910  0.52470  0.67590  Biso   1.000  H
  H41      1.0000 0.13710  0.60010  0.43790  Biso   1.000  H
  H42      1.0000 0.82120  0.61310  0.00900  Biso   1.000  H
  H43      1.0000 0.97720  0.17070  0.10990  Biso   1.000  H
  H44      1.0000 0.06810  0.21030  0.12890  Biso   1.000  H
  H45      1.0000 0.22610  0.17620  0.16470  Biso   1.000  H
  H46      1.0000 0.23380  0.11560  0.17220  Biso   1.000  H
  H47      1.0000 0.09250  0.05450  0.13860  Biso   1.000  H
  H48      1.0000 0.99180  0.07810  0.11580  Biso   1.000  H
  H49      1.0000 0.14140  0.19370  0.05970  Biso   1.000  H
  H50      1.0000 0.23890  0.18070  0.09230  Biso   1.000  H
  H51      1.0000 0.88260  0.06260  0.42300  Biso   1.000  H
  H52      1.0000 0.97130  0.10360  0.44180  Biso   1.000  H
  H53      1.0000 0.94910  0.19980  0.43290  Biso   1.000  H
  H54      1.0000 0.84700  0.21800  0.40730  Biso   1.000  H
  H55      1.0000 0.71230  0.15740  0.38160  Biso   1.000  H
  H56      1.0000 0.72090  0.09670  0.38460  Biso   1.000  H
  H57      1.0000 0.76390  0.20400  0.48520  Biso   1.000  H
  H58      1.0000 0.67130  0.16530  0.46580  Biso   1.000  H
  H59      1.0000 0.76300  0.22330  0.56830  Biso   1.000  H
  H60      1.0000 0.71760  0.20940  0.65460  Biso   1.000  H
  H61      1.0000 0.59380  0.06160  0.62250  Biso   1.000  H
  H62      1.0000 0.64540  0.08350  0.53960  Biso   1.000  H
  H63      1.0000 0.46100  0.11090  0.97810  Biso   1.000  H
  H64      1.0000 0.37250  0.13440  0.05360  Biso   1.000  H
  H65      1.0000 0.14940  0.18850  0.96520  Biso   1.000  H
  H66      1.0000 0.23480  0.16650  0.88930  Biso   1.000  H
  H67      1.0000 0.41300  0.73430  0.67970  Biso   1.000  H
  H68      1.0000 0.38570  0.81580  0.70610  Biso   1.000  H
  H69      1.0000 0.68770  0.84330  0.73010  Biso   1.000  H
  H70      1.0000 0.71080  0.76080  0.70530  Biso   1.000  H
  H71      1.0000 0.63350  0.00230  0.76880  Biso   1.000  H
  H72      1.0000 0.66010  0.91910  0.73410  Biso   1.000  H
  H73      1.0000 0.36120  0.88070  0.74970  Biso   1.000  H
  H74      1.0000 0.33370  0.95950  0.77750  Biso   1.000  H
  H75      1.0000 0.28600  0.19490  0.76270  Biso   1.000  H
  H76      1.0000 0.11180  0.18540  0.77410  Biso   1.000  H
  H77      1.0000 0.11370  0.03520  0.74090  Biso   1.000  H
  H78      1.0000 0.28610  0.04800  0.72730  Biso   1.000  H
  H79      1.0000 0.77720  0.16730  0.77850  Biso   1.000  H
  H80      1.0000 0.94860  0.17510  0.75230  Biso   1.000  H
  H81      1.0000 0.97620  0.03170  0.79560  Biso   1.000  H
  H82      1.0000 0.80910  0.02470  0.82410  Biso   1.000  H
  H83      1.0000 0.13710  0.10010  0.06210  Biso   1.000  H
  H84      1.0000 0.82120  0.11310  0.49100  Biso   1.000  H
  C1       1.0000 0.02900  0.67740  0.36320  Biso   1.000  C
  C2       1.0000 0.18680  0.64370  0.32620  Biso   1.000  C
  C3       1.0000 0.10300  0.63360  0.36270  Biso   1.000  C
  C4       1.0000 0.04550  0.58240  0.35770  Biso   1.000  C
  C5       1.0000 0.19200  0.66770  0.43490  Biso   1.000  C
  C6       1.0000 0.91900  0.59630  0.08470  Biso   1.000  C
  C7       1.0000 0.89830  0.69190  0.09430  Biso   1.000  C
  C8       1.0000 0.84300  0.63750  0.08400  Biso   1.000  C
  C9       1.0000 0.75990  0.62980  0.12230  Biso   1.000  C
  C10      1.0000 0.73400  0.66800  0.01300  Biso   1.000  C
  C11      1.0000 0.70900  0.65300  0.95900  Biso   1.000  C
  C12      1.0000 0.73000  0.69100  0.92180  Biso   1.000  C
  C13      1.0000 0.70300  0.68350  0.87020  Biso   1.000  C
  C14      1.0000 0.65400  0.63640  0.85680  Biso   1.000  C
  C15      1.0000 0.62700  0.59400  0.88700  Biso   1.000  C
  C16      1.0000 0.66000  0.61000  0.93600  Biso   1.000  C
  C17      1.0000 0.61760  0.63060  0.80480  Biso   1.000  C
  C18      1.0000 0.41300  0.62340  0.62080  Biso   1.000  C
  C19      1.0000 0.35900  0.63570  0.57310  Biso   1.000  C
  C20      1.0000 0.39800  0.62670  0.52480  Biso   1.000  C
  C21      1.0000 0.34500  0.64080  0.47910  Biso   1.000  C
  C22      1.0000 0.25500  0.66370  0.48440  Biso   1.000  C
  C23      1.0000 0.21300  0.67300  0.53270  Biso   1.000  C
  C24      1.0000 0.26300  0.65980  0.57830  Biso   1.000  C
  C25      1.0000 0.46910  0.25680  0.80980  Biso   1.000  C
  C26      1.0000 0.45340  0.30500  0.79400  Biso   1.000  C
  C27      1.0000 0.53010  0.33800  0.77860  Biso   1.000  C
  C28      1.0000 0.63080  0.32100  0.77970  Biso   1.000  C
  C29      1.0000 0.64400  0.27270  0.79500  Biso   1.000  C
  C30      1.0000 0.51580  0.39220  0.76220  Biso   1.000  C
  C31      1.0000 0.57740  0.47780  0.73610  Biso   1.000  C
  C32      1.0000 0.59310  0.42720  0.75650  Biso   1.000  C
  C33      1.0000 0.41730  0.40560  0.74770  Biso   1.000  C
  C34      1.0000 0.40160  0.45170  0.73060  Biso   1.000  C
  C35      1.0000 0.24940  0.66290  0.74370  Biso   1.000  C
  C36      1.0000 0.14720  0.65630  0.73520  Biso   1.000  C
  C37      1.0000 0.09210  0.61010  0.73940  Biso   1.000  C
  C38      1.0000 0.14710  0.56840  0.75500  Biso   1.000  C
  C39      1.0000 0.24820  0.57650  0.76410  Biso   1.000  C
  C40      1.0000 0.81880  0.63920  0.71750  Biso   1.000  C
  C41      1.0000 0.92040  0.64400  0.73290  Biso   1.000  C
  C42      1.0000 0.97950  0.60270  0.72620  Biso   1.000  C
  C43      1.0000 0.93640  0.56070  0.70730  Biso   1.000  C
  C44      1.0000 0.83670  0.55570  0.69110  Biso   1.000  C
  C45      1.0000 0.02900  0.17740  0.13680  Biso   1.000  C
  C46      1.0000 0.18680  0.14370  0.17380  Biso   1.000  C
  C47      1.0000 0.10300  0.13360  0.13730  Biso   1.000  C
  C48      1.0000 0.04550  0.08240  0.14230  Biso   1.000  C
  C49      1.0000 0.19200  0.16770  0.06510  Biso   1.000  C
  C50      1.0000 0.91900  0.09630  0.41530  Biso   1.000  C
  C51      1.0000 0.89830  0.19190  0.40570  Biso   1.000  C
  C52      1.0000 0.84300  0.13750  0.41600  Biso   1.000  C
  C53      1.0000 0.75990  0.12980  0.37770  Biso   1.000  C
  C54      1.0000 0.73400  0.16800  0.48700  Biso   1.000  C
  C55      1.0000 0.70900  0.15300  0.54100  Biso   1.000  C
  C56      1.0000 0.73000  0.19100  0.57820  Biso   1.000  C
  C57      1.0000 0.70300  0.18350  0.62980  Biso   1.000  C
  C58      1.0000 0.65400  0.13640  0.64320  Biso   1.000  C
  C59      1.0000 0.62700  0.09400  0.61300  Biso   1.000  C
  C60      1.0000 0.66000  0.11000  0.56400  Biso   1.000  C
  C61      1.0000 0.61760  0.13060  0.69520  Biso   1.000  C
  C62      1.0000 0.41300  0.12340  0.87920  Biso   1.000  C
  C63      1.0000 0.35900  0.13570  0.92690  Biso   1.000  C
  C64      1.0000 0.39800  0.12670  0.97520  Biso   1.000  C
  C65      1.0000 0.34500  0.14080  0.02090  Biso   1.000  C
  C66      1.0000 0.25500  0.16370  0.01560  Biso   1.000  C
  C67      1.0000 0.21300  0.17300  0.96730  Biso   1.000  C
  C68      1.0000 0.26300  0.15980  0.92170  Biso   1.000  C
  C69      1.0000 0.46910  0.75680  0.69020  Biso   1.000  C
  C70      1.0000 0.45340  0.80500  0.70600  Biso   1.000  C
  C71      1.0000 0.53010  0.83800  0.72140  Biso   1.000  C
  C72      1.0000 0.63080  0.82100  0.72030  Biso   1.000  C
  C73      1.0000 0.64400  0.77270  0.70500  Biso   1.000  C
  C74      1.0000 0.51580  0.89220  0.73780  Biso   1.000  C
  C75      1.0000 0.57740  0.97780  0.76390  Biso   1.000  C
  C76      1.0000 0.59310  0.92720  0.74350  Biso   1.000  C
  C77      1.0000 0.41730  0.90560  0.75230  Biso   1.000  C
  C78      1.0000 0.40160  0.95170  0.76940  Biso   1.000  C
  C79      1.0000 0.24940  0.16290  0.75630  Biso   1.000  C
  C80      1.0000 0.14720  0.15630  0.76480  Biso   1.000  C
  C81      1.0000 0.09210  0.11010  0.76060  Biso   1.000  C
  C82      1.0000 0.14710  0.06840  0.74500  Biso   1.000  C
  C83      1.0000 0.24820  0.07650  0.73590  Biso   1.000  C
  C84      1.0000 0.81880  0.13920  0.78250  Biso   1.000  C
  C85      1.0000 0.92040  0.14400  0.76710  Biso   1.000  C
  C86      1.0000 0.97950  0.10270  0.77380  Biso   1.000  C
  C87      1.0000 0.93640  0.06070  0.79270  Biso   1.000  C
  C88      1.0000 0.83670  0.05570  0.80890  Biso   1.000  C
  N1       1.0000 0.14600  0.62830  0.41960  Biso   1.000  N
  N2       1.0000 0.80000  0.63640  0.03010  Biso   1.000  N
  N3       1.0000 0.77930  0.59580  0.69730  Biso   1.000  N
  N4       1.0000 0.56550  0.24090  0.81060  Biso   1.000  N
  N5       1.0000 0.29700  0.62260  0.76140  Biso   1.000  N
  N6       1.0000 0.48020  0.48930  0.72410  Biso   1.000  N
  N7       1.0000 0.14600  0.12830  0.08040  Biso   1.000  N
  N8       1.0000 0.80000  0.13640  0.46990  Biso   1.000  N
  N9       1.0000 0.77930  0.09580  0.80270  Biso   1.000  N
  N10      1.0000 0.56550  0.74090  0.68940  Biso   1.000  N
  N11      1.0000 0.29700  0.12260  0.73860  Biso   1.000  N
  N12      1.0000 0.48020  0.98930  0.77590  Biso   1.000  N
  O1       1.0000 0.82260  0.61380  0.34690  Biso   1.000  O
  O2       1.0000 0.98020  0.68130  0.31580  Biso   1.000  O
  O3       1.0000 0.99890  0.58140  0.30610  Biso   1.000  O
  O4       1.0000 0.13550  0.74990  0.28490  Biso   1.000  O
  O5       1.0000 0.14760  0.64730  0.27670  Biso   1.000  O
  O6       1.0000 0.17030  0.54590  0.26680  Biso   1.000  O
  O7       1.0000 0.80170  0.67180  0.26360  Biso   1.000  O
  O8       1.0000 0.95420  0.73870  0.23470  Biso   1.000  O
  O9       1.0000 0.82360  0.57080  0.25460  Biso   1.000  O
  O10      1.0000 0.97410  0.63740  0.22450  Biso   1.000  O
  O11      1.0000 0.12370  0.70490  0.19380  Biso   1.000  O
  O12      1.0000 0.99270  0.53840  0.21350  Biso   1.000  O
  O13      1.0000 0.14220  0.60440  0.18590  Biso   1.000  O
  O14      1.0000 0.77710  0.73250  0.18190  Biso   1.000  O
  O15      1.0000 0.79680  0.62980  0.17390  Biso   1.000  O
  O16      1.0000 0.94920  0.69580  0.14270  Biso   1.000  O
  O17      1.0000 0.81510  0.52700  0.16330  Biso   1.000  O
  O18      1.0000 0.96550  0.59440  0.13260  Biso   1.000  O
  O19      1.0000 0.11640  0.65920  0.09990  Biso   1.000  O
  O20      1.0000 0.61090  0.66660  0.77440  Biso   1.000  O
  O21      1.0000 0.59600  0.58340  0.78690  Biso   1.000  O
  O22      1.0000 0.37700  0.63570  0.66380  Biso   1.000  O
  O23      1.0000 0.49950  0.60470  0.61840  Biso   1.000  O
  O24      1.0000 0.68250  0.59110  0.68190  Biso   1.000  O
  O25      1.0000 0.58230  0.19510  0.82930  Biso   1.000  O
  O26      1.0000 0.39920  0.62860  0.77050  Biso   1.000  O
  O27      1.0000 0.46110  0.53300  0.70330  Biso   1.000  O
  O28      1.0000 0.82260  0.11380  0.15310  Biso   1.000  O
  O29      1.0000 0.98020  0.18130  0.18420  Biso   1.000  O
  O30      1.0000 0.99890  0.08140  0.19390  Biso   1.000  O
  O31      1.0000 0.13550  0.24990  0.21510  Biso   1.000  O
  O32      1.0000 0.14760  0.14730  0.22330  Biso   1.000  O
  O33      1.0000 0.17030  0.04590  0.23320  Biso   1.000  O
  O34      1.0000 0.80170  0.17180  0.23640  Biso   1.000  O
  O35      1.0000 0.95420  0.23870  0.26530  Biso   1.000  O
  O36      1.0000 0.82360  0.07080  0.24540  Biso   1.000  O
  O37      1.0000 0.97410  0.13740  0.27550  Biso   1.000  O
  O38      1.0000 0.12370  0.20490  0.30620  Biso   1.000  O
  O39      1.0000 0.99270  0.03840  0.28650  Biso   1.000  O
  O40      1.0000 0.14220  0.10440  0.31410  Biso   1.000  O
  O41      1.0000 0.77710  0.23250  0.31810  Biso   1.000  O
  O42      1.0000 0.79680  0.12980  0.32610  Biso   1.000  O
  O43      1.0000 0.94920  0.19580  0.35730  Biso   1.000  O
  O44      1.0000 0.81510  0.02700  0.33670  Biso   1.000  O
  O45      1.0000 0.96550  0.09440  0.36740  Biso   1.000  O
  O46      1.0000 0.11640  0.15920  0.40010  Biso   1.000  O
  O47      1.0000 0.61090  0.16660  0.72560  Biso   1.000  O
  O48      1.0000 0.59600  0.08340  0.71310  Biso   1.000  O
  O49      1.0000 0.37700  0.13570  0.83620  Biso   1.000  O
  O50      1.0000 0.49950  0.10470  0.88160  Biso   1.000  O
  O51      1.0000 0.68250  0.09110  0.81810  Biso   1.000  O
  O52      1.0000 0.58230  0.69510  0.67070  Biso   1.000  O
  O53      1.0000 0.39920  0.12860  0.72950  Biso   1.000  O
  O54      1.0000 0.46110  0.03300  0.79670  Biso   1.000  O
  Tb3      1.0000 0.47275  0.88343  0.20990  Biso   1.000  Tb
  Tb4      1.0000 0.47275  0.38343  0.29010  Biso   1.000  Tb
  V13      1.0000 0.13890  0.80453  0.70393  Biso   1.000  V
  V14      1.0000 0.12110  0.92881  0.69339  Biso   1.000  V
  V15      1.0000 0.93180  0.84860  0.65427  Biso   1.000  V
  V16      1.0000 0.91430  0.91826  0.74451  Biso   1.000  V
  V17      1.0000 0.93260  0.79460  0.75567  Biso   1.000  V
  V18      1.0000 0.12110  0.87490  0.79492  Biso   1.000  V
  V19      1.0000 0.13890  0.30453  0.79607  Biso   1.000  V
  V20      1.0000 0.12110  0.42881  0.80661  Biso   1.000  V
  V21      1.0000 0.93180  0.34860  0.84573  Biso   1.000  V
  V22      1.0000 0.91430  0.41826  0.75549  Biso   1.000  V
  V23      1.0000 0.93260  0.29460  0.74433  Biso   1.000  V
  V24      1.0000 0.12110  0.37490  0.70508  Biso   1.000  V
  H85      1.0000 0.02280  0.82930  0.89010  Biso   1.000  H
  H86      1.0000 0.93190  0.78970  0.87110  Biso   1.000  H
  H87      1.0000 0.77390  0.82380  0.83530  Biso   1.000  H
  H88      1.0000 0.76620  0.88440  0.82780  Biso   1.000  H
  H89      1.0000 0.90750  0.94550  0.86140  Biso   1.000  H
  H90      1.0000 0.00820  0.92190  0.88420  Biso   1.000  H
  H91      1.0000 0.85860  0.80630  0.94030  Biso   1.000  H
  H92      1.0000 0.76110  0.81930  0.90770  Biso   1.000  H
  H93      1.0000 0.11740  0.93740  0.57700  Biso   1.000  H
  H94      1.0000 0.02870  0.89640  0.55820  Biso   1.000  H
  H95      1.0000 0.05090  0.80020  0.56710  Biso   1.000  H
  H96      1.0000 0.15300  0.78200  0.59270  Biso   1.000  H
  H97      1.0000 0.28770  0.84260  0.61840  Biso   1.000  H
  H98      1.0000 0.27910  0.90330  0.61540  Biso   1.000  H
  H99      1.0000 0.23610  0.79600  0.51480  Biso   1.000  H
  H100     1.0000 0.32870  0.83470  0.53420  Biso   1.000  H
  H101     1.0000 0.23700  0.77670  0.43170  Biso   1.000  H
  H102     1.0000 0.28240  0.79060  0.34540  Biso   1.000  H
  H103     1.0000 0.40620  0.93840  0.37750  Biso   1.000  H
  H104     1.0000 0.35460  0.91650  0.46040  Biso   1.000  H
  H105     1.0000 0.53900  0.88910  0.02190  Biso   1.000  H
  H106     1.0000 0.62750  0.86560  0.94640  Biso   1.000  H
  H107     1.0000 0.85060  0.81150  0.03480  Biso   1.000  H
  H108     1.0000 0.76520  0.83350  0.11070  Biso   1.000  H
  H109     1.0000 0.58700  0.26570  0.32030  Biso   1.000  H
  H110     1.0000 0.61430  0.18420  0.29390  Biso   1.000  H
  H111     1.0000 0.31230  0.15670  0.26990  Biso   1.000  H
  H112     1.0000 0.28920  0.23920  0.29470  Biso   1.000  H
  H113     1.0000 0.36650  0.99770  0.23120  Biso   1.000  H
  H114     1.0000 0.33990  0.08090  0.26590  Biso   1.000  H
  H115     1.0000 0.63880  0.11930  0.25030  Biso   1.000  H
  H116     1.0000 0.66630  0.04050  0.22250  Biso   1.000  H
  H117     1.0000 0.71400  0.80510  0.23730  Biso   1.000  H
  H118     1.0000 0.88820  0.81460  0.22590  Biso   1.000  H
  H119     1.0000 0.88630  0.96480  0.25910  Biso   1.000  H
  H120     1.0000 0.71390  0.95200  0.27270  Biso   1.000  H
  H121     1.0000 0.22280  0.83270  0.22150  Biso   1.000  H
  H122     1.0000 0.05140  0.82490  0.24770  Biso   1.000  H
  H123     1.0000 0.02380  0.96830  0.20440  Biso   1.000  H
  H124     1.0000 0.19090  0.97530  0.17590  Biso   1.000  H
  H125     1.0000 0.86290  0.89990  0.93790  Biso   1.000  H
  H126     1.0000 0.17880  0.88690  0.50900  Biso   1.000  H
  H127     1.0000 0.02280  0.32930  0.60990  Biso   1.000  H
  H128     1.0000 0.93190  0.28970  0.62890  Biso   1.000  H
  H129     1.0000 0.77390  0.32380  0.66470  Biso   1.000  H
  H130     1.0000 0.76620  0.38440  0.67220  Biso   1.000  H
  H131     1.0000 0.90750  0.44550  0.63860  Biso   1.000  H
  H132     1.0000 0.00820  0.42190  0.61580  Biso   1.000  H
  H133     1.0000 0.85860  0.30630  0.55970  Biso   1.000  H
  H134     1.0000 0.76110  0.31930  0.59230  Biso   1.000  H
  H135     1.0000 0.11740  0.43740  0.92300  Biso   1.000  H
  H136     1.0000 0.02870  0.39640  0.94180  Biso   1.000  H
  H137     1.0000 0.05090  0.30020  0.93290  Biso   1.000  H
  H138     1.0000 0.15300  0.28200  0.90730  Biso   1.000  H
  H139     1.0000 0.28770  0.34260  0.88160  Biso   1.000  H
  H140     1.0000 0.27910  0.40330  0.88460  Biso   1.000  H
  H141     1.0000 0.23610  0.29600  0.98520  Biso   1.000  H
  H142     1.0000 0.32870  0.33470  0.96580  Biso   1.000  H
  H143     1.0000 0.23700  0.27670  0.06830  Biso   1.000  H
  H144     1.0000 0.28240  0.29060  0.15460  Biso   1.000  H
  H145     1.0000 0.40620  0.43840  0.12250  Biso   1.000  H
  H146     1.0000 0.35460  0.41650  0.03960  Biso   1.000  H
  H147     1.0000 0.53900  0.38910  0.47810  Biso   1.000  H
  H148     1.0000 0.62750  0.36560  0.55360  Biso   1.000  H
  H149     1.0000 0.85060  0.31150  0.46520  Biso   1.000  H
  H150     1.0000 0.76520  0.33350  0.38930  Biso   1.000  H
  H151     1.0000 0.58700  0.76570  0.17970  Biso   1.000  H
  H152     1.0000 0.61430  0.68420  0.20610  Biso   1.000  H
  H153     1.0000 0.31230  0.65670  0.23010  Biso   1.000  H
  H154     1.0000 0.28920  0.73920  0.20530  Biso   1.000  H
  H155     1.0000 0.36650  0.49770  0.26880  Biso   1.000  H
  H156     1.0000 0.33990  0.58090  0.23410  Biso   1.000  H
  H157     1.0000 0.63880  0.61930  0.24970  Biso   1.000  H
  H158     1.0000 0.66630  0.54050  0.27750  Biso   1.000  H
  H159     1.0000 0.71400  0.30510  0.26270  Biso   1.000  H
  H160     1.0000 0.88820  0.31460  0.27410  Biso   1.000  H
  H161     1.0000 0.88630  0.46480  0.24090  Biso   1.000  H
  H162     1.0000 0.71390  0.45200  0.22730  Biso   1.000  H
  H163     1.0000 0.22280  0.33270  0.27850  Biso   1.000  H
  H164     1.0000 0.05140  0.32490  0.25230  Biso   1.000  H
  H165     1.0000 0.02380  0.46830  0.29560  Biso   1.000  H
  H166     1.0000 0.19090  0.47530  0.32410  Biso   1.000  H
  H167     1.0000 0.86290  0.39990  0.56210  Biso   1.000  H
  H168     1.0000 0.17880  0.38690  0.99100  Biso   1.000  H
  C89      1.0000 0.97100  0.82260  0.86320  Biso   1.000  C
  C90      1.0000 0.81320  0.85630  0.82620  Biso   1.000  C
  C91      1.0000 0.89700  0.86640  0.86270  Biso   1.000  C
  C92      1.0000 0.95450  0.91760  0.85770  Biso   1.000  C
  C93      1.0000 0.80800  0.83230  0.93490  Biso   1.000  C
  C94      1.0000 0.08100  0.90370  0.58470  Biso   1.000  C
  C95      1.0000 0.10170  0.80810  0.59430  Biso   1.000  C
  C96      1.0000 0.15700  0.86250  0.58400  Biso   1.000  C
  C97      1.0000 0.24010  0.87020  0.62230  Biso   1.000  C
  C98      1.0000 0.26600  0.83200  0.51300  Biso   1.000  C
  C99      1.0000 0.29100  0.84700  0.45900  Biso   1.000  C
  C100     1.0000 0.27000  0.80900  0.42180  Biso   1.000  C
  C101     1.0000 0.29700  0.81650  0.37020  Biso   1.000  C
  C102     1.0000 0.34600  0.86360  0.35680  Biso   1.000  C
  C103     1.0000 0.37300  0.90600  0.38700  Biso   1.000  C
  C104     1.0000 0.34000  0.89000  0.43600  Biso   1.000  C
  C105     1.0000 0.38240  0.86940  0.30480  Biso   1.000  C
  C106     1.0000 0.58700  0.87660  0.12080  Biso   1.000  C
  C107     1.0000 0.64100  0.86430  0.07310  Biso   1.000  C
  C108     1.0000 0.60200  0.87330  0.02480  Biso   1.000  C
  C109     1.0000 0.65500  0.85920  0.97910  Biso   1.000  C
  C110     1.0000 0.74500  0.83630  0.98440  Biso   1.000  C
  C111     1.0000 0.78700  0.82700  0.03270  Biso   1.000  C
  C112     1.0000 0.73700  0.84020  0.07830  Biso   1.000  C
  C113     1.0000 0.53090  0.24320  0.30980  Biso   1.000  C
  C114     1.0000 0.54660  0.19500  0.29400  Biso   1.000  C
  C115     1.0000 0.46990  0.16200  0.27860  Biso   1.000  C
  C116     1.0000 0.36920  0.17900  0.27970  Biso   1.000  C
  C117     1.0000 0.35600  0.22730  0.29500  Biso   1.000  C
  C118     1.0000 0.48420  0.10780  0.26220  Biso   1.000  C
  C119     1.0000 0.42260  0.02220  0.23610  Biso   1.000  C
  C120     1.0000 0.40690  0.07280  0.25650  Biso   1.000  C
  C121     1.0000 0.58270  0.09440  0.24770  Biso   1.000  C
  C122     1.0000 0.59840  0.04830  0.23060  Biso   1.000  C
  C123     1.0000 0.75060  0.83710  0.24370  Biso   1.000  C
  C124     1.0000 0.85280  0.84370  0.23520  Biso   1.000  C
  C125     1.0000 0.90790  0.88990  0.23940  Biso   1.000  C
  C126     1.0000 0.85290  0.93160  0.25500  Biso   1.000  C
  C127     1.0000 0.75180  0.92350  0.26410  Biso   1.000  C
  C128     1.0000 0.18120  0.86080  0.21750  Biso   1.000  C
  C129     1.0000 0.07960  0.85600  0.23290  Biso   1.000  C
  C130     1.0000 0.02050  0.89730  0.22620  Biso   1.000  C
  C131     1.0000 0.06360  0.93930  0.20730  Biso   1.000  C
  C132     1.0000 0.16330  0.94430  0.19110  Biso   1.000  C
  C133     1.0000 0.97100  0.32260  0.63680  Biso   1.000  C
  C134     1.0000 0.81320  0.35630  0.67380  Biso   1.000  C
  C135     1.0000 0.89700  0.36640  0.63730  Biso   1.000  C
  C136     1.0000 0.95450  0.41760  0.64230  Biso   1.000  C
  C137     1.0000 0.80800  0.33230  0.56510  Biso   1.000  C
  C138     1.0000 0.08100  0.40370  0.91530  Biso   1.000  C
  C139     1.0000 0.10170  0.30810  0.90570  Biso   1.000  C
  C140     1.0000 0.15700  0.36250  0.91600  Biso   1.000  C
  C141     1.0000 0.24010  0.37020  0.87770  Biso   1.000  C
  C142     1.0000 0.26600  0.33200  0.98700  Biso   1.000  C
  C143     1.0000 0.29100  0.34700  0.04100  Biso   1.000  C
  C144     1.0000 0.27000  0.30900  0.07820  Biso   1.000  C
  C145     1.0000 0.29700  0.31650  0.12980  Biso   1.000  C
  C146     1.0000 0.34600  0.36360  0.14320  Biso   1.000  C
  C147     1.0000 0.37300  0.40600  0.11300  Biso   1.000  C
  C148     1.0000 0.34000  0.39000  0.06400  Biso   1.000  C
  C149     1.0000 0.38240  0.36940  0.19520  Biso   1.000  C
  C150     1.0000 0.58700  0.37660  0.37920  Biso   1.000  C
  C151     1.0000 0.64100  0.36430  0.42690  Biso   1.000  C
  C152     1.0000 0.60200  0.37330  0.47520  Biso   1.000  C
  C153     1.0000 0.65500  0.35920  0.52090  Biso   1.000  C
  C154     1.0000 0.74500  0.33630  0.51560  Biso   1.000  C
  C155     1.0000 0.78700  0.32700  0.46730  Biso   1.000  C
  C156     1.0000 0.73700  0.34020  0.42170  Biso   1.000  C
  C157     1.0000 0.53090  0.74320  0.19020  Biso   1.000  C
  C158     1.0000 0.54660  0.69500  0.20600  Biso   1.000  C
  C159     1.0000 0.46990  0.66200  0.22140  Biso   1.000  C
  C160     1.0000 0.36920  0.67900  0.22030  Biso   1.000  C
  C161     1.0000 0.35600  0.72730  0.20500  Biso   1.000  C
  C162     1.0000 0.48420  0.60780  0.23780  Biso   1.000  C
  C163     1.0000 0.42260  0.52220  0.26390  Biso   1.000  C
  C164     1.0000 0.40690  0.57280  0.24350  Biso   1.000  C
  C165     1.0000 0.58270  0.59440  0.25230  Biso   1.000  C
  C166     1.0000 0.59840  0.54830  0.26940  Biso   1.000  C
  C167     1.0000 0.75060  0.33710  0.25630  Biso   1.000  C
  C168     1.0000 0.85280  0.34370  0.26480  Biso   1.000  C
  C169     1.0000 0.90790  0.38990  0.26060  Biso   1.000  C
  C170     1.0000 0.85290  0.43160  0.24500  Biso   1.000  C
  C171     1.0000 0.75180  0.42350  0.23590  Biso   1.000  C
  C172     1.0000 0.18120  0.36080  0.28250  Biso   1.000  C
  C173     1.0000 0.07960  0.35600  0.26710  Biso   1.000  C
  C174     1.0000 0.02050  0.39730  0.27380  Biso   1.000  C
  C175     1.0000 0.06360  0.43930  0.29270  Biso   1.000  C
  C176     1.0000 0.16330  0.44430  0.30890  Biso   1.000  C
  N13      1.0000 0.85400  0.87170  0.91960  Biso   1.000  N
  N14      1.0000 0.20000  0.86360  0.53010  Biso   1.000  N
  N15      1.0000 0.22070  0.90420  0.19730  Biso   1.000  N
  N16      1.0000 0.43450  0.25910  0.31060  Biso   1.000  N
  N17      1.0000 0.70300  0.87740  0.26140  Biso   1.000  N
  N18      1.0000 0.51980  0.01070  0.22410  Biso   1.000  N
  N19      1.0000 0.85400  0.37170  0.58040  Biso   1.000  N
  N20      1.0000 0.20000  0.36360  0.96990  Biso   1.000  N
  N21      1.0000 0.22070  0.40420  0.30270  Biso   1.000  N
  N22      1.0000 0.43450  0.75910  0.18940  Biso   1.000  N
  N23      1.0000 0.70300  0.37740  0.23860  Biso   1.000  N
  N24      1.0000 0.51980  0.51070  0.27590  Biso   1.000  N
  O55      1.0000 0.17740  0.88620  0.84690  Biso   1.000  O
  O56      1.0000 0.01980  0.81870  0.81580  Biso   1.000  O
  O57      1.0000 0.00110  0.91860  0.80610  Biso   1.000  O
  O58      1.0000 0.86450  0.75010  0.78490  Biso   1.000  O
  O59      1.0000 0.85240  0.85270  0.77670  Biso   1.000  O
  O60      1.0000 0.82970  0.95410  0.76680  Biso   1.000  O
  O61      1.0000 0.19830  0.82820  0.76360  Biso   1.000  O
  O62      1.0000 0.04580  0.76130  0.73470  Biso   1.000  O
  O63      1.0000 0.17640  0.92920  0.75460  Biso   1.000  O
  O64      1.0000 0.02590  0.86260  0.72450  Biso   1.000  O
  O65      1.0000 0.87630  0.79510  0.69380  Biso   1.000  O
  O66      1.0000 0.00730  0.96160  0.71350  Biso   1.000  O
  O67      1.0000 0.85780  0.89560  0.68590  Biso   1.000  O
  O68      1.0000 0.22290  0.76750  0.68190  Biso   1.000  O
  O69      1.0000 0.20320  0.87020  0.67390  Biso   1.000  O
  O70      1.0000 0.05080  0.80420  0.64270  Biso   1.000  O
  O71      1.0000 0.18490  0.97300  0.66330  Biso   1.000  O
  O72      1.0000 0.03450  0.90560  0.63260  Biso   1.000  O
  O73      1.0000 0.88360  0.84080  0.59990  Biso   1.000  O
  O74      1.0000 0.38910  0.83340  0.27440  Biso   1.000  O
  O75      1.0000 0.40400  0.91660  0.28690  Biso   1.000  O
  O76      1.0000 0.62300  0.86430  0.16380  Biso   1.000  O
  O77      1.0000 0.50050  0.89530  0.11840  Biso   1.000  O
  O78      1.0000 0.31750  0.90890  0.18190  Biso   1.000  O
  O79      1.0000 0.41770  0.30490  0.32930  Biso   1.000  O
  O80      1.0000 0.60080  0.87140  0.27050  Biso   1.000  O
  O81      1.0000 0.53890  0.96700  0.20330  Biso   1.000  O
  O82      1.0000 0.17740  0.38620  0.65310  Biso   1.000  O
  O83      1.0000 0.01980  0.31870  0.68420  Biso   1.000  O
  O84      1.0000 0.00110  0.41860  0.69390  Biso   1.000  O
  O85      1.0000 0.86450  0.25010  0.71510  Biso   1.000  O
  O86      1.0000 0.85240  0.35270  0.72330  Biso   1.000  O
  O87      1.0000 0.82970  0.45410  0.73320  Biso   1.000  O
  O88      1.0000 0.19830  0.32820  0.73640  Biso   1.000  O
  O89      1.0000 0.04580  0.26130  0.76530  Biso   1.000  O
  O90      1.0000 0.17640  0.42920  0.74540  Biso   1.000  O
  O91      1.0000 0.02590  0.36260  0.77550  Biso   1.000  O
  O92      1.0000 0.87630  0.29510  0.80620  Biso   1.000  O
  O93      1.0000 0.00730  0.46160  0.78650  Biso   1.000  O
  O94      1.0000 0.85780  0.39560  0.81410  Biso   1.000  O
  O95      1.0000 0.22290  0.26750  0.81810  Biso   1.000  O
  O96      1.0000 0.20320  0.37020  0.82610  Biso   1.000  O
  O97      1.0000 0.05080  0.30420  0.85730  Biso   1.000  O
  O98      1.0000 0.18490  0.47300  0.83670  Biso   1.000  O
  O99      1.0000 0.03450  0.40560  0.86740  Biso   1.000  O
  O100     1.0000 0.88360  0.34080  0.90010  Biso   1.000  O
  O101     1.0000 0.38910  0.33340  0.22560  Biso   1.000  O
  O102     1.0000 0.40400  0.41660  0.21310  Biso   1.000  O
  O103     1.0000 0.62300  0.36430  0.33620  Biso   1.000  O
  O104     1.0000 0.50050  0.39530  0.38160  Biso   1.000  O
  O105     1.0000 0.31750  0.40890  0.31810  Biso   1.000  O
  O106     1.0000 0.41770  0.80490  0.17070  Biso   1.000  O
  O107     1.0000 0.60080  0.37140  0.22950  Biso   1.000  O
  O108     1.0000 0.53890  0.46700  0.29670  Biso   1.000  O
