data_image0
_cell_length_a       16.315
_cell_length_b       17.405
_cell_length_c       18.41
_cell_angle_alpha    89.592
_cell_angle_beta     84.33
_cell_angle_gamma    82.521

_symmetry_space_group_name_H-M    P 1
_symmetry_int_tables_number       1

loop_
  _symmetry_equiv_pos_as_xyz
  'x, y, z'

loop_
  _atom_site_label
  _atom_site_occupancy
  _atom_site_fract_x
  _atom_site_fract_y
  _atom_site_fract_z
  _atom_site_thermal_displace_type
  _atom_site_B_iso_or_equiv
  _atom_site_type_symbol
  Na1      1.0000 0.08878  0.05066  0.00020  Biso   1.000  Na
  Na2      1.0000 0.91122  0.94934  0.99980  Biso   1.000  Na
  Zn1      1.0000 0.52530  0.49890  0.19010  Biso   1.000  Zn
  Zn2      1.0000 0.47470  0.50110  0.80990  Biso   1.000  Zn
  H1       1.0000 0.60530  0.20490  0.15670  Biso   1.000  H
  H2       1.0000 0.45500  0.22220  0.16010  Biso   1.000  H
  H3       1.0000 0.21780  0.46550  0.17590  Biso   1.000  H
  H4       1.0000 0.21800  0.60480  0.17450  Biso   1.000  H
  H5       1.0000 0.44950  0.79400  0.17880  Biso   1.000  H
  H6       1.0000 0.59850  0.77780  0.17820  Biso   1.000  H
  H7       1.0000 0.83620  0.53380  0.16250  Biso   1.000  H
  H8       1.0000 0.83710  0.39250  0.15750  Biso   1.000  H
  H9       1.0000 0.73530  0.25230  0.04950  Biso   1.000  H
  H10      1.0000 0.83710  0.14820  0.03580  Biso   1.000  H
  H11      1.0000 0.88520  0.16890  0.24200  Biso   1.000  H
  H12      1.0000 0.78070  0.27430  0.25950  Biso   1.000  H
  H13      1.0000 0.30490  0.34230  0.05890  Biso   1.000  H
  H14      1.0000 0.20840  0.25800  0.04500  Biso   1.000  H
  H15      1.0000 0.20610  0.20350  0.25760  Biso   1.000  H
  H16      1.0000 0.30260  0.28780  0.27150  Biso   1.000  H
  H17      1.0000 0.36110  0.75760  0.06960  Biso   1.000  H
  H18      1.0000 0.26550  0.86640  0.05630  Biso   1.000  H
  H19      1.0000 0.14130  0.82050  0.24620  Biso   1.000  H
  H20      1.0000 0.24040  0.71560  0.26310  Biso   1.000  H
  H21      1.0000 0.72340  0.71430  0.06720  Biso   1.000  H
  H22      1.0000 0.82350  0.79510  0.05820  Biso   1.000  H
  H23      1.0000 0.88160  0.73740  0.25810  Biso   1.000  H
  H24      1.0000 0.77970  0.65420  0.26820  Biso   1.000  H
  H25      1.0000 0.39470  0.79510  0.84330  Biso   1.000  H
  H26      1.0000 0.54500  0.77780  0.83990  Biso   1.000  H
  H27      1.0000 0.78220  0.53450  0.82410  Biso   1.000  H
  H28      1.0000 0.78200  0.39520  0.82550  Biso   1.000  H
  H29      1.0000 0.55050  0.20600  0.82120  Biso   1.000  H
  H30      1.0000 0.40150  0.22220  0.82180  Biso   1.000  H
  H31      1.0000 0.16380  0.46620  0.83750  Biso   1.000  H
  H32      1.0000 0.16290  0.60750  0.84250  Biso   1.000  H
  H33      1.0000 0.26470  0.74770  0.95050  Biso   1.000  H
  H34      1.0000 0.16290  0.85180  0.96420  Biso   1.000  H
  H35      1.0000 0.11480  0.83110  0.75800  Biso   1.000  H
  H36      1.0000 0.21930  0.72570  0.74050  Biso   1.000  H
  H37      1.0000 0.69510  0.65770  0.94110  Biso   1.000  H
  H38      1.0000 0.79160  0.74200  0.95500  Biso   1.000  H
  H39      1.0000 0.79390  0.79650  0.74240  Biso   1.000  H
  H40      1.0000 0.69740  0.71220  0.72850  Biso   1.000  H
  H41      1.0000 0.63890  0.24240  0.93040  Biso   1.000  H
  H42      1.0000 0.73450  0.13360  0.94370  Biso   1.000  H
  H43      1.0000 0.85870  0.17950  0.75380  Biso   1.000  H
  H44      1.0000 0.75960  0.28440  0.73690  Biso   1.000  H
  H45      1.0000 0.27660  0.28570  0.93280  Biso   1.000  H
  H46      1.0000 0.17650  0.20490  0.94180  Biso   1.000  H
  H47      1.0000 0.11840  0.26260  0.74190  Biso   1.000  H
  H48      1.0000 0.22030  0.34580  0.73180  Biso   1.000  H
  C1       1.0000 0.70430  0.41550  0.16880  Biso   1.000  C
  C2       1.0000 0.67910  0.34210  0.16580  Biso   1.000  C
  C3       1.0000 0.59580  0.32670  0.16680  Biso   1.000  C
  C4       1.0000 0.57060  0.25180  0.16110  Biso   1.000  C
  C5       1.0000 0.48820  0.26140  0.16320  Biso   1.000  C
  C6       1.0000 0.45960  0.34250  0.17120  Biso   1.000  C
  C7       1.0000 0.37750  0.37720  0.17430  Biso   1.000  C
  C8       1.0000 0.34960  0.45640  0.17780  Biso   1.000  C
  C9       1.0000 0.26410  0.49150  0.17640  Biso   1.000  C
  C10      1.0000 0.26430  0.56780  0.17600  Biso   1.000  C
  C11      1.0000 0.34840  0.58340  0.17830  Biso   1.000  C
  C12      1.0000 0.37540  0.65620  0.17600  Biso   1.000  C
  C13      1.0000 0.45800  0.67190  0.17600  Biso   1.000  C
  C14      1.0000 0.48400  0.74700  0.17770  Biso   1.000  C
  C15      1.0000 0.56530  0.73820  0.17750  Biso   1.000  C
  C16      1.0000 0.59420  0.65540  0.17570  Biso   1.000  C
  C17      1.0000 0.67610  0.62200  0.17360  Biso   1.000  C
  C18      1.0000 0.70400  0.54140  0.17260  Biso   1.000  C
  C19      1.0000 0.79000  0.50740  0.16510  Biso   1.000  C
  C20      1.0000 0.79050  0.42970  0.16240  Biso   1.000  C
  C21      1.0000 0.74530  0.27380  0.15610  Biso   1.000  C
  C22      1.0000 0.76430  0.23560  0.08890  Biso   1.000  C
  C23      1.0000 0.82560  0.17340  0.08080  Biso   1.000  C
  C24      1.0000 0.87030  0.14760  0.13740  Biso   1.000  C
  C25      1.0000 0.85420  0.18560  0.20380  Biso   1.000  C
  C26      1.0000 0.79150  0.24900  0.21450  Biso   1.000  C
  C27      1.0000 0.93700  0.07920  0.12720  Biso   1.000  C
  C28      1.0000 0.31330  0.32340  0.16660  Biso   1.000  C
  C29      1.0000 0.28510  0.31450  0.09870  Biso   1.000  C
  C30      1.0000 0.22730  0.26400  0.09040  Biso   1.000  C
  C31      1.0000 0.19770  0.22240  0.14990  Biso   1.000  C
  C32      1.0000 0.22590  0.23130  0.21770  Biso   1.000  C
  C33      1.0000 0.28370  0.28180  0.22610  Biso   1.000  C
  C34      1.0000 0.13380  0.16900  0.13780  Biso   1.000  C
  C35      1.0000 0.31150  0.72520  0.16730  Biso   1.000  C
  C36      1.0000 0.31780  0.77050  0.10590  Biso   1.000  C
  C37      1.0000 0.25990  0.83580  0.09760  Biso   1.000  C
  C38      1.0000 0.19450  0.85490  0.15030  Biso   1.000  C
  C39      1.0000 0.18640  0.80880  0.21130  Biso   1.000  C
  C40      1.0000 0.24520  0.74510  0.22100  Biso   1.000  C
  C41      1.0000 0.13440  0.92580  0.14000  Biso   1.000  C
  C42      1.0000 0.74140  0.67500  0.16840  Biso   1.000  C
  C43      1.0000 0.75520  0.71830  0.10600  Biso   1.000  C
  C44      1.0000 0.81490  0.76680  0.10070  Biso   1.000  C
  C45      1.0000 0.86330  0.77470  0.15800  Biso   1.000  C
  C46      1.0000 0.84980  0.73280  0.21940  Biso   1.000  C
  C47      1.0000 0.78840  0.68240  0.22570  Biso   1.000  C
  C48      1.0000 0.92630  0.82950  0.14930  Biso   1.000  C
  C49      1.0000 0.45300  0.46470  0.34670  Biso   1.000  C
  C50      1.0000 0.44700  0.46480  0.42250  Biso   1.000  C
  C51      1.0000 0.50340  0.49940  0.45894  Biso   1.000  C
  C52      1.0000 0.56590  0.53380  0.41950  Biso   1.000  C
  C53      1.0000 0.57200  0.53370  0.34370  Biso   1.000  C
  C54      1.0000 0.33120  0.04110  0.04650  Biso   1.000  C
  C55      1.0000 0.37760  0.04120  0.10550  Biso   1.000  C
  C56      1.0000 0.45450  0.08480  0.08070  Biso   1.000  C
  C57      1.0000 0.47200  0.10900  0.01440  Biso   1.000  C
  C58      1.0000 0.42830  0.09500  0.95390  Biso   1.000  C
  C59      1.0000 0.35230  0.06170  0.96510  Biso   1.000  C
  C60      1.0000 0.29540  0.04400  0.91450  Biso   1.000  C
  C61      1.0000 0.27000  0.03600  0.79440  Biso   1.000  C
  C62      1.0000 0.28350  0.96430  0.77980  Biso   1.000  C
  C63      1.0000 0.29570  0.58450  0.83120  Biso   1.000  C
  C64      1.0000 0.32090  0.65790  0.83420  Biso   1.000  C
  C65      1.0000 0.40420  0.67330  0.83320  Biso   1.000  C
  C66      1.0000 0.42940  0.74820  0.83890  Biso   1.000  C
  C67      1.0000 0.51180  0.73860  0.83680  Biso   1.000  C
  C68      1.0000 0.54040  0.65750  0.82880  Biso   1.000  C
  C69      1.0000 0.62250  0.62280  0.82570  Biso   1.000  C
  C70      1.0000 0.65040  0.54360  0.82220  Biso   1.000  C
  C71      1.0000 0.73590  0.50850  0.82360  Biso   1.000  C
  C72      1.0000 0.73570  0.43220  0.82400  Biso   1.000  C
  C73      1.0000 0.65160  0.41660  0.82170  Biso   1.000  C
  C74      1.0000 0.62460  0.34380  0.82400  Biso   1.000  C
  C75      1.0000 0.54200  0.32810  0.82400  Biso   1.000  C
  C76      1.0000 0.51600  0.25300  0.82230  Biso   1.000  C
  C77      1.0000 0.43470  0.26180  0.82250  Biso   1.000  C
  C78      1.0000 0.40580  0.34460  0.82430  Biso   1.000  C
  C79      1.0000 0.32390  0.37800  0.82640  Biso   1.000  C
  C80      1.0000 0.29600  0.45860  0.82740  Biso   1.000  C
  C81      1.0000 0.21000  0.49260  0.83490  Biso   1.000  C
  C82      1.0000 0.20950  0.57030  0.83760  Biso   1.000  C
  C83      1.0000 0.25470  0.72620  0.84390  Biso   1.000  C
  C84      1.0000 0.23570  0.76440  0.91110  Biso   1.000  C
  C85      1.0000 0.17440  0.82660  0.91920  Biso   1.000  C
  C86      1.0000 0.12970  0.85240  0.86260  Biso   1.000  C
  C87      1.0000 0.14580  0.81440  0.79620  Biso   1.000  C
  C88      1.0000 0.20850  0.75100  0.78550  Biso   1.000  C
  C89      1.0000 0.06300  0.92080  0.87280  Biso   1.000  C
  C90      1.0000 0.68670  0.67660  0.83340  Biso   1.000  C
  C91      1.0000 0.71490  0.68550  0.90130  Biso   1.000  C
  C92      1.0000 0.77270  0.73600  0.90960  Biso   1.000  C
  C93      1.0000 0.80230  0.77760  0.85010  Biso   1.000  C
  C94      1.0000 0.77410  0.76870  0.78230  Biso   1.000  C
  C95      1.0000 0.71630  0.71820  0.77390  Biso   1.000  C
  C96      1.0000 0.86620  0.83100  0.86220  Biso   1.000  C
  C97      1.0000 0.68850  0.27480  0.83270  Biso   1.000  C
  C98      1.0000 0.68220  0.22950  0.89410  Biso   1.000  C
  C99      1.0000 0.74010  0.16420  0.90240  Biso   1.000  C
  C100     1.0000 0.80550  0.14510  0.84970  Biso   1.000  C
  C101     1.0000 0.81360  0.19120  0.78870  Biso   1.000  C
  C102     1.0000 0.75480  0.25490  0.77900  Biso   1.000  C
  C103     1.0000 0.86560  0.07420  0.86000  Biso   1.000  C
  C104     1.0000 0.25860  0.32500  0.83160  Biso   1.000  C
  C105     1.0000 0.24480  0.28170  0.89400  Biso   1.000  C
  C106     1.0000 0.18510  0.23320  0.89930  Biso   1.000  C
  C107     1.0000 0.13670  0.22530  0.84200  Biso   1.000  C
  C108     1.0000 0.15020  0.26720  0.78060  Biso   1.000  C
  C109     1.0000 0.21160  0.31760  0.77430  Biso   1.000  C
  C110     1.0000 0.07370  0.17050  0.85070  Biso   1.000  C
  C111     1.0000 0.54700  0.53530  0.65330  Biso   1.000  C
  C112     1.0000 0.55300  0.53520  0.57750  Biso   1.000  C
  C113     1.0000 0.49660  0.50060  0.54106  Biso   1.000  C
  C114     1.0000 0.43410  0.46620  0.58050  Biso   1.000  C
  C115     1.0000 0.42800  0.46630  0.65630  Biso   1.000  C
  C116     1.0000 0.66880  0.95890  0.95350  Biso   1.000  C
  C117     1.0000 0.62240  0.95880  0.89450  Biso   1.000  C
  C118     1.0000 0.54550  0.91520  0.91930  Biso   1.000  C
  C119     1.0000 0.52800  0.89100  0.98560  Biso   1.000  C
  C120     1.0000 0.57170  0.90500  0.04610  Biso   1.000  C
  C121     1.0000 0.64770  0.93830  0.03490  Biso   1.000  C
  C122     1.0000 0.70460  0.95600  0.08550  Biso   1.000  C
  C123     1.0000 0.73000  0.96400  0.20560  Biso   1.000  C
  C124     1.0000 0.71650  0.03570  0.22020  Biso   1.000  C
  N1       1.0000 0.52810  0.38130  0.17370  Biso   1.000  N
  N2       1.0000 0.39950  0.51390  0.17990  Biso   1.000  N
  N3       1.0000 0.52570  0.61640  0.17710  Biso   1.000  N
  N4       1.0000 0.65430  0.48440  0.17470  Biso   1.000  N
  N5       1.0000 0.51550  0.49920  0.30725  Biso   1.000  N
  N6       1.0000 0.47190  0.61870  0.82630  Biso   1.000  N
  N7       1.0000 0.60050  0.48610  0.82010  Biso   1.000  N
  N8       1.0000 0.47430  0.38360  0.82290  Biso   1.000  N
  N9       1.0000 0.34570  0.51560  0.82530  Biso   1.000  N
  N10      1.0000 0.48450  0.50080  0.69275  Biso   1.000  N
  O1       1.0000 0.95470  0.04850  0.06710  Biso   1.000  O
  O2       1.0000 0.97340  0.05840  0.18330  Biso   1.000  O
  O3       1.0000 0.11710  0.15190  0.07780  Biso   1.000  O
  O4       1.0000 0.08890  0.15210  0.20220  Biso   1.000  O
  O5       1.0000 0.14740  0.97060  0.09000  Biso   1.000  O
  O6       1.0000 0.07080  0.93710  0.18840  Biso   1.000  O
  O7       1.0000 0.94090  0.86610  0.09570  Biso   1.000  O
  O8       1.0000 0.96720  0.83250  0.20880  Biso   1.000  O
  O9       1.0000 0.22610  0.03190  0.93300  Biso   1.000  O
  O10      1.0000 0.32550  0.05440  0.85040  Biso   1.000  O
  O11      1.0000 0.04530  0.95150  0.93290  Biso   1.000  O
  O12      1.0000 0.02660  0.94160  0.81670  Biso   1.000  O
  O13      1.0000 0.88290  0.84810  0.92220  Biso   1.000  O
  O14      1.0000 0.91110  0.84790  0.79780  Biso   1.000  O
  O15      1.0000 0.85260  0.02940  0.91000  Biso   1.000  O
  O16      1.0000 0.92920  0.06290  0.81160  Biso   1.000  O
  O17      1.0000 0.05910  0.13390  0.90430  Biso   1.000  O
  O18      1.0000 0.03280  0.16750  0.79120  Biso   1.000  O
  O19      1.0000 0.77390  0.96810  0.06700  Biso   1.000  O
  O20      1.0000 0.67450  0.94560  0.14960  Biso   1.000  O
