data_image0
_cell_length_a       8.79
_cell_length_b       23.6997
_cell_length_c       25.2853
_cell_angle_alpha    85.4157
_cell_angle_beta     79.9902
_cell_angle_gamma    79.3129

_symmetry_space_group_name_H-M    P 1
_symmetry_int_tables_number       1

loop_
  _symmetry_equiv_pos_as_xyz
  'x, y, z'

loop_
  _atom_site_label
  _atom_site_occupancy
  _atom_site_fract_x
  _atom_site_fract_y
  _atom_site_fract_z
  _atom_site_thermal_displace_type
  _atom_site_B_iso_or_equiv
  _atom_site_type_symbol
  K1       1.0000 0.68711  0.48755  0.04743  Biso   1.000  K
  K2       1.0000 0.72209  0.01245  0.45257  Biso   1.000  K
  K3       1.0000 0.31289  0.51245  0.95257  Biso   1.000  K
  K4       1.0000 0.27791  0.98755  0.54743  Biso   1.000  K
  Cu1      1.0000 0.72293  0.50987  0.54969  Biso   1.000  Cu
  Cu2      1.0000 0.28249  0.99013  0.95031  Biso   1.000  Cu
  Cu3      1.0000 0.27707  0.49013  0.45031  Biso   1.000  Cu
  Cu4      1.0000 0.71751  0.00987  0.04969  Biso   1.000  Cu
  H1       1.0000 0.84420  0.39860  0.72240  Biso   1.000  H
  H2       1.0000 0.95910  0.33120  0.65140  Biso   1.000  H
  H3       1.0000 0.09850  0.35740  0.43920  Biso   1.000  H
  H4       1.0000 0.00200  0.42820  0.37140  Biso   1.000  H
  H5       1.0000 0.50480  0.59960  0.38340  Biso   1.000  H
  H6       1.0000 0.36350  0.66190  0.45430  Biso   1.000  H
  H7       1.0000 0.43870  0.68240  0.65620  Biso   1.000  H
  H8       1.0000 0.56170  0.61770  0.72270  Biso   1.000  H
  H9       1.0000 0.87500  0.56040  0.74180  Biso   1.000  H
  H10      1.0000 0.87520  0.55970  0.83330  Biso   1.000  H
  H11      1.0000 0.55470  0.45590  0.85870  Biso   1.000  H
  H12      1.0000 0.55230  0.45780  0.76780  Biso   1.000  H
  H13      1.0000 0.23810  0.33490  0.57370  Biso   1.000  H
  H14      1.0000 0.36780  0.24100  0.57920  Biso   1.000  H
  H15      1.0000 0.02050  0.18730  0.52610  Biso   1.000  H
  H16      1.0000 0.89360  0.28180  0.51780  Biso   1.000  H
  H17      1.0000 0.45500  0.11300  0.56500  Biso   1.000  H
  H18      1.0000 0.71110  0.43560  0.34740  Biso   1.000  H
  H19      1.0000 0.72840  0.43790  0.25430  Biso   1.000  H
  H20      1.0000 0.82530  0.59700  0.24540  Biso   1.000  H
  H21      1.0000 0.79920  0.59580  0.33820  Biso   1.000  H
  H22      1.0000 0.87300  0.54000  0.12000  Biso   1.000  H
  H23      1.0000 0.50320  0.73840  0.50640  Biso   1.000  H
  H24      1.0000 0.34670  0.82690  0.50970  Biso   1.000  H
  H25      1.0000 0.01960  0.76110  0.61390  Biso   1.000  H
  H26      1.0000 0.18390  0.67110  0.60910  Biso   1.000  H
  H27      1.0000 0.46520  0.10140  0.77760  Biso   1.000  H
  H28      1.0000 0.44170  0.16880  0.84860  Biso   1.000  H
  H29      1.0000 0.39510  0.14260  0.06080  Biso   1.000  H
  H30      1.0000 0.30160  0.07180  0.12860  Biso   1.000  H
  H31      1.0000 0.98780  0.90040  0.11660  Biso   1.000  H
  H32      1.0000 0.97970  0.83810  0.04570  Biso   1.000  H
  H33      1.0000 0.27730  0.81760  0.84380  Biso   1.000  H
  H34      1.0000 0.40210  0.88230  0.77730  Biso   1.000  H
  H35      1.0000 0.67720  0.93960  0.75820  Biso   1.000  H
  H36      1.0000 0.76820  0.94030  0.66670  Biso   1.000  H
  H37      1.0000 0.36930  0.04410  0.64130  Biso   1.000  H
  H38      1.0000 0.27790  0.04220  0.73220  Biso   1.000  H
  H39      1.0000 0.64670  0.16510  0.92630  Biso   1.000  H
  H40      1.0000 0.68800  0.25900  0.92080  Biso   1.000  H
  H41      1.0000 0.23390  0.31270  0.97390  Biso   1.000  H
  H42      1.0000 0.19320  0.21820  0.98220  Biso   1.000  H
  H43      1.0000 0.63300  0.38700  0.93500  Biso   1.000  H
  H44      1.0000 0.99410  0.06440  0.15260  Biso   1.000  H
  H45      1.0000 0.92060  0.06210  0.24570  Biso   1.000  H
  H46      1.0000 0.16770  0.90300  0.25460  Biso   1.000  H
  H47      1.0000 0.23320  0.90420  0.16180  Biso   1.000  H
  H48      1.0000 0.03300  0.96000  0.38000  Biso   1.000  H
  H49      1.0000 0.24800  0.76160  0.99360  Biso   1.000  H
  H50      1.0000 0.18330  0.67310  0.99030  Biso   1.000  H
  H51      1.0000 0.89460  0.73890  0.88610  Biso   1.000  H
  H52      1.0000 0.96410  0.82890  0.89090  Biso   1.000  H
  H53      1.0000 0.15580  0.60140  0.27760  Biso   1.000  H
  H54      1.0000 0.04090  0.66880  0.34860  Biso   1.000  H
  H55      1.0000 0.90150  0.64260  0.56080  Biso   1.000  H
  H56      1.0000 0.99800  0.57180  0.62860  Biso   1.000  H
  H57      1.0000 0.49520  0.40040  0.61660  Biso   1.000  H
  H58      1.0000 0.63650  0.33810  0.54570  Biso   1.000  H
  H59      1.0000 0.56130  0.31760  0.34380  Biso   1.000  H
  H60      1.0000 0.43830  0.38230  0.27730  Biso   1.000  H
  H61      1.0000 0.12500  0.43960  0.25820  Biso   1.000  H
  H62      1.0000 0.12480  0.44030  0.16670  Biso   1.000  H
  H63      1.0000 0.44530  0.54410  0.14130  Biso   1.000  H
  H64      1.0000 0.44770  0.54220  0.23220  Biso   1.000  H
  H65      1.0000 0.76190  0.66510  0.42630  Biso   1.000  H
  H66      1.0000 0.63220  0.75900  0.42080  Biso   1.000  H
  H67      1.0000 0.97950  0.81270  0.47390  Biso   1.000  H
  H68      1.0000 0.10640  0.71820  0.48220  Biso   1.000  H
  H69      1.0000 0.54500  0.88700  0.43500  Biso   1.000  H
  H70      1.0000 0.28890  0.56440  0.65260  Biso   1.000  H
  H71      1.0000 0.27160  0.56210  0.74570  Biso   1.000  H
  H72      1.0000 0.17470  0.40300  0.75460  Biso   1.000  H
  H73      1.0000 0.20080  0.40420  0.66180  Biso   1.000  H
  H74      1.0000 0.12700  0.46000  0.88000  Biso   1.000  H
  H75      1.0000 0.49680  0.26160  0.49360  Biso   1.000  H
  H76      1.0000 0.65330  0.17310  0.49030  Biso   1.000  H
  H77      1.0000 0.98040  0.23890  0.38610  Biso   1.000  H
  H78      1.0000 0.81610  0.32890  0.39090  Biso   1.000  H
  H79      1.0000 0.53480  0.89860  0.22240  Biso   1.000  H
  H80      1.0000 0.55830  0.83120  0.15140  Biso   1.000  H
  H81      1.0000 0.60490  0.85740  0.93920  Biso   1.000  H
  H82      1.0000 0.69840  0.92820  0.87140  Biso   1.000  H
  H83      1.0000 0.01220  0.09960  0.88340  Biso   1.000  H
  H84      1.0000 0.02030  0.16190  0.95430  Biso   1.000  H
  H85      1.0000 0.72270  0.18240  0.15620  Biso   1.000  H
  H86      1.0000 0.59790  0.11770  0.22270  Biso   1.000  H
  H87      1.0000 0.32280  0.06040  0.24180  Biso   1.000  H
  H88      1.0000 0.23180  0.05970  0.33330  Biso   1.000  H
  H89      1.0000 0.63070  0.95590  0.35870  Biso   1.000  H
  H90      1.0000 0.72210  0.95780  0.26780  Biso   1.000  H
  H91      1.0000 0.35330  0.83490  0.07370  Biso   1.000  H
  H92      1.0000 0.31200  0.74100  0.07920  Biso   1.000  H
  H93      1.0000 0.76610  0.68730  0.02610  Biso   1.000  H
  H94      1.0000 0.80680  0.78180  0.01780  Biso   1.000  H
  H95      1.0000 0.36700  0.61300  0.06500  Biso   1.000  H
  H96      1.0000 0.00590  0.93560  0.84740  Biso   1.000  H
  H97      1.0000 0.07940  0.93790  0.75430  Biso   1.000  H
  H98      1.0000 0.83230  0.09700  0.74540  Biso   1.000  H
  H99      1.0000 0.76680  0.09580  0.83820  Biso   1.000  H
  H100     1.0000 0.96700  0.04000  0.62000  Biso   1.000  H
  H101     1.0000 0.75200  0.23840  0.00640  Biso   1.000  H
  H102     1.0000 0.81670  0.32690  0.00970  Biso   1.000  H
  H103     1.0000 0.10540  0.26110  0.11390  Biso   1.000  H
  H104     1.0000 0.03590  0.17110  0.10910  Biso   1.000  H
  C1       1.0000 0.64260  0.55830  0.65950  Biso   1.000  C
  C2       1.0000 0.71430  0.50910  0.68570  Biso   1.000  C
  C3       1.0000 0.78260  0.45910  0.65930  Biso   1.000  C
  C4       1.0000 0.84680  0.40600  0.68560  Biso   1.000  C
  C5       1.0000 0.91130  0.36930  0.64650  Biso   1.000  C
  C6       1.0000 0.89310  0.39940  0.59560  Biso   1.000  C
  C7       1.0000 0.95810  0.37830  0.54670  Biso   1.000  C
  C8       1.0000 0.94040  0.40840  0.49780  Biso   1.000  C
  C9       1.0000 0.02220  0.38990  0.44570  Biso   1.000  C
  C10      1.0000 0.96810  0.42830  0.40830  Biso   1.000  C
  C11      1.0000 0.84700  0.47000  0.43680  Biso   1.000  C
  C12      1.0000 0.74670  0.51330  0.41250  Biso   1.000  C
  C13      1.0000 0.63560  0.55430  0.44130  Biso   1.000  C
  C14      1.0000 0.52170  0.59670  0.41890  Biso   1.000  C
  C15      1.0000 0.44450  0.63110  0.45770  Biso   1.000  C
  C16      1.0000 0.51020  0.61180  0.50580  Biso   1.000  C
  C17      1.0000 0.47080  0.63830  0.55410  Biso   1.000  C
  C18      1.0000 0.53030  0.61670  0.60030  Biso   1.000  C
  C19      1.0000 0.49670  0.64580  0.65060  Biso   1.000  C
  C20      1.0000 0.56410  0.61050  0.68690  Biso   1.000  C
  C21      1.0000 0.71330  0.50900  0.74440  Biso   1.000  C
  C22      1.0000 0.81020  0.53940  0.76520  Biso   1.000  C
  C23      1.0000 0.81140  0.53870  0.82030  Biso   1.000  C
  C24      1.0000 0.71810  0.50710  0.85510  Biso   1.000  C
  C25      1.0000 0.61940  0.47690  0.83510  Biso   1.000  C
  C26      1.0000 0.61820  0.47810  0.78050  Biso   1.000  C
  C27      1.0000 0.72150  0.50490  0.91450  Biso   1.000  C
  C28      1.0000 0.05240  0.31800  0.54600  Biso   1.000  C
  C29      1.0000 0.19380  0.30540  0.56380  Biso   1.000  C
  C30      1.0000 0.27160  0.24910  0.56710  Biso   1.000  C
  C31      1.0000 0.20740  0.20510  0.55270  Biso   1.000  C
  C32      1.0000 0.06540  0.21710  0.53510  Biso   1.000  C
  C33      1.0000 0.98840  0.27360  0.53080  Biso   1.000  C
  C34      1.0000 0.28700  0.14390  0.55630  Biso   1.000  C
  C35      1.0000 0.75610  0.51480  0.35280  Biso   1.000  C
  C36      1.0000 0.73400  0.46820  0.32700  Biso   1.000  C
  C37      1.0000 0.74510  0.46930  0.27090  Biso   1.000  C
  C38      1.0000 0.78120  0.51750  0.24090  Biso   1.000  C
  C39      1.0000 0.80170  0.56450  0.26590  Biso   1.000  C
  C40      1.0000 0.78750  0.56350  0.32170  Biso   1.000  C
  C41      1.0000 0.79420  0.51630  0.18090  Biso   1.000  C
  C42      1.0000 0.36230  0.69520  0.55680  Biso   1.000  C
  C43      1.0000 0.40550  0.74240  0.52820  Biso   1.000  C
  C44      1.0000 0.31240  0.79580  0.52980  Biso   1.000  C
  C45      1.0000 0.16720  0.80260  0.56200  Biso   1.000  C
  C46      1.0000 0.11710  0.75680  0.59200  Biso   1.000  C
  C47      1.0000 0.21700  0.70240  0.58900  Biso   1.000  C
  C48      1.0000 0.06610  0.86050  0.56230  Biso   1.000  C
  C49      1.0000 0.36040  0.94170  0.84050  Biso   1.000  C
  C50      1.0000 0.40910  0.99090  0.81430  Biso   1.000  C
  C51      1.0000 0.40100  0.04090  0.84070  Biso   1.000  C
  C52      1.0000 0.43840  0.09400  0.81440  Biso   1.000  C
  C53      1.0000 0.42710  0.13070  0.85350  Biso   1.000  C
  C54      1.0000 0.38810  0.10060  0.90440  Biso   1.000  C
  C55      1.0000 0.38310  0.12170  0.95330  Biso   1.000  C
  C56      1.0000 0.34660  0.09160  0.00220  Biso   1.000  C
  C57      1.0000 0.35780  0.11010  0.05430  Biso   1.000  C
  C58      1.0000 0.30470  0.07170  0.09170  Biso   1.000  C
  C59      1.0000 0.25380  0.03000  0.06320  Biso   1.000  C
  C60      1.0000 0.17250  0.98670  0.08750  Biso   1.000  C
  C61      1.0000 0.13120  0.94570  0.05870  Biso   1.000  C
  C62      1.0000 0.03730  0.90330  0.08110  Biso   1.000  C
  C63      1.0000 0.03330  0.86890  0.04230  Biso   1.000  C
  C64      1.0000 0.12780  0.88820  0.99420  Biso   1.000  C
  C65      1.0000 0.16320  0.86170  0.94590  Biso   1.000  C
  C66      1.0000 0.24730  0.88330  0.89970  Biso   1.000  C
  C67      1.0000 0.29310  0.85420  0.84940  Biso   1.000  C
  C68      1.0000 0.36150  0.88950  0.81310  Biso   1.000  C
  C69      1.0000 0.46670  0.99100  0.75560  Biso   1.000  C
  C70      1.0000 0.61480  0.96060  0.73480  Biso   1.000  C
  C71      1.0000 0.67040  0.96130  0.67970  Biso   1.000  C
  C72      1.0000 0.58030  0.99290  0.64490  Biso   1.000  C
  C73      1.0000 0.43140  0.02310  0.66490  Biso   1.000  C
  C74      1.0000 0.37680  0.02190  0.71950  Biso   1.000  C
  C75      1.0000 0.64090  0.99510  0.58550  Biso   1.000  C
  C76      1.0000 0.41640  0.18200  0.95400  Biso   1.000  C
  C77      1.0000 0.56300  0.19460  0.93620  Biso   1.000  C
  C78      1.0000 0.58780  0.25090  0.93290  Biso   1.000  C
  C79      1.0000 0.46520  0.29490  0.94730  Biso   1.000  C
  C80      1.0000 0.31760  0.28290  0.96490  Biso   1.000  C
  C81      1.0000 0.29280  0.22640  0.96920  Biso   1.000  C
  C82      1.0000 0.48720  0.35610  0.94370  Biso   1.000  C
  C83      1.0000 0.12370  0.98520  0.14720  Biso   1.000  C
  C84      1.0000 0.02920  0.03180  0.17300  Biso   1.000  C
  C85      1.0000 0.98530  0.03070  0.22910  Biso   1.000  C
  C86      1.0000 0.03960  0.98250  0.25910  Biso   1.000  C
  C87      1.0000 0.13210  0.93550  0.23410  Biso   1.000  C
  C88      1.0000 0.17270  0.93650  0.17830  Biso   1.000  C
  C89      1.0000 0.99140  0.98370  0.31910  Biso   1.000  C
  C90      1.0000 0.11430  0.80480  0.94320  Biso   1.000  C
  C91      1.0000 0.17610  0.75760  0.97180  Biso   1.000  C
  C92      1.0000 0.13800  0.70420  0.97020  Biso   1.000  C
  C93      1.0000 0.03180  0.69740  0.93800  Biso   1.000  C
  C94      1.0000 0.96590  0.74320  0.90800  Biso   1.000  C
  C95      1.0000 0.00840  0.79760  0.91100  Biso   1.000  C
  C96      1.0000 0.98890  0.63950  0.93770  Biso   1.000  C
  C97      1.0000 0.35740  0.44170  0.34050  Biso   1.000  C
  C98      1.0000 0.28570  0.49090  0.31430  Biso   1.000  C
  C99      1.0000 0.21740  0.54090  0.34070  Biso   1.000  C
  C100     1.0000 0.15320  0.59400  0.31440  Biso   1.000  C
  C101     1.0000 0.08870  0.63070  0.35350  Biso   1.000  C
  C102     1.0000 0.10690  0.60060  0.40440  Biso   1.000  C
  C103     1.0000 0.04190  0.62170  0.45330  Biso   1.000  C
  C104     1.0000 0.05960  0.59160  0.50220  Biso   1.000  C
  C105     1.0000 0.97780  0.61010  0.55430  Biso   1.000  C
  C106     1.0000 0.03190  0.57170  0.59170  Biso   1.000  C
  C107     1.0000 0.15300  0.53000  0.56320  Biso   1.000  C
  C108     1.0000 0.25330  0.48670  0.58750  Biso   1.000  C
  C109     1.0000 0.36440  0.44570  0.55870  Biso   1.000  C
  C110     1.0000 0.47830  0.40330  0.58110  Biso   1.000  C
  C111     1.0000 0.55550  0.36890  0.54230  Biso   1.000  C
  C112     1.0000 0.48980  0.38820  0.49420  Biso   1.000  C
  C113     1.0000 0.52920  0.36170  0.44590  Biso   1.000  C
  C114     1.0000 0.46970  0.38330  0.39970  Biso   1.000  C
  C115     1.0000 0.50330  0.35420  0.34940  Biso   1.000  C
  C116     1.0000 0.43590  0.38950  0.31310  Biso   1.000  C
  C117     1.0000 0.28670  0.49100  0.25560  Biso   1.000  C
  C118     1.0000 0.18980  0.46060  0.23480  Biso   1.000  C
  C119     1.0000 0.18860  0.46130  0.17970  Biso   1.000  C
  C120     1.0000 0.28190  0.49290  0.14490  Biso   1.000  C
  C121     1.0000 0.38060  0.52310  0.16490  Biso   1.000  C
  C122     1.0000 0.38180  0.52190  0.21950  Biso   1.000  C
  C123     1.0000 0.27850  0.49510  0.08550  Biso   1.000  C
  C124     1.0000 0.94760  0.68200  0.45400  Biso   1.000  C
  C125     1.0000 0.80620  0.69460  0.43620  Biso   1.000  C
  C126     1.0000 0.72840  0.75090  0.43290  Biso   1.000  C
  C127     1.0000 0.79260  0.79490  0.44730  Biso   1.000  C
  C128     1.0000 0.93460  0.78290  0.46490  Biso   1.000  C
  C129     1.0000 0.01160  0.72640  0.46920  Biso   1.000  C
  C130     1.0000 0.71300  0.85610  0.44370  Biso   1.000  C
  C131     1.0000 0.24390  0.48520  0.64720  Biso   1.000  C
  C132     1.0000 0.26600  0.53180  0.67300  Biso   1.000  C
  C133     1.0000 0.25490  0.53070  0.72910  Biso   1.000  C
  C134     1.0000 0.21880  0.48250  0.75910  Biso   1.000  C
  C135     1.0000 0.19830  0.43550  0.73410  Biso   1.000  C
  C136     1.0000 0.21250  0.43650  0.67830  Biso   1.000  C
  C137     1.0000 0.20580  0.48370  0.81910  Biso   1.000  C
  C138     1.0000 0.63770  0.30480  0.44320  Biso   1.000  C
  C139     1.0000 0.59450  0.25760  0.47180  Biso   1.000  C
  C140     1.0000 0.68760  0.20420  0.47020  Biso   1.000  C
  C141     1.0000 0.83280  0.19740  0.43800  Biso   1.000  C
  C142     1.0000 0.88290  0.24320  0.40800  Biso   1.000  C
  C143     1.0000 0.78300  0.29760  0.41100  Biso   1.000  C
  C144     1.0000 0.93390  0.13950  0.43770  Biso   1.000  C
  C145     1.0000 0.63960  0.05830  0.15950  Biso   1.000  C
  C146     1.0000 0.59090  0.00910  0.18570  Biso   1.000  C
  C147     1.0000 0.59900  0.95910  0.15930  Biso   1.000  C
  C148     1.0000 0.56160  0.90600  0.18560  Biso   1.000  C
  C149     1.0000 0.57290  0.86930  0.14650  Biso   1.000  C
  C150     1.0000 0.61190  0.89940  0.09560  Biso   1.000  C
  C151     1.0000 0.61690  0.87830  0.04670  Biso   1.000  C
  C152     1.0000 0.65340  0.90840  0.99780  Biso   1.000  C
  C153     1.0000 0.64220  0.88990  0.94570  Biso   1.000  C
  C154     1.0000 0.69530  0.92830  0.90830  Biso   1.000  C
  C155     1.0000 0.74620  0.97000  0.93680  Biso   1.000  C
  C156     1.0000 0.82750  0.01330  0.91250  Biso   1.000  C
  C157     1.0000 0.86880  0.05430  0.94130  Biso   1.000  C
  C158     1.0000 0.96270  0.09670  0.91890  Biso   1.000  C
  C159     1.0000 0.96670  0.13110  0.95770  Biso   1.000  C
  C160     1.0000 0.87220  0.11180  0.00580  Biso   1.000  C
  C161     1.0000 0.83680  0.13830  0.05410  Biso   1.000  C
  C162     1.0000 0.75270  0.11670  0.10030  Biso   1.000  C
  C163     1.0000 0.70690  0.14580  0.15060  Biso   1.000  C
  C164     1.0000 0.63850  0.11050  0.18690  Biso   1.000  C
  C165     1.0000 0.53330  0.00900  0.24440  Biso   1.000  C
  C166     1.0000 0.38520  0.03940  0.26520  Biso   1.000  C
  C167     1.0000 0.32960  0.03870  0.32030  Biso   1.000  C
  C168     1.0000 0.41970  0.00710  0.35510  Biso   1.000  C
  C169     1.0000 0.56860  0.97690  0.33510  Biso   1.000  C
  C170     1.0000 0.62320  0.97810  0.28050  Biso   1.000  C
  C171     1.0000 0.35910  0.00490  0.41450  Biso   1.000  C
  C172     1.0000 0.58360  0.81800  0.04600  Biso   1.000  C
  C173     1.0000 0.43700  0.80540  0.06380  Biso   1.000  C
  C174     1.0000 0.41220  0.74910  0.06710  Biso   1.000  C
  C175     1.0000 0.53480  0.70510  0.05270  Biso   1.000  C
  C176     1.0000 0.68240  0.71710  0.03510  Biso   1.000  C
  C177     1.0000 0.70720  0.77360  0.03080  Biso   1.000  C
  C178     1.0000 0.51280  0.64390  0.05630  Biso   1.000  C
  C179     1.0000 0.87630  0.01480  0.85280  Biso   1.000  C
  C180     1.0000 0.97080  0.96820  0.82700  Biso   1.000  C
  C181     1.0000 0.01470  0.96930  0.77090  Biso   1.000  C
  C182     1.0000 0.96040  0.01750  0.74090  Biso   1.000  C
  C183     1.0000 0.86790  0.06450  0.76590  Biso   1.000  C
  C184     1.0000 0.82730  0.06350  0.82170  Biso   1.000  C
  C185     1.0000 0.00860  0.01630  0.68090  Biso   1.000  C
  C186     1.0000 0.88570  0.19520  0.05680  Biso   1.000  C
  C187     1.0000 0.82390  0.24240  0.02820  Biso   1.000  C
  C188     1.0000 0.86200  0.29580  0.02980  Biso   1.000  C
  C189     1.0000 0.96820  0.30260  0.06200  Biso   1.000  C
  C190     1.0000 0.03410  0.25680  0.09200  Biso   1.000  C
  C191     1.0000 0.99160  0.20240  0.08900  Biso   1.000  C
  C192     1.0000 0.01110  0.36050  0.06230  Biso   1.000  C
  N1       1.0000 0.80855  0.45385  0.60405  Biso   1.000  N
  N2       1.0000 0.83759  0.45921  0.49141  Biso   1.000  N
  N3       1.0000 0.62236  0.56274  0.49574  Biso   1.000  N
  N4       1.0000 0.62383  0.56377  0.60677  Biso   1.000  N
  N5       1.0000 0.36645  0.04615  0.89595  Biso   1.000  N
  N6       1.0000 0.28821  0.04079  0.00859  Biso   1.000  N
  N7       1.0000 0.18084  0.93726  0.00426  Biso   1.000  N
  N8       1.0000 0.29437  0.93623  0.89323  Biso   1.000  N
  N9       1.0000 0.19145  0.54615  0.39595  Biso   1.000  N
  N10      1.0000 0.16241  0.54079  0.50859  Biso   1.000  N
  N11      1.0000 0.37764  0.43726  0.50426  Biso   1.000  N
  N12      1.0000 0.37617  0.43623  0.39323  Biso   1.000  N
  N13      1.0000 0.63355  0.95385  0.10405  Biso   1.000  N
  N14      1.0000 0.71179  0.95921  0.99141  Biso   1.000  N
  N15      1.0000 0.81916  0.06274  0.99574  Biso   1.000  N
  N16      1.0000 0.70563  0.06377  0.10677  Biso   1.000  N
  O1       1.0000 0.79742  0.53676  0.93200  Biso   1.000  O
  O2       1.0000 0.64393  0.47142  0.94472  Biso   1.000  O
  O3       1.0000 0.22060  0.10380  0.55340  Biso   1.000  O
  O4       1.0000 0.43210  0.13730  0.56350  Biso   1.000  O
  O5       1.0000 0.77250  0.47740  0.15820  Biso   1.000  O
  O6       1.0000 0.83850  0.56260  0.15560  Biso   1.000  O
  O7       1.0000 0.11199  0.90123  0.53639  Biso   1.000  O
  O8       1.0000 0.92541  0.86344  0.58994  Biso   1.000  O
  O9       1.0000 0.93290  0.53650  0.05490  Biso   1.000  O
  O10      1.0000 0.53670  0.39110  0.06950  Biso   1.000  O
  O11      1.0000 0.76618  0.96324  0.56800  Biso   1.000  O
  O12      1.0000 0.56007  0.02858  0.55528  Biso   1.000  O
  O13      1.0000 0.37780  0.39620  0.94660  Biso   1.000  O
  O14      1.0000 0.63290  0.36270  0.93650  Biso   1.000  O
  O15      1.0000 0.90810  0.02260  0.34180  Biso   1.000  O
  O16      1.0000 0.05670  0.93740  0.34440  Biso   1.000  O
  O17      1.0000 0.04961  0.59877  0.96361  Biso   1.000  O
  O18      1.0000 0.87879  0.63656  0.91006  Biso   1.000  O
  O19      1.0000 0.02430  0.96350  0.44510  Biso   1.000  O
  O20      1.0000 0.49730  0.10890  0.43050  Biso   1.000  O
  O21      1.0000 0.20258  0.46324  0.06800  Biso   1.000  O
  O22      1.0000 0.35607  0.52858  0.05528  Biso   1.000  O
  O23      1.0000 0.77940  0.89620  0.44660  Biso   1.000  O
  O24      1.0000 0.56790  0.86270  0.43650  Biso   1.000  O
  O25      1.0000 0.22750  0.52260  0.84180  Biso   1.000  O
  O26      1.0000 0.16150  0.43740  0.84440  Biso   1.000  O
  O27      1.0000 0.88801  0.09877  0.46361  Biso   1.000  O
  O28      1.0000 0.07459  0.13656  0.41006  Biso   1.000  O
  O29      1.0000 0.06710  0.46350  0.94510  Biso   1.000  O
  O30      1.0000 0.46330  0.60890  0.93050  Biso   1.000  O
  O31      1.0000 0.23382  0.03676  0.43200  Biso   1.000  O
  O32      1.0000 0.43993  0.97142  0.44472  Biso   1.000  O
  O33      1.0000 0.62220  0.60380  0.05340  Biso   1.000  O
  O34      1.0000 0.36710  0.63730  0.06350  Biso   1.000  O
  O35      1.0000 0.09190  0.97740  0.65820  Biso   1.000  O
  O36      1.0000 0.94330  0.06260  0.65560  Biso   1.000  O
  O37      1.0000 0.95039  0.40123  0.03639  Biso   1.000  O
  O38      1.0000 0.12121  0.36344  0.08994  Biso   1.000  O
  O39      1.0000 0.97570  0.03650  0.55490  Biso   1.000  O
  O40      1.0000 0.50270  0.89110  0.56950  Biso   1.000  O
