data_image0
_cell_length_a       12.066
_cell_length_b       16.121
_cell_length_c       15.099
_cell_angle_alpha    90
_cell_angle_beta     90
_cell_angle_gamma    90

_symmetry_space_group_name_H-M    "P 1"
_symmetry_int_tables_number       1

loop_
  _symmetry_equiv_pos_as_xyz
  'x, y, z'

loop_
  _atom_site_label
  _atom_site_occupancy
  _atom_site_fract_x
  _atom_site_fract_y
  _atom_site_fract_z
  _atom_site_thermal_displace_type
  _atom_site_B_iso_or_equiv
  _atom_site_type_symbol
  N1       1.0000 0.61020  0.16310  0.38550  Biso   1.000  N
  C1       1.0000 0.66400  0.10420  0.38910  Biso   1.000  C
  N2       1.0000 0.11020  0.66310  0.38550  Biso   1.000  N
  C2       1.0000 0.16400  0.60420  0.38910  Biso   1.000  C
  N3       1.0000 0.38980  0.33690  0.38550  Biso   1.000  N
  C3       1.0000 0.33600  0.39580  0.38910  Biso   1.000  C
  N4       1.0000 0.88980  0.83690  0.38550  Biso   1.000  N
  C4       1.0000 0.83600  0.89580  0.38910  Biso   1.000  C
  N5       1.0000 0.61020  0.33690  0.38550  Biso   1.000  N
  C5       1.0000 0.66400  0.39580  0.38910  Biso   1.000  C
  N6       1.0000 0.11020  0.83690  0.38550  Biso   1.000  N
  C6       1.0000 0.16400  0.89580  0.38910  Biso   1.000  C
  N7       1.0000 0.38980  0.16310  0.38550  Biso   1.000  N
  C7       1.0000 0.33600  0.10420  0.38910  Biso   1.000  C
  N8       1.0000 0.88980  0.66310  0.38550  Biso   1.000  N
  C8       1.0000 0.83600  0.60420  0.38910  Biso   1.000  C
  Au1      1.0000 0.75000  0.00000  0.39271  Biso   1.000  Au
  Au2      1.0000 0.25000  0.50000  0.39271  Biso   1.000  Au
  Au3      1.0000 0.75000  0.50000  0.39271  Biso   1.000  Au
  Au4      1.0000 0.25000  0.00000  0.39271  Biso   1.000  Au
  Fe1      1.0000 0.50000  0.25000  0.38450  Biso   1.000  Fe
  N9       1.0000 0.50000  0.25000  0.25270  Biso   1.000  N
  N10      1.0000 0.50000  0.25000  0.51640  Biso   1.000  N
  C9       1.0000 0.50000  0.25000  0.06700  Biso   1.000  C
  C10      1.0000 0.50000  0.25000  0.96890  Biso   1.000  C
  C11      1.0000 0.50000  0.25000  0.79980  Biso   1.000  C
  C12      1.0000 0.50000  0.25000  0.70060  Biso   1.000  C
  Fe2      1.0000 0.00000  0.75000  0.38450  Biso   1.000  Fe
  N11      1.0000 0.00000  0.75000  0.25270  Biso   1.000  N
  N12      1.0000 0.00000  0.75000  0.51640  Biso   1.000  N
  C13      1.0000 0.00000  0.75000  0.06700  Biso   1.000  C
  C14      1.0000 0.00000  0.75000  0.96890  Biso   1.000  C
  C15      1.0000 0.00000  0.75000  0.79980  Biso   1.000  C
  C16      1.0000 0.00000  0.75000  0.70060  Biso   1.000  C
  N13      1.0000 0.59870  0.25000  0.92780  Biso   1.000  N
  N14      1.0000 0.59820  0.25000  0.83980  Biso   1.000  N
  C17      1.0000 0.59500  0.25000  0.20610  Biso   1.000  C
  H1       1.0000 0.66290  0.25000  0.23800  Biso   1.000  H
  C18      1.0000 0.59950  0.25000  0.11500  Biso   1.000  C
  H2       1.0000 0.66890  0.25000  0.08520  Biso   1.000  H
  C19      1.0000 0.59690  0.25000  0.65520  Biso   1.000  C
  H3       1.0000 0.66550  0.25000  0.68600  Biso   1.000  H
  C20      1.0000 0.59490  0.25000  0.56290  Biso   1.000  C
  H4       1.0000 0.66330  0.25000  0.53170  Biso   1.000  H
  N15      1.0000 0.09870  0.75000  0.92780  Biso   1.000  N
  N16      1.0000 0.09820  0.75000  0.83980  Biso   1.000  N
  C21      1.0000 0.09500  0.75000  0.20610  Biso   1.000  C
  H5       1.0000 0.16290  0.75000  0.23800  Biso   1.000  H
  C22      1.0000 0.09950  0.75000  0.11500  Biso   1.000  C
  H6       1.0000 0.16890  0.75000  0.08520  Biso   1.000  H
  C23      1.0000 0.09690  0.75000  0.65520  Biso   1.000  C
  H7       1.0000 0.16550  0.75000  0.68600  Biso   1.000  H
  C24      1.0000 0.09490  0.75000  0.56290  Biso   1.000  C
  H8       1.0000 0.16330  0.75000  0.53170  Biso   1.000  H
  N17      1.0000 0.40130  0.25000  0.92780  Biso   1.000  N
  N18      1.0000 0.40180  0.25000  0.83980  Biso   1.000  N
  C25      1.0000 0.40500  0.25000  0.20610  Biso   1.000  C
  H9       1.0000 0.33710  0.25000  0.23800  Biso   1.000  H
  C26      1.0000 0.40050  0.25000  0.11500  Biso   1.000  C
  H10      1.0000 0.33110  0.25000  0.08520  Biso   1.000  H
  C27      1.0000 0.40310  0.25000  0.65520  Biso   1.000  C
  H11      1.0000 0.33450  0.25000  0.68600  Biso   1.000  H
  C28      1.0000 0.40510  0.25000  0.56290  Biso   1.000  C
  H12      1.0000 0.33670  0.25000  0.53170  Biso   1.000  H
  N19      1.0000 0.90130  0.75000  0.92780  Biso   1.000  N
  N20      1.0000 0.90180  0.75000  0.83980  Biso   1.000  N
  C29      1.0000 0.90500  0.75000  0.20610  Biso   1.000  C
  H13      1.0000 0.83710  0.75000  0.23800  Biso   1.000  H
  C30      1.0000 0.90050  0.75000  0.11500  Biso   1.000  C
  H14      1.0000 0.83110  0.75000  0.08520  Biso   1.000  H
  C31      1.0000 0.90310  0.75000  0.65520  Biso   1.000  C
  H15      1.0000 0.83450  0.75000  0.68600  Biso   1.000  H
  C32      1.0000 0.90510  0.75000  0.56290  Biso   1.000  C
  H16      1.0000 0.83670  0.75000  0.53170  Biso   1.000  H
  N21      1.0000 0.38980  0.66310  0.61450  Biso   1.000  N
  C33      1.0000 0.33600  0.60420  0.61090  Biso   1.000  C
  N22      1.0000 0.88980  0.16310  0.61450  Biso   1.000  N
  C34      1.0000 0.83600  0.10420  0.61090  Biso   1.000  C
  N23      1.0000 0.61020  0.83690  0.61450  Biso   1.000  N
  C35      1.0000 0.66400  0.89580  0.61090  Biso   1.000  C
  N24      1.0000 0.11020  0.33690  0.61450  Biso   1.000  N
  C36      1.0000 0.16400  0.39580  0.61090  Biso   1.000  C
  N25      1.0000 0.38980  0.83690  0.61450  Biso   1.000  N
  C37      1.0000 0.33600  0.89580  0.61090  Biso   1.000  C
  N26      1.0000 0.88980  0.33690  0.61450  Biso   1.000  N
  C38      1.0000 0.83600  0.39580  0.61090  Biso   1.000  C
  N27      1.0000 0.61020  0.66310  0.61450  Biso   1.000  N
  C39      1.0000 0.66400  0.60420  0.61090  Biso   1.000  C
  N28      1.0000 0.11020  0.16310  0.61450  Biso   1.000  N
  C40      1.0000 0.16400  0.10420  0.61090  Biso   1.000  C
  Au5      1.0000 0.25000  0.50000  0.60729  Biso   1.000  Au
  Au6      1.0000 0.75000  0.00000  0.60729  Biso   1.000  Au
  Au7      1.0000 0.25000  0.00000  0.60729  Biso   1.000  Au
  Au8      1.0000 0.75000  0.50000  0.60729  Biso   1.000  Au
  Fe3      1.0000 0.50000  0.75000  0.61550  Biso   1.000  Fe
  N29      1.0000 0.50000  0.75000  0.74730  Biso   1.000  N
  N30      1.0000 0.50000  0.75000  0.48360  Biso   1.000  N
  C41      1.0000 0.50000  0.75000  0.93300  Biso   1.000  C
  C42      1.0000 0.50000  0.75000  0.03110  Biso   1.000  C
  C43      1.0000 0.50000  0.75000  0.20020  Biso   1.000  C
  C44      1.0000 0.50000  0.75000  0.29940  Biso   1.000  C
  Fe4      1.0000 0.00000  0.25000  0.61550  Biso   1.000  Fe
  N31      1.0000 0.00000  0.25000  0.74730  Biso   1.000  N
  N32      1.0000 0.00000  0.25000  0.48360  Biso   1.000  N
  C45      1.0000 0.00000  0.25000  0.93300  Biso   1.000  C
  C46      1.0000 0.00000  0.25000  0.03110  Biso   1.000  C
  C47      1.0000 0.00000  0.25000  0.20020  Biso   1.000  C
  C48      1.0000 0.00000  0.25000  0.29940  Biso   1.000  C
  N33      1.0000 0.40130  0.75000  0.07220  Biso   1.000  N
  N34      1.0000 0.40180  0.75000  0.16020  Biso   1.000  N
  C49      1.0000 0.40500  0.75000  0.79390  Biso   1.000  C
  H17      1.0000 0.33710  0.75000  0.76200  Biso   1.000  H
  C50      1.0000 0.40050  0.75000  0.88500  Biso   1.000  C
  H18      1.0000 0.33110  0.75000  0.91480  Biso   1.000  H
  C51      1.0000 0.40310  0.75000  0.34480  Biso   1.000  C
  H19      1.0000 0.33450  0.75000  0.31400  Biso   1.000  H
  C52      1.0000 0.40510  0.75000  0.43710  Biso   1.000  C
  H20      1.0000 0.33670  0.75000  0.46830  Biso   1.000  H
  N35      1.0000 0.90130  0.25000  0.07220  Biso   1.000  N
  N36      1.0000 0.90180  0.25000  0.16020  Biso   1.000  N
  C53      1.0000 0.90500  0.25000  0.79390  Biso   1.000  C
  H21      1.0000 0.83710  0.25000  0.76200  Biso   1.000  H
  C54      1.0000 0.90050  0.25000  0.88500  Biso   1.000  C
  H22      1.0000 0.83110  0.25000  0.91480  Biso   1.000  H
  C55      1.0000 0.90310  0.25000  0.34480  Biso   1.000  C
  H23      1.0000 0.83450  0.25000  0.31400  Biso   1.000  H
  C56      1.0000 0.90510  0.25000  0.43710  Biso   1.000  C
  H24      1.0000 0.83670  0.25000  0.46830  Biso   1.000  H
  N37      1.0000 0.59870  0.75000  0.07220  Biso   1.000  N
  N38      1.0000 0.59820  0.75000  0.16020  Biso   1.000  N
  C57      1.0000 0.59500  0.75000  0.79390  Biso   1.000  C
  H25      1.0000 0.66290  0.75000  0.76200  Biso   1.000  H
  C58      1.0000 0.59950  0.75000  0.88500  Biso   1.000  C
  H26      1.0000 0.66890  0.75000  0.91480  Biso   1.000  H
  C59      1.0000 0.59690  0.75000  0.34480  Biso   1.000  C
  H27      1.0000 0.66550  0.75000  0.31400  Biso   1.000  H
  C60      1.0000 0.59490  0.75000  0.43710  Biso   1.000  C
  H28      1.0000 0.66330  0.75000  0.46830  Biso   1.000  H
  N39      1.0000 0.09870  0.25000  0.07220  Biso   1.000  N
  N40      1.0000 0.09820  0.25000  0.16020  Biso   1.000  N
  C61      1.0000 0.09500  0.25000  0.79390  Biso   1.000  C
  H29      1.0000 0.16290  0.25000  0.76200  Biso   1.000  H
  C62      1.0000 0.09950  0.25000  0.88500  Biso   1.000  C
  H30      1.0000 0.16890  0.25000  0.91480  Biso   1.000  H
  C63      1.0000 0.09690  0.25000  0.34480  Biso   1.000  C
  H31      1.0000 0.16550  0.25000  0.31400  Biso   1.000  H
  C64      1.0000 0.09490  0.25000  0.43710  Biso   1.000  C
  H32      1.0000 0.16330  0.25000  0.46830  Biso   1.000  H
