data_image0
_cell_length_a       18.577
_cell_length_b       20.125
_cell_length_c       20.895
_cell_angle_alpha    90
_cell_angle_beta     90
_cell_angle_gamma    90

_symmetry_space_group_name_H-M    P 1
_symmetry_int_tables_number       1

loop_
  _symmetry_equiv_pos_as_xyz
  'x, y, z'

loop_
  _atom_site_label
  _atom_site_occupancy
  _atom_site_fract_x
  _atom_site_fract_y
  _atom_site_fract_z
  _atom_site_thermal_displace_type
  _atom_site_B_iso_or_equiv
  _atom_site_type_symbol
  Ni1      1.0000 0.45031  0.35797  0.18708  Biso   1.000  Ni
  Ni2      1.0000 0.28036  0.99185  0.01287  Biso   1.000  Ni
  Ni3      1.0000 0.04969  0.64203  0.68708  Biso   1.000  Ni
  Ni4      1.0000 0.21964  0.00815  0.51287  Biso   1.000  Ni
  Ni5      1.0000 0.54969  0.85797  0.31292  Biso   1.000  Ni
  Ni6      1.0000 0.71964  0.49185  0.48713  Biso   1.000  Ni
  Ni7      1.0000 0.95031  0.14203  0.81292  Biso   1.000  Ni
  Ni8      1.0000 0.78036  0.50815  0.98713  Biso   1.000  Ni
  Mo1      1.0000 0.33176  0.20593  0.17892  Biso   1.000  Mo
  Mo2      1.0000 0.31307  0.20953  0.34137  Biso   1.000  Mo
  Mo3      1.0000 0.36517  0.06216  0.40137  Biso   1.000  Mo
  Mo4      1.0000 0.39250  0.95398  0.27591  Biso   1.000  Mo
  Mo5      1.0000 0.40896  0.05861  0.13740  Biso   1.000  Mo
  Mo6      1.0000 0.16824  0.79407  0.67892  Biso   1.000  Mo
  Mo7      1.0000 0.18693  0.79047  0.84137  Biso   1.000  Mo
  Mo8      1.0000 0.13483  0.93784  0.90137  Biso   1.000  Mo
  Mo9      1.0000 0.10750  0.04602  0.77591  Biso   1.000  Mo
  Mo10     1.0000 0.09104  0.94139  0.63740  Biso   1.000  Mo
  Mo11     1.0000 0.66824  0.70593  0.32108  Biso   1.000  Mo
  Mo12     1.0000 0.68693  0.70953  0.15863  Biso   1.000  Mo
  Mo13     1.0000 0.63483  0.56216  0.09863  Biso   1.000  Mo
  Mo14     1.0000 0.60750  0.45398  0.22409  Biso   1.000  Mo
  Mo15     1.0000 0.59104  0.55861  0.36260  Biso   1.000  Mo
  Mo16     1.0000 0.83176  0.29407  0.82108  Biso   1.000  Mo
  Mo17     1.0000 0.81307  0.29047  0.65863  Biso   1.000  Mo
  Mo18     1.0000 0.86517  0.43784  0.59863  Biso   1.000  Mo
  Mo19     1.0000 0.89250  0.54602  0.72409  Biso   1.000  Mo
  Mo20     1.0000 0.90896  0.44139  0.86260  Biso   1.000  Mo
  P1       1.0000 0.26864  0.06870  0.25561  Biso   1.000  P
  P2       1.0000 0.46039  0.12270  0.27653  Biso   1.000  P
  P3       1.0000 0.23136  0.93130  0.75561  Biso   1.000  P
  P4       1.0000 0.03961  0.87730  0.77653  Biso   1.000  P
  P5       1.0000 0.73136  0.56870  0.24439  Biso   1.000  P
  P6       1.0000 0.53961  0.62270  0.22347  Biso   1.000  P
  P7       1.0000 0.76864  0.43130  0.74439  Biso   1.000  P
  P8       1.0000 0.96039  0.37730  0.72347  Biso   1.000  P
  H1       1.0000 0.31470  0.36420  0.09380  Biso   1.000  H
  H2       1.0000 0.47920  0.47480  0.08210  Biso   1.000  H
  H3       1.0000 0.38480  0.52070  0.94340  Biso   1.000  H
  H4       1.0000 0.44500  0.55050  0.98770  Biso   1.000  H
  H5       1.0000 0.28780  0.59130  0.92930  Biso   1.000  H
  H6       1.0000 0.21170  0.67130  0.96370  Biso   1.000  H
  H7       1.0000 0.31640  0.67980  0.13250  Biso   1.000  H
  H8       1.0000 0.39090  0.59670  0.09280  Biso   1.000  H
  H9       1.0000 0.18290  0.72050  0.11600  Biso   1.000  H
  H10      1.0000 0.16230  0.73670  0.04500  Biso   1.000  H
  H11      1.0000 0.29190  0.91640  0.15320  Biso   1.000  H
  H12      1.0000 0.23820  0.83930  0.99460  Biso   1.000  H
  H13      1.0000 0.50210  0.21090  0.14290  Biso   1.000  H
  H14      1.0000 0.59640  0.37370  0.09800  Biso   1.000  H
  H15      1.0000 0.65900  0.15680  0.06690  Biso   1.000  H
  H16      1.0000 0.58280  0.12880  0.08510  Biso   1.000  H
  H17      1.0000 0.68620  0.18740  0.95610  Biso   1.000  H
  H18      1.0000 0.66550  0.16450  0.85000  Biso   1.000  H
  H19      1.0000 0.46110  0.11640  0.89270  Biso   1.000  H
  H20      1.0000 0.48830  0.12160  0.00060  Biso   1.000  H
  H21      1.0000 0.58780  0.10280  0.77470  Biso   1.000  H
  H22      1.0000 0.54580  0.17020  0.77100  Biso   1.000  H
  H23      1.0000 0.32780  0.09110  0.74610  Biso   1.000  H
  H24      1.0000 0.49370  0.99340  0.78870  Biso   1.000  H
  H25      1.0000 0.95340  0.52560  0.98390  Biso   1.000  H
  H26      1.0000 0.82680  0.59020  0.11710  Biso   1.000  H
  H27      1.0000 0.07010  0.58930  0.01720  Biso   1.000  H
  H28      1.0000 0.05170  0.65350  0.05570  Biso   1.000  H
  H29      1.0000 0.13960  0.50480  0.06640  Biso   1.000  H
  H30      1.0000 0.22870  0.49080  0.14050  Biso   1.000  H
  H31      1.0000 0.14580  0.63170  0.24590  Biso   1.000  H
  H32      1.0000 0.05630  0.64550  0.17400  Biso   1.000  H
  H33      1.0000 0.29350  0.59180  0.23240  Biso   1.000  H
  H34      1.0000 0.23990  0.56980  0.28570  Biso   1.000  H
  H35      1.0000 0.40800  0.50570  0.23320  Biso   1.000  H
  H36      1.0000 0.28910  0.35010  0.25040  Biso   1.000  H
  H37      1.0000 0.26280  0.06150  0.87310  Biso   1.000  H
  H38      1.0000 0.32350  0.15010  0.02520  Biso   1.000  H
  H39      1.0000 0.27330  0.27830  0.92030  Biso   1.000  H
  H40      1.0000 0.30480  0.27000  0.98940  Biso   1.000  H
  H41      1.0000 0.43120  0.28670  0.00550  Biso   1.000  H
  H42      1.0000 0.53700  0.33540  0.97080  Biso   1.000  H
  H43      1.0000 0.47230  0.30620  0.79210  Biso   1.000  H
  H44      1.0000 0.36770  0.26170  0.82700  Biso   1.000  H
  H45      1.0000 0.58340  0.36090  0.80690  Biso   1.000  H
  H46      1.0000 0.62160  0.31340  0.85550  Biso   1.000  H
  H47      1.0000 0.71230  0.37530  0.91730  Biso   1.000  H
  H48      1.0000 0.61970  0.54900  0.93050  Biso   1.000  H
  H49      1.0000 0.37130  0.98440  0.76500  Biso   1.000  H
  H50      1.0000 0.18530  0.63580  0.59380  Biso   1.000  H
  H51      1.0000 0.02080  0.52520  0.58210  Biso   1.000  H
  H52      1.0000 0.11520  0.47930  0.44340  Biso   1.000  H
  H53      1.0000 0.05500  0.44950  0.48770  Biso   1.000  H
  H54      1.0000 0.21220  0.40870  0.42930  Biso   1.000  H
  H55      1.0000 0.28830  0.32870  0.46370  Biso   1.000  H
  H56      1.0000 0.18360  0.32020  0.63250  Biso   1.000  H
  H57      1.0000 0.10910  0.40330  0.59280  Biso   1.000  H
  H58      1.0000 0.31710  0.27950  0.61600  Biso   1.000  H
  H59      1.0000 0.33770  0.26330  0.54500  Biso   1.000  H
  H60      1.0000 0.20810  0.08360  0.65320  Biso   1.000  H
  H61      1.0000 0.26180  0.16070  0.49460  Biso   1.000  H
  H62      1.0000 0.99790  0.78910  0.64290  Biso   1.000  H
  H63      1.0000 0.90360  0.62630  0.59800  Biso   1.000  H
  H64      1.0000 0.84100  0.84320  0.56690  Biso   1.000  H
  H65      1.0000 0.91720  0.87120  0.58510  Biso   1.000  H
  H66      1.0000 0.81380  0.81260  0.45610  Biso   1.000  H
  H67      1.0000 0.83450  0.83550  0.35000  Biso   1.000  H
  H68      1.0000 0.03890  0.88360  0.39270  Biso   1.000  H
  H69      1.0000 0.01170  0.87840  0.50060  Biso   1.000  H
  H70      1.0000 0.91220  0.89720  0.27470  Biso   1.000  H
  H71      1.0000 0.95420  0.82980  0.27100  Biso   1.000  H
  H72      1.0000 0.17220  0.90890  0.24610  Biso   1.000  H
  H73      1.0000 0.00630  0.00660  0.28870  Biso   1.000  H
  H74      1.0000 0.54660  0.47440  0.48390  Biso   1.000  H
  H75      1.0000 0.67320  0.40980  0.61710  Biso   1.000  H
  H76      1.0000 0.42990  0.41070  0.51720  Biso   1.000  H
  H77      1.0000 0.44830  0.34650  0.55570  Biso   1.000  H
  H78      1.0000 0.36040  0.49520  0.56640  Biso   1.000  H
  H79      1.0000 0.27130  0.50920  0.64050  Biso   1.000  H
  H80      1.0000 0.35420  0.36830  0.74590  Biso   1.000  H
  H81      1.0000 0.44370  0.35450  0.67400  Biso   1.000  H
  H82      1.0000 0.20650  0.40820  0.73240  Biso   1.000  H
  H83      1.0000 0.26010  0.43020  0.78570  Biso   1.000  H
  H84      1.0000 0.09200  0.49430  0.73320  Biso   1.000  H
  H85      1.0000 0.21090  0.64990  0.75040  Biso   1.000  H
  H86      1.0000 0.23720  0.93850  0.37310  Biso   1.000  H
  H87      1.0000 0.17650  0.84990  0.52520  Biso   1.000  H
  H88      1.0000 0.22670  0.72170  0.42030  Biso   1.000  H
  H89      1.0000 0.19520  0.73000  0.48940  Biso   1.000  H
  H90      1.0000 0.06880  0.71330  0.50550  Biso   1.000  H
  H91      1.0000 0.96300  0.66460  0.47080  Biso   1.000  H
  H92      1.0000 0.02770  0.69380  0.29210  Biso   1.000  H
  H93      1.0000 0.13230  0.73830  0.32700  Biso   1.000  H
  H94      1.0000 0.91660  0.63910  0.30690  Biso   1.000  H
  H95      1.0000 0.87840  0.68660  0.35550  Biso   1.000  H
  H96      1.0000 0.78770  0.62470  0.41730  Biso   1.000  H
  H97      1.0000 0.88030  0.45100  0.43050  Biso   1.000  H
  H98      1.0000 0.12870  0.01560  0.26500  Biso   1.000  H
  H99      1.0000 0.68530  0.86420  0.40620  Biso   1.000  H
  H100     1.0000 0.52080  0.97480  0.41790  Biso   1.000  H
  H101     1.0000 0.61520  0.02070  0.55660  Biso   1.000  H
  H102     1.0000 0.55500  0.05050  0.51230  Biso   1.000  H
  H103     1.0000 0.71220  0.09130  0.57070  Biso   1.000  H
  H104     1.0000 0.78830  0.17130  0.53630  Biso   1.000  H
  H105     1.0000 0.68360  0.17980  0.36750  Biso   1.000  H
  H106     1.0000 0.60910  0.09670  0.40720  Biso   1.000  H
  H107     1.0000 0.81710  0.22050  0.38400  Biso   1.000  H
  H108     1.0000 0.83770  0.23670  0.45500  Biso   1.000  H
  H109     1.0000 0.70810  0.41640  0.34680  Biso   1.000  H
  H110     1.0000 0.76180  0.33930  0.50540  Biso   1.000  H
  H111     1.0000 0.49790  0.71090  0.35710  Biso   1.000  H
  H112     1.0000 0.40360  0.87370  0.40200  Biso   1.000  H
  H113     1.0000 0.34100  0.65680  0.43310  Biso   1.000  H
  H114     1.0000 0.41720  0.62880  0.41490  Biso   1.000  H
  H115     1.0000 0.31380  0.68740  0.54390  Biso   1.000  H
  H116     1.0000 0.33450  0.66450  0.65000  Biso   1.000  H
  H117     1.0000 0.53890  0.61640  0.60730  Biso   1.000  H
  H118     1.0000 0.51170  0.62160  0.49940  Biso   1.000  H
  H119     1.0000 0.41220  0.60280  0.72530  Biso   1.000  H
  H120     1.0000 0.45420  0.67020  0.72900  Biso   1.000  H
  H121     1.0000 0.67220  0.59110  0.75390  Biso   1.000  H
  H122     1.0000 0.50630  0.49340  0.71130  Biso   1.000  H
  H123     1.0000 0.04660  0.02560  0.51610  Biso   1.000  H
  H124     1.0000 0.17320  0.09020  0.38290  Biso   1.000  H
  H125     1.0000 0.92990  0.08930  0.48280  Biso   1.000  H
  H126     1.0000 0.94830  0.15350  0.44430  Biso   1.000  H
  H127     1.0000 0.86040  0.00480  0.43360  Biso   1.000  H
  H128     1.0000 0.77130  0.99080  0.35950  Biso   1.000  H
  H129     1.0000 0.85420  0.13170  0.25410  Biso   1.000  H
  H130     1.0000 0.94370  0.14550  0.32600  Biso   1.000  H
  H131     1.0000 0.70650  0.09180  0.26760  Biso   1.000  H
  H132     1.0000 0.76010  0.06980  0.21430  Biso   1.000  H
  H133     1.0000 0.59200  0.00570  0.26680  Biso   1.000  H
  H134     1.0000 0.71090  0.85010  0.24960  Biso   1.000  H
  H135     1.0000 0.73720  0.56150  0.62690  Biso   1.000  H
  H136     1.0000 0.67650  0.65010  0.47480  Biso   1.000  H
  H137     1.0000 0.72670  0.77830  0.57970  Biso   1.000  H
  H138     1.0000 0.69520  0.77000  0.51060  Biso   1.000  H
  H139     1.0000 0.56880  0.78670  0.49450  Biso   1.000  H
  H140     1.0000 0.46300  0.83540  0.52920  Biso   1.000  H
  H141     1.0000 0.52770  0.80620  0.70790  Biso   1.000  H
  H142     1.0000 0.63230  0.76170  0.67300  Biso   1.000  H
  H143     1.0000 0.41660  0.86090  0.69310  Biso   1.000  H
  H144     1.0000 0.37840  0.81340  0.64450  Biso   1.000  H
  H145     1.0000 0.28770  0.87530  0.58270  Biso   1.000  H
  H146     1.0000 0.38030  0.04900  0.56950  Biso   1.000  H
  H147     1.0000 0.62870  0.48440  0.73500  Biso   1.000  H
  H148     1.0000 0.81470  0.13580  0.90620  Biso   1.000  H
  H149     1.0000 0.97920  0.02520  0.91790  Biso   1.000  H
  H150     1.0000 0.88480  0.97930  0.05660  Biso   1.000  H
  H151     1.0000 0.94500  0.94950  0.01230  Biso   1.000  H
  H152     1.0000 0.78780  0.90870  0.07070  Biso   1.000  H
  H153     1.0000 0.71170  0.82870  0.03630  Biso   1.000  H
  H154     1.0000 0.81640  0.82020  0.86750  Biso   1.000  H
  H155     1.0000 0.89090  0.90330  0.90720  Biso   1.000  H
  H156     1.0000 0.68290  0.77950  0.88400  Biso   1.000  H
  H157     1.0000 0.66230  0.76330  0.95500  Biso   1.000  H
  H158     1.0000 0.79190  0.58360  0.84680  Biso   1.000  H
  H159     1.0000 0.73820  0.66070  0.00540  Biso   1.000  H
  H160     1.0000 0.00210  0.28910  0.85710  Biso   1.000  H
  H161     1.0000 0.09640  0.12630  0.90200  Biso   1.000  H
  H162     1.0000 0.15900  0.34320  0.93310  Biso   1.000  H
  H163     1.0000 0.08280  0.37120  0.91490  Biso   1.000  H
  H164     1.0000 0.18620  0.31260  0.04390  Biso   1.000  H
  H165     1.0000 0.16550  0.33550  0.15000  Biso   1.000  H
  H166     1.0000 0.96110  0.38360  0.10730  Biso   1.000  H
  H167     1.0000 0.98830  0.37840  0.99940  Biso   1.000  H
  H168     1.0000 0.08780  0.39720  0.22530  Biso   1.000  H
  H169     1.0000 0.04580  0.32980  0.22900  Biso   1.000  H
  H170     1.0000 0.82780  0.40890  0.25390  Biso   1.000  H
  H171     1.0000 0.99370  0.50660  0.21130  Biso   1.000  H
  H172     1.0000 0.45340  0.97440  0.01610  Biso   1.000  H
  H173     1.0000 0.32680  0.90980  0.88290  Biso   1.000  H
  H174     1.0000 0.57010  0.91070  0.98280  Biso   1.000  H
  H175     1.0000 0.55170  0.84650  0.94430  Biso   1.000  H
  H176     1.0000 0.63960  0.99520  0.93360  Biso   1.000  H
  H177     1.0000 0.72870  0.00920  0.85950  Biso   1.000  H
  H178     1.0000 0.64580  0.86830  0.75410  Biso   1.000  H
  H179     1.0000 0.55630  0.85450  0.82600  Biso   1.000  H
  H180     1.0000 0.79350  0.90820  0.76760  Biso   1.000  H
  H181     1.0000 0.73990  0.93020  0.71430  Biso   1.000  H
  H182     1.0000 0.90800  0.99430  0.76680  Biso   1.000  H
  H183     1.0000 0.78910  0.14990  0.74960  Biso   1.000  H
  H184     1.0000 0.76280  0.43850  0.12690  Biso   1.000  H
  H185     1.0000 0.82350  0.34990  0.97480  Biso   1.000  H
  H186     1.0000 0.77330  0.22170  0.07970  Biso   1.000  H
  H187     1.0000 0.80480  0.23000  0.01060  Biso   1.000  H
  H188     1.0000 0.93120  0.21330  0.99450  Biso   1.000  H
  H189     1.0000 0.03700  0.16460  0.02920  Biso   1.000  H
  H190     1.0000 0.97230  0.19380  0.20790  Biso   1.000  H
  H191     1.0000 0.86770  0.23830  0.17300  Biso   1.000  H
  H192     1.0000 0.08340  0.13910  0.19310  Biso   1.000  H
  H193     1.0000 0.12160  0.18660  0.14450  Biso   1.000  H
  H194     1.0000 0.21230  0.12470  0.08270  Biso   1.000  H
  H195     1.0000 0.11970  0.95100  0.06950  Biso   1.000  H
  H196     1.0000 0.87130  0.51560  0.23500  Biso   1.000  H
  C1       1.0000 0.34720  0.39580  0.07910  Biso   1.000  C
  C2       1.0000 0.43540  0.45430  0.07340  Biso   1.000  C
  C3       1.0000 0.39630  0.53310  0.98710  Biso   1.000  C
  C4       1.0000 0.34510  0.58550  0.00940  Biso   1.000  C
  C5       1.0000 0.29290  0.60870  0.97030  Biso   1.000  C
  C6       1.0000 0.24840  0.65640  0.99040  Biso   1.000  C
  C7       1.0000 0.25670  0.68440  0.05180  Biso   1.000  C
  C8       1.0000 0.30980  0.66240  0.09170  Biso   1.000  C
  C9       1.0000 0.35360  0.61240  0.06730  Biso   1.000  C
  C10      1.0000 0.20200  0.73530  0.07520  Biso   1.000  C
  C11      1.0000 0.27230  0.88750  0.12310  Biso   1.000  C
  C12      1.0000 0.24470  0.84770  0.03800  Biso   1.000  C
  C13      1.0000 0.53260  0.24230  0.12470  Biso   1.000  C
  C14      1.0000 0.58430  0.32890  0.09950  Biso   1.000  C
  C15      1.0000 0.60770  0.16290  0.06080  Biso   1.000  C
  C16      1.0000 0.59010  0.15570  0.99190  Biso   1.000  C
  C17      1.0000 0.64200  0.16990  0.94390  Biso   1.000  C
  C18      1.0000 0.62930  0.15860  0.88020  Biso   1.000  C
  C19      1.0000 0.55910  0.13750  0.86140  Biso   1.000  C
  C20      1.0000 0.50750  0.12730  0.90570  Biso   1.000  C
  C21      1.0000 0.52320  0.13310  0.97070  Biso   1.000  C
  C22      1.0000 0.54740  0.12730  0.79220  Biso   1.000  C
  C23      1.0000 0.37570  0.08180  0.75530  Biso   1.000  C
  C24      1.0000 0.46220  0.02800  0.77950  Biso   1.000  C
  C25      1.0000 0.93510  0.54790  0.01940  Biso   1.000  C
  C26      1.0000 0.86800  0.58330  0.09260  Biso   1.000  C
  C27      1.0000 0.05010  0.60540  0.05720  Biso   1.000  C
  C28      1.0000 0.09790  0.58330  0.10940  Biso   1.000  C
  C29      1.0000 0.14330  0.53300  0.10150  Biso   1.000  C
  C30      1.0000 0.19460  0.52430  0.14590  Biso   1.000  C
  C31      1.0000 0.19730  0.56240  0.19680  Biso   1.000  C
  C32      1.0000 0.14550  0.60730  0.20810  Biso   1.000  C
  C33      1.0000 0.09420  0.61660  0.16560  Biso   1.000  C
  C34      1.0000 0.25900  0.55780  0.24400  Biso   1.000  C
  C35      1.0000 0.36930  0.47690  0.23860  Biso   1.000  C
  C36      1.0000 0.30330  0.39440  0.25040  Biso   1.000  C
  C37      1.0000 0.27610  0.09460  0.90170  Biso   1.000  C
  C38      1.0000 0.30820  0.14130  0.98370  Biso   1.000  C
  C39      1.0000 0.31090  0.25680  0.94500  Biso   1.000  C
  C40      1.0000 0.38410  0.28230  0.92150  Biso   1.000  C
  C41      1.0000 0.43760  0.29540  0.96220  Biso   1.000  C
  C42      1.0000 0.50280  0.32170  0.94120  Biso   1.000  C
  C43      1.0000 0.51700  0.32780  0.87580  Biso   1.000  C
  C44      1.0000 0.46380  0.30470  0.83600  Biso   1.000  C
  C45      1.0000 0.40020  0.27990  0.85600  Biso   1.000  C
  C46      1.0000 0.58770  0.34990  0.85190  Biso   1.000  C
  C47      1.0000 0.67980  0.41030  0.91410  Biso   1.000  C
  C48      1.0000 0.62900  0.50480  0.92050  Biso   1.000  C
  C49      1.0000 0.15280  0.60420  0.57910  Biso   1.000  C
  C50      1.0000 0.06460  0.54570  0.57340  Biso   1.000  C
  C51      1.0000 0.10370  0.46690  0.48710  Biso   1.000  C
  C52      1.0000 0.15490  0.41450  0.50940  Biso   1.000  C
  C53      1.0000 0.20710  0.39130  0.47030  Biso   1.000  C
  C54      1.0000 0.25160  0.34360  0.49040  Biso   1.000  C
  C55      1.0000 0.24330  0.31560  0.55180  Biso   1.000  C
  C56      1.0000 0.19020  0.33760  0.59170  Biso   1.000  C
  C57      1.0000 0.14640  0.38760  0.56730  Biso   1.000  C
  C58      1.0000 0.29800  0.26470  0.57520  Biso   1.000  C
  C59      1.0000 0.22770  0.11250  0.62310  Biso   1.000  C
  C60      1.0000 0.25530  0.15230  0.53800  Biso   1.000  C
  C61      1.0000 0.96740  0.75770  0.62470  Biso   1.000  C
  C62      1.0000 0.91570  0.67110  0.59950  Biso   1.000  C
  C63      1.0000 0.89230  0.83710  0.56080  Biso   1.000  C
  C64      1.0000 0.90990  0.84430  0.49190  Biso   1.000  C
  C65      1.0000 0.85800  0.83010  0.44390  Biso   1.000  C
  C66      1.0000 0.87070  0.84140  0.38020  Biso   1.000  C
  C67      1.0000 0.94090  0.86250  0.36140  Biso   1.000  C
  C68      1.0000 0.99250  0.87270  0.40570  Biso   1.000  C
  C69      1.0000 0.97680  0.86690  0.47070  Biso   1.000  C
  C70      1.0000 0.95260  0.87270  0.29220  Biso   1.000  C
  C71      1.0000 0.12430  0.91820  0.25530  Biso   1.000  C
  C72      1.0000 0.03780  0.97200  0.27950  Biso   1.000  C
  C73      1.0000 0.56490  0.45210  0.51940  Biso   1.000  C
  C74      1.0000 0.63200  0.41670  0.59260  Biso   1.000  C
  C75      1.0000 0.44990  0.39460  0.55720  Biso   1.000  C
  C76      1.0000 0.40210  0.41670  0.60940  Biso   1.000  C
  C77      1.0000 0.35670  0.46700  0.60150  Biso   1.000  C
  C78      1.0000 0.30540  0.47570  0.64590  Biso   1.000  C
  C79      1.0000 0.30270  0.43760  0.69680  Biso   1.000  C
  C80      1.0000 0.35450  0.39270  0.70810  Biso   1.000  C
  C81      1.0000 0.40580  0.38340  0.66560  Biso   1.000  C
  C82      1.0000 0.24100  0.44220  0.74400  Biso   1.000  C
  C83      1.0000 0.13070  0.52310  0.73860  Biso   1.000  C
  C84      1.0000 0.19670  0.60560  0.75040  Biso   1.000  C
  C85      1.0000 0.22390  0.90540  0.40170  Biso   1.000  C
  C86      1.0000 0.19180  0.85870  0.48370  Biso   1.000  C
  C87      1.0000 0.18910  0.74320  0.44500  Biso   1.000  C
  C88      1.0000 0.11590  0.71770  0.42150  Biso   1.000  C
  C89      1.0000 0.06240  0.70460  0.46220  Biso   1.000  C
  C90      1.0000 0.99720  0.67830  0.44120  Biso   1.000  C
  C91      1.0000 0.98300  0.67220  0.37580  Biso   1.000  C
  C92      1.0000 0.03620  0.69530  0.33600  Biso   1.000  C
  C93      1.0000 0.09980  0.72010  0.35600  Biso   1.000  C
  C94      1.0000 0.91230  0.65010  0.35190  Biso   1.000  C
  C95      1.0000 0.82020  0.58970  0.41410  Biso   1.000  C
  C96      1.0000 0.87100  0.49520  0.42050  Biso   1.000  C
  C97      1.0000 0.65280  0.89580  0.42090  Biso   1.000  C
  C98      1.0000 0.56460  0.95430  0.42660  Biso   1.000  C
  C99      1.0000 0.60370  0.03310  0.51290  Biso   1.000  C
  C100     1.0000 0.65490  0.08550  0.49060  Biso   1.000  C
  C101     1.0000 0.70710  0.10870  0.52970  Biso   1.000  C
  C102     1.0000 0.75160  0.15640  0.50960  Biso   1.000  C
  C103     1.0000 0.74330  0.18440  0.44820  Biso   1.000  C
  C104     1.0000 0.69020  0.16240  0.40830  Biso   1.000  C
  C105     1.0000 0.64640  0.11240  0.43270  Biso   1.000  C
  C106     1.0000 0.79800  0.23530  0.42480  Biso   1.000  C
  C107     1.0000 0.72770  0.38750  0.37690  Biso   1.000  C
  C108     1.0000 0.75530  0.34770  0.46200  Biso   1.000  C
  C109     1.0000 0.46740  0.74230  0.37530  Biso   1.000  C
  C110     1.0000 0.41570  0.82890  0.40050  Biso   1.000  C
  C111     1.0000 0.39230  0.66290  0.43920  Biso   1.000  C
  C112     1.0000 0.40990  0.65570  0.50810  Biso   1.000  C
  C113     1.0000 0.35800  0.66990  0.55610  Biso   1.000  C
  C114     1.0000 0.37070  0.65860  0.61980  Biso   1.000  C
  C115     1.0000 0.44090  0.63750  0.63860  Biso   1.000  C
  C116     1.0000 0.49250  0.62730  0.59430  Biso   1.000  C
  C117     1.0000 0.47680  0.63310  0.52930  Biso   1.000  C
  C118     1.0000 0.45260  0.62730  0.70780  Biso   1.000  C
  C119     1.0000 0.62430  0.58180  0.74470  Biso   1.000  C
  C120     1.0000 0.53780  0.52800  0.72050  Biso   1.000  C
  C121     1.0000 0.06490  0.04790  0.48060  Biso   1.000  C
  C122     1.0000 0.13200  0.08330  0.40740  Biso   1.000  C
  C123     1.0000 0.94990  0.10540  0.44280  Biso   1.000  C
  C124     1.0000 0.90210  0.08330  0.39060  Biso   1.000  C
  C125     1.0000 0.85670  0.03300  0.39850  Biso   1.000  C
  C126     1.0000 0.80540  0.02430  0.35410  Biso   1.000  C
  C127     1.0000 0.80270  0.06240  0.30320  Biso   1.000  C
  C128     1.0000 0.85450  0.10730  0.29190  Biso   1.000  C
  C129     1.0000 0.90580  0.11660  0.33440  Biso   1.000  C
  C130     1.0000 0.74100  0.05780  0.25600  Biso   1.000  C
  C131     1.0000 0.63070  0.97690  0.26140  Biso   1.000  C
  C132     1.0000 0.69670  0.89440  0.24960  Biso   1.000  C
  C133     1.0000 0.72390  0.59460  0.59830  Biso   1.000  C
  C134     1.0000 0.69180  0.64130  0.51630  Biso   1.000  C
  C135     1.0000 0.68910  0.75680  0.55500  Biso   1.000  C
  C136     1.0000 0.61590  0.78230  0.57850  Biso   1.000  C
  C137     1.0000 0.56240  0.79540  0.53780  Biso   1.000  C
  C138     1.0000 0.49720  0.82170  0.55880  Biso   1.000  C
  C139     1.0000 0.48300  0.82780  0.62420  Biso   1.000  C
  C140     1.0000 0.53620  0.80470  0.66400  Biso   1.000  C
  C141     1.0000 0.59980  0.77990  0.64400  Biso   1.000  C
  C142     1.0000 0.41230  0.84990  0.64810  Biso   1.000  C
  C143     1.0000 0.32020  0.91030  0.58590  Biso   1.000  C
  C144     1.0000 0.37100  0.00480  0.57950  Biso   1.000  C
  C145     1.0000 0.84720  0.10420  0.92090  Biso   1.000  C
  C146     1.0000 0.93540  0.04570  0.92660  Biso   1.000  C
  C147     1.0000 0.89630  0.96690  0.01290  Biso   1.000  C
  C148     1.0000 0.84510  0.91450  0.99060  Biso   1.000  C
  C149     1.0000 0.79290  0.89130  0.02970  Biso   1.000  C
  C150     1.0000 0.74840  0.84360  0.00960  Biso   1.000  C
  C151     1.0000 0.75670  0.81560  0.94820  Biso   1.000  C
  C152     1.0000 0.80980  0.83760  0.90830  Biso   1.000  C
  C153     1.0000 0.85360  0.88760  0.93270  Biso   1.000  C
  C154     1.0000 0.70200  0.76470  0.92480  Biso   1.000  C
  C155     1.0000 0.77230  0.61250  0.87690  Biso   1.000  C
  C156     1.0000 0.74470  0.65230  0.96200  Biso   1.000  C
  C157     1.0000 0.03260  0.25770  0.87530  Biso   1.000  C
  C158     1.0000 0.08430  0.17110  0.90050  Biso   1.000  C
  C159     1.0000 0.10770  0.33710  0.93920  Biso   1.000  C
  C160     1.0000 0.09010  0.34430  0.00810  Biso   1.000  C
  C161     1.0000 0.14200  0.33010  0.05610  Biso   1.000  C
  C162     1.0000 0.12930  0.34140  0.11980  Biso   1.000  C
  C163     1.0000 0.05910  0.36250  0.13860  Biso   1.000  C
  C164     1.0000 0.00750  0.37270  0.09430  Biso   1.000  C
  C165     1.0000 0.02320  0.36690  0.02930  Biso   1.000  C
  C166     1.0000 0.04740  0.37270  0.20780  Biso   1.000  C
  C167     1.0000 0.87570  0.41820  0.24470  Biso   1.000  C
  C168     1.0000 0.96220  0.47200  0.22050  Biso   1.000  C
  C169     1.0000 0.43510  0.95210  0.98060  Biso   1.000  C
  C170     1.0000 0.36800  0.91670  0.90740  Biso   1.000  C
  C171     1.0000 0.55010  0.89460  0.94280  Biso   1.000  C
  C172     1.0000 0.59790  0.91670  0.89060  Biso   1.000  C
  C173     1.0000 0.64330  0.96700  0.89850  Biso   1.000  C
  C174     1.0000 0.69460  0.97570  0.85410  Biso   1.000  C
  C175     1.0000 0.69730  0.93760  0.80320  Biso   1.000  C
  C176     1.0000 0.64550  0.89270  0.79190  Biso   1.000  C
  C177     1.0000 0.59420  0.88340  0.83440  Biso   1.000  C
  C178     1.0000 0.75900  0.94220  0.75600  Biso   1.000  C
  C179     1.0000 0.86930  0.02310  0.76140  Biso   1.000  C
  C180     1.0000 0.80330  0.10560  0.74960  Biso   1.000  C
  C181     1.0000 0.77610  0.40540  0.09830  Biso   1.000  C
  C182     1.0000 0.80820  0.35870  0.01630  Biso   1.000  C
  C183     1.0000 0.81090  0.24320  0.05500  Biso   1.000  C
  C184     1.0000 0.88410  0.21770  0.07850  Biso   1.000  C
  C185     1.0000 0.93760  0.20460  0.03780  Biso   1.000  C
  C186     1.0000 0.00280  0.17830  0.05880  Biso   1.000  C
  C187     1.0000 0.01700  0.17220  0.12420  Biso   1.000  C
  C188     1.0000 0.96380  0.19530  0.16400  Biso   1.000  C
  C189     1.0000 0.90020  0.22010  0.14400  Biso   1.000  C
  C190     1.0000 0.08770  0.15010  0.14810  Biso   1.000  C
  C191     1.0000 0.17980  0.08970  0.08590  Biso   1.000  C
  C192     1.0000 0.12900  0.99520  0.07950  Biso   1.000  C
  N1       1.0000 0.41100  0.40230  0.10460  Biso   1.000  N
  N2       1.0000 0.33110  0.43590  0.03200  Biso   1.000  N
  N3       1.0000 0.39180  0.47330  0.02920  Biso   1.000  N
  N4       1.0000 0.26840  0.90460  0.06100  Biso   1.000  N
  N5       1.0000 0.24790  0.82930  0.14020  Biso   1.000  N
  N6       1.0000 0.23110  0.80430  0.08310  Biso   1.000  N
  N7       1.0000 0.52940  0.30660  0.13440  Biso   1.000  N
  N8       1.0000 0.62080  0.28320  0.06710  Biso   1.000  N
  N9       1.0000 0.58630  0.22930  0.08450  Biso   1.000  N
  N10      1.0000 0.39620  0.02040  0.76630  Biso   1.000  N
  N11      1.0000 0.42230  0.12840  0.75730  Biso   1.000  N
  N12      1.0000 0.48050  0.09100  0.77840  Biso   1.000  N
  N13      1.0000 0.86920  0.54710  0.03670  Biso   1.000  N
  N14      1.0000 0.93190  0.60690  0.10740  Biso   1.000  N
  N15      1.0000 0.97460  0.58530  0.05980  Biso   1.000  N
  N16      1.0000 0.37070  0.41100  0.23480  Biso   1.000  N
  N17      1.0000 0.25820  0.44040  0.26530  Biso   1.000  N
  N18      1.0000 0.29970  0.49380  0.25190  Biso   1.000  N
  N19      1.0000 0.29050  0.08030  0.96210  Biso   1.000  N
  N20      1.0000 0.28080  0.15670  0.88320  Biso   1.000  N
  N21      1.0000 0.30150  0.18510  0.94040  Biso   1.000  N
  N22      1.0000 0.68980  0.47240  0.93760  Biso   1.000  N
  N23      1.0000 0.58340  0.46600  0.88740  Biso   1.000  N
  N24      1.0000 0.61690  0.40770  0.88620  Biso   1.000  N
  N25      1.0000 0.08900  0.59770  0.60460  Biso   1.000  N
  N26      1.0000 0.16890  0.56410  0.53200  Biso   1.000  N
  N27      1.0000 0.10820  0.52670  0.52920  Biso   1.000  N
  N28      1.0000 0.23160  0.09540  0.56100  Biso   1.000  N
  N29      1.0000 0.25210  0.17070  0.64020  Biso   1.000  N
  N30      1.0000 0.26890  0.19570  0.58310  Biso   1.000  N
  N31      1.0000 0.97060  0.69340  0.63440  Biso   1.000  N
  N32      1.0000 0.87920  0.71680  0.56710  Biso   1.000  N
  N33      1.0000 0.91370  0.77070  0.58450  Biso   1.000  N
  N34      1.0000 0.10380  0.97960  0.26630  Biso   1.000  N
  N35      1.0000 0.07770  0.87160  0.25730  Biso   1.000  N
  N36      1.0000 0.01950  0.90900  0.27840  Biso   1.000  N
  N37      1.0000 0.63080  0.45290  0.53670  Biso   1.000  N
  N38      1.0000 0.56810  0.39310  0.60740  Biso   1.000  N
  N39      1.0000 0.52540  0.41470  0.55980  Biso   1.000  N
  N40      1.0000 0.12930  0.58900  0.73480  Biso   1.000  N
  N41      1.0000 0.24180  0.55960  0.76530  Biso   1.000  N
  N42      1.0000 0.20030  0.50620  0.75190  Biso   1.000  N
  N43      1.0000 0.20950  0.91970  0.46210  Biso   1.000  N
  N44      1.0000 0.21920  0.84330  0.38320  Biso   1.000  N
  N45      1.0000 0.19850  0.81490  0.44040  Biso   1.000  N
  N46      1.0000 0.81020  0.52760  0.43760  Biso   1.000  N
  N47      1.0000 0.91660  0.53400  0.38740  Biso   1.000  N
  N48      1.0000 0.88310  0.59230  0.38620  Biso   1.000  N
  N49      1.0000 0.58900  0.90230  0.39540  Biso   1.000  N
  N50      1.0000 0.66890  0.93590  0.46800  Biso   1.000  N
  N51      1.0000 0.60820  0.97330  0.47080  Biso   1.000  N
  N52      1.0000 0.73160  0.40460  0.43900  Biso   1.000  N
  N53      1.0000 0.75210  0.32930  0.35980  Biso   1.000  N
  N54      1.0000 0.76890  0.30430  0.41690  Biso   1.000  N
  N55      1.0000 0.47060  0.80660  0.36560  Biso   1.000  N
  N56      1.0000 0.37920  0.78320  0.43290  Biso   1.000  N
  N57      1.0000 0.41370  0.72930  0.41550  Biso   1.000  N
  N58      1.0000 0.60380  0.52040  0.73370  Biso   1.000  N
  N59      1.0000 0.57770  0.62840  0.74270  Biso   1.000  N
  N60      1.0000 0.51950  0.59100  0.72160  Biso   1.000  N
  N61      1.0000 0.13080  0.04710  0.46330  Biso   1.000  N
  N62      1.0000 0.06810  0.10690  0.39260  Biso   1.000  N
  N63      1.0000 0.02540  0.08530  0.44020  Biso   1.000  N
  N64      1.0000 0.62930  0.91100  0.26520  Biso   1.000  N
  N65      1.0000 0.74180  0.94040  0.23470  Biso   1.000  N
  N66      1.0000 0.70030  0.99380  0.24810  Biso   1.000  N
  N67      1.0000 0.70950  0.58030  0.53790  Biso   1.000  N
  N68      1.0000 0.71920  0.65670  0.61680  Biso   1.000  N
  N69      1.0000 0.69850  0.68510  0.55960  Biso   1.000  N
  N70      1.0000 0.31020  0.97240  0.56240  Biso   1.000  N
  N71      1.0000 0.41660  0.96600  0.61260  Biso   1.000  N
  N72      1.0000 0.38310  0.90770  0.61380  Biso   1.000  N
  N73      1.0000 0.91100  0.09770  0.89540  Biso   1.000  N
  N74      1.0000 0.83110  0.06410  0.96800  Biso   1.000  N
  N75      1.0000 0.89180  0.02670  0.97080  Biso   1.000  N
  N76      1.0000 0.76840  0.59540  0.93900  Biso   1.000  N
  N77      1.0000 0.74790  0.67070  0.85980  Biso   1.000  N
  N78      1.0000 0.73110  0.69570  0.91690  Biso   1.000  N
  N79      1.0000 0.02940  0.19340  0.86560  Biso   1.000  N
  N80      1.0000 0.12080  0.21680  0.93290  Biso   1.000  N
  N81      1.0000 0.08630  0.27070  0.91550  Biso   1.000  N
  N82      1.0000 0.89620  0.47960  0.23370  Biso   1.000  N
  N83      1.0000 0.92230  0.37160  0.24270  Biso   1.000  N
  N84      1.0000 0.98050  0.40900  0.22160  Biso   1.000  N
  N85      1.0000 0.36920  0.95290  0.96330  Biso   1.000  N
  N86      1.0000 0.43190  0.89310  0.89260  Biso   1.000  N
  N87      1.0000 0.47460  0.91470  0.94020  Biso   1.000  N
  N88      1.0000 0.87070  0.08900  0.76520  Biso   1.000  N
  N89      1.0000 0.75820  0.05960  0.73470  Biso   1.000  N
  N90      1.0000 0.79970  0.00620  0.74810  Biso   1.000  N
  N91      1.0000 0.79050  0.41970  0.03790  Biso   1.000  N
  N92      1.0000 0.78080  0.34330  0.11680  Biso   1.000  N
  N93      1.0000 0.80150  0.31490  0.05960  Biso   1.000  N
  N94      1.0000 0.18980  0.02760  0.06240  Biso   1.000  N
  N95      1.0000 0.08340  0.03400  0.11260  Biso   1.000  N
  N96      1.0000 0.11690  0.09230  0.11380  Biso   1.000  N
  O1       1.0000 0.26670  0.21750  0.12290  Biso   1.000  O
  O2       1.0000 0.37980  0.27890  0.17480  Biso   1.000  O
  O3       1.0000 0.39600  0.15330  0.12810  Biso   1.000  O
  O4       1.0000 0.27820  0.22150  0.25460  Biso   1.000  O
  O5       1.0000 0.41000  0.18230  0.27170  Biso   1.000  O
  O6       1.0000 0.30870  0.10150  0.20020  Biso   1.000  O
  O7       1.0000 0.23380  0.21730  0.38110  Biso   1.000  O
  O8       1.0000 0.35260  0.28440  0.35410  Biso   1.000  O
  O9       1.0000 0.36670  0.15770  0.40110  Biso   1.000  O
  O10      1.0000 0.28930  0.10110  0.31940  Biso   1.000  O
  O11      1.0000 0.28810  0.04850  0.44540  Biso   1.000  O
  O12      1.0000 0.43320  0.05020  0.45300  Biso   1.000  O
  O13      1.0000 0.36290  0.97850  0.35930  Biso   1.000  O
  O14      1.0000 0.48000  0.93440  0.29480  Biso   1.000  O
  O15      1.0000 0.35600  0.87920  0.26580  Biso   1.000  O
  O16      1.0000 0.42620  0.06520  0.31160  Biso   1.000  O
  O17      1.0000 0.48090  0.10030  0.20850  Biso   1.000  O
  O18      1.0000 0.28380  0.99600  0.25660  Biso   1.000  O
  O19      1.0000 0.40710  0.98500  0.19110  Biso   1.000  O
  O20      1.0000 0.48620  0.04490  0.09670  Biso   1.000  O
  O21      1.0000 0.34520  0.03240  0.08350  Biso   1.000  O
  O22      1.0000 0.52930  0.14330  0.31100  Biso   1.000  O
  O23      1.0000 0.18740  0.08020  0.24310  Biso   1.000  O
  O24      1.0000 0.48470  0.31080  0.26980  Biso   1.000  O
  O25      1.0000 0.23330  0.78250  0.62290  Biso   1.000  O
  O26      1.0000 0.12020  0.72110  0.67480  Biso   1.000  O
  O27      1.0000 0.10400  0.84670  0.62810  Biso   1.000  O
  O28      1.0000 0.22180  0.77850  0.75460  Biso   1.000  O
  O29      1.0000 0.09000  0.81770  0.77170  Biso   1.000  O
  O30      1.0000 0.19130  0.89850  0.70020  Biso   1.000  O
  O31      1.0000 0.26620  0.78270  0.88110  Biso   1.000  O
  O32      1.0000 0.14740  0.71560  0.85410  Biso   1.000  O
  O33      1.0000 0.13330  0.84230  0.90110  Biso   1.000  O
  O34      1.0000 0.21070  0.89890  0.81940  Biso   1.000  O
  O35      1.0000 0.21190  0.95150  0.94540  Biso   1.000  O
  O36      1.0000 0.06680  0.94980  0.95300  Biso   1.000  O
  O37      1.0000 0.13710  0.02150  0.85930  Biso   1.000  O
  O38      1.0000 0.02000  0.06560  0.79480  Biso   1.000  O
  O39      1.0000 0.14400  0.12080  0.76580  Biso   1.000  O
  O40      1.0000 0.07380  0.93480  0.81160  Biso   1.000  O
  O41      1.0000 0.01910  0.89970  0.70850  Biso   1.000  O
  O42      1.0000 0.21620  0.00400  0.75660  Biso   1.000  O
  O43      1.0000 0.09290  0.01500  0.69110  Biso   1.000  O
  O44      1.0000 0.01380  0.95510  0.59670  Biso   1.000  O
  O45      1.0000 0.15480  0.96760  0.58350  Biso   1.000  O
  O46      1.0000 0.97070  0.85670  0.81100  Biso   1.000  O
  O47      1.0000 0.31260  0.91980  0.74310  Biso   1.000  O
  O48      1.0000 0.01530  0.68920  0.76980  Biso   1.000  O
  O49      1.0000 0.73330  0.71750  0.37710  Biso   1.000  O
  O50      1.0000 0.62020  0.77890  0.32520  Biso   1.000  O
  O51      1.0000 0.60400  0.65330  0.37190  Biso   1.000  O
  O52      1.0000 0.72180  0.72150  0.24540  Biso   1.000  O
  O53      1.0000 0.59000  0.68230  0.22830  Biso   1.000  O
  O54      1.0000 0.69130  0.60150  0.29980  Biso   1.000  O
  O55      1.0000 0.76620  0.71730  0.11890  Biso   1.000  O
  O56      1.0000 0.64740  0.78440  0.14590  Biso   1.000  O
  O57      1.0000 0.63330  0.65770  0.09890  Biso   1.000  O
  O58      1.0000 0.71070  0.60110  0.18060  Biso   1.000  O
  O59      1.0000 0.71190  0.54850  0.05460  Biso   1.000  O
  O60      1.0000 0.56680  0.55020  0.04700  Biso   1.000  O
  O61      1.0000 0.63710  0.47850  0.14070  Biso   1.000  O
  O62      1.0000 0.52000  0.43440  0.20520  Biso   1.000  O
  O63      1.0000 0.64400  0.37920  0.23420  Biso   1.000  O
  O64      1.0000 0.57380  0.56520  0.18840  Biso   1.000  O
  O65      1.0000 0.51910  0.60030  0.29150  Biso   1.000  O
  O66      1.0000 0.71620  0.49600  0.24340  Biso   1.000  O
  O67      1.0000 0.59290  0.48500  0.30890  Biso   1.000  O
  O68      1.0000 0.51380  0.54490  0.40330  Biso   1.000  O
  O69      1.0000 0.65480  0.53240  0.41650  Biso   1.000  O
  O70      1.0000 0.47070  0.64330  0.18900  Biso   1.000  O
  O71      1.0000 0.81260  0.58020  0.25690  Biso   1.000  O
  O72      1.0000 0.51530  0.81080  0.23020  Biso   1.000  O
  O73      1.0000 0.76670  0.28250  0.87710  Biso   1.000  O
  O74      1.0000 0.87980  0.22110  0.82520  Biso   1.000  O
  O75      1.0000 0.89600  0.34670  0.87190  Biso   1.000  O
  O76      1.0000 0.77820  0.27850  0.74540  Biso   1.000  O
  O77      1.0000 0.91000  0.31770  0.72830  Biso   1.000  O
  O78      1.0000 0.80870  0.39850  0.79980  Biso   1.000  O
  O79      1.0000 0.73380  0.28270  0.61890  Biso   1.000  O
  O80      1.0000 0.85260  0.21560  0.64590  Biso   1.000  O
  O81      1.0000 0.86670  0.34230  0.59890  Biso   1.000  O
  O82      1.0000 0.78930  0.39890  0.68060  Biso   1.000  O
  O83      1.0000 0.78810  0.45150  0.55460  Biso   1.000  O
  O84      1.0000 0.93320  0.44980  0.54700  Biso   1.000  O
  O85      1.0000 0.86290  0.52150  0.64070  Biso   1.000  O
  O86      1.0000 0.98000  0.56560  0.70520  Biso   1.000  O
  O87      1.0000 0.85600  0.62080  0.73420  Biso   1.000  O
  O88      1.0000 0.92620  0.43480  0.68840  Biso   1.000  O
  O89      1.0000 0.98090  0.39970  0.79150  Biso   1.000  O
  O90      1.0000 0.78380  0.50400  0.74340  Biso   1.000  O
  O91      1.0000 0.90710  0.51500  0.80890  Biso   1.000  O
  O92      1.0000 0.98620  0.45510  0.90330  Biso   1.000  O
  O93      1.0000 0.84520  0.46760  0.91650  Biso   1.000  O
  O94      1.0000 0.02930  0.35670  0.68900  Biso   1.000  O
  O95      1.0000 0.68740  0.41980  0.75690  Biso   1.000  O
  O96      1.0000 0.98470  0.18920  0.73020  Biso   1.000  O
