data_image0
_cell_length_a       10.041
_cell_length_b       9.22
_cell_length_c       10.469
_cell_angle_alpha    90
_cell_angle_beta     91.6
_cell_angle_gamma    90

_symmetry_space_group_name_H-M    "P 1"
_symmetry_int_tables_number       1

loop_
  _symmetry_equiv_pos_as_xyz
  'x, y, z'

loop_
  _atom_site_label
  _atom_site_occupancy
  _atom_site_fract_x
  _atom_site_fract_y
  _atom_site_fract_z
  _atom_site_thermal_displace_type
  _atom_site_B_iso_or_equiv
  _atom_site_type_symbol
  Ga1      1.0000 0.37134  0.09184  0.83895  Biso   1.000  Ga
  P1       1.0000 0.57190  0.83365  0.87420  Biso   1.000  P
  O1       1.0000 0.68670  0.93430  0.84190  Biso   1.000  O
  O2       1.0000 0.58100  0.68580  0.81040  Biso   1.000  O
  O3       1.0000 0.44050  0.90340  0.83170  Biso   1.000  O
  O4       1.0000 0.57070  0.80180  0.01820  Biso   1.000  O
  Ga2      1.0000 0.87134  0.59184  0.33895  Biso   1.000  Ga
  P2       1.0000 0.07190  0.33365  0.37420  Biso   1.000  P
  O5       1.0000 0.18670  0.43430  0.34190  Biso   1.000  O
  O6       1.0000 0.08100  0.18580  0.31040  Biso   1.000  O
  O7       1.0000 0.94050  0.40340  0.33170  Biso   1.000  O
  O8       1.0000 0.07070  0.30180  0.51820  Biso   1.000  O
  Ga3      1.0000 0.12866  0.09184  0.16105  Biso   1.000  Ga
  P3       1.0000 0.92810  0.83365  0.12580  Biso   1.000  P
  O9       1.0000 0.81330  0.93430  0.15810  Biso   1.000  O
  O10      1.0000 0.91900  0.68580  0.18960  Biso   1.000  O
  O11      1.0000 0.05950  0.90340  0.16830  Biso   1.000  O
  O12      1.0000 0.92930  0.80180  0.98180  Biso   1.000  O
  Ga4      1.0000 0.62866  0.59184  0.66105  Biso   1.000  Ga
  P4       1.0000 0.42810  0.33365  0.62580  Biso   1.000  P
  O13      1.0000 0.31330  0.43430  0.65810  Biso   1.000  O
  O14      1.0000 0.41900  0.18580  0.68960  Biso   1.000  O
  O15      1.0000 0.55950  0.40340  0.66830  Biso   1.000  O
  O16      1.0000 0.42930  0.30180  0.48180  Biso   1.000  O
  Ga5      1.0000 0.62866  0.90816  0.16105  Biso   1.000  Ga
  P5       1.0000 0.42810  0.16635  0.12580  Biso   1.000  P
  O17      1.0000 0.31330  0.06570  0.15810  Biso   1.000  O
  O18      1.0000 0.41900  0.31420  0.18960  Biso   1.000  O
  O19      1.0000 0.55950  0.09660  0.16830  Biso   1.000  O
  O20      1.0000 0.42930  0.19820  0.98180  Biso   1.000  O
  Ga6      1.0000 0.12866  0.40816  0.66105  Biso   1.000  Ga
  P6       1.0000 0.92810  0.66635  0.62580  Biso   1.000  P
  O21      1.0000 0.81330  0.56570  0.65810  Biso   1.000  O
  O22      1.0000 0.91900  0.81420  0.68960  Biso   1.000  O
  O23      1.0000 0.05950  0.59660  0.66830  Biso   1.000  O
  O24      1.0000 0.92930  0.69820  0.48180  Biso   1.000  O
  Ga7      1.0000 0.87134  0.90816  0.83895  Biso   1.000  Ga
  P7       1.0000 0.07190  0.16635  0.87420  Biso   1.000  P
  O25      1.0000 0.18670  0.06570  0.84190  Biso   1.000  O
  O26      1.0000 0.08100  0.31420  0.81040  Biso   1.000  O
  O27      1.0000 0.94050  0.09660  0.83170  Biso   1.000  O
  O28      1.0000 0.07070  0.19820  0.01820  Biso   1.000  O
  Ga8      1.0000 0.37134  0.40816  0.33895  Biso   1.000  Ga
  P8       1.0000 0.57190  0.66635  0.37420  Biso   1.000  P
  O29      1.0000 0.68670  0.56570  0.34190  Biso   1.000  O
  O30      1.0000 0.58100  0.81420  0.31040  Biso   1.000  O
  O31      1.0000 0.44050  0.59660  0.33170  Biso   1.000  O
  O32      1.0000 0.57070  0.69820  0.51820  Biso   1.000  O
