data_image0
_cell_length_a       9.982
_cell_length_b       10
_cell_length_c       9.576
_cell_angle_alpha    97.96
_cell_angle_beta     114.87
_cell_angle_gamma    107.67

_symmetry_space_group_name_H-M    "P 1"
_symmetry_int_tables_number       1

loop_
  _symmetry_equiv_pos_as_xyz
  'x, y, z'

loop_
  _atom_site_label
  _atom_site_occupancy
  _atom_site_fract_x
  _atom_site_fract_y
  _atom_site_fract_z
  _atom_site_thermal_displace_type
  _atom_site_B_iso_or_equiv
  _atom_site_type_symbol
  Ge1      1.0000 0.03306  0.11545  0.86359  Biso   1.000  Ge
  Zn1      1.0000 0.79116  0.34102  0.31218  Biso   1.000  Zn
  P1       1.0000 0.40020  0.22910  0.17460  Biso   1.000  P
  P2       1.0000 0.02840  0.65950  0.33620  Biso   1.000  P
  P3       1.0000 0.96990  0.19290  0.15390  Biso   1.000  P
  O1       1.0000 0.55730  0.28740  0.16950  Biso   1.000  O
  O2       1.0000 0.39550  0.33380  0.30210  Biso   1.000  O
  O3       1.0000 0.26380  0.19430  0.00520  Biso   1.000  O
  O4       1.0000 0.38410  0.07860  0.21990  Biso   1.000  O
  O5       1.0000 0.88750  0.54860  0.33920  Biso   1.000  O
  O6       1.0000 0.99720  0.79540  0.30460  Biso   1.000  O
  O7       1.0000 0.18640  0.70220  0.49370  Biso   1.000  O
  O8       1.0000 0.04730  0.59150  0.18870  Biso   1.000  O
  O9       1.0000 0.84070  0.22120  0.17870  Biso   1.000  O
  O10      1.0000 0.11750  0.34810  0.22040  Biso   1.000  O
  O11      1.0000 0.03640  0.09330  0.24450  Biso   1.000  O
  O12      1.0000 0.90610  0.12940  0.97170  Biso   1.000  O
  H1       1.0000 0.07760  0.50270  0.19220  Biso   1.000  H
  H2       1.0000 0.20550  0.44060  0.26010  Biso   1.000  H
  H3       1.0000 0.39240  0.39950  0.38160  Biso   1.000  H
  Ge2      1.0000 0.96694  0.88455  0.13641  Biso   1.000  Ge
  Zn2      1.0000 0.20884  0.65898  0.68782  Biso   1.000  Zn
  P4       1.0000 0.59980  0.77090  0.82540  Biso   1.000  P
  P5       1.0000 0.97160  0.34050  0.66380  Biso   1.000  P
  P6       1.0000 0.03010  0.80710  0.84610  Biso   1.000  P
  O13      1.0000 0.44270  0.71260  0.83050  Biso   1.000  O
  O14      1.0000 0.60450  0.66620  0.69790  Biso   1.000  O
  O15      1.0000 0.73620  0.80570  0.99480  Biso   1.000  O
  O16      1.0000 0.61590  0.92140  0.78010  Biso   1.000  O
  O17      1.0000 0.11250  0.45140  0.66080  Biso   1.000  O
  O18      1.0000 0.00280  0.20460  0.69540  Biso   1.000  O
  O19      1.0000 0.81360  0.29780  0.50630  Biso   1.000  O
  O20      1.0000 0.95270  0.40850  0.81130  Biso   1.000  O
  O21      1.0000 0.15930  0.77880  0.82130  Biso   1.000  O
  O22      1.0000 0.88250  0.65190  0.77960  Biso   1.000  O
  O23      1.0000 0.96360  0.90670  0.75550  Biso   1.000  O
  O24      1.0000 0.09390  0.87060  0.02830  Biso   1.000  O
  H4       1.0000 0.92240  0.49730  0.80780  Biso   1.000  H
  H5       1.0000 0.79450  0.55940  0.73990  Biso   1.000  H
  H6       1.0000 0.60760  0.60050  0.61840  Biso   1.000  H
