data_image0
_cell_length_a       17.8476
_cell_length_b       17.8476
_cell_length_c       13.5159
_cell_angle_alpha    90
_cell_angle_beta     90
_cell_angle_gamma    120

_symmetry_space_group_name_H-M    "P 1"
_symmetry_int_tables_number       1

loop_
  _symmetry_equiv_pos_as_xyz
  'x, y, z'

loop_
  _atom_site_label
  _atom_site_occupancy
  _atom_site_fract_x
  _atom_site_fract_y
  _atom_site_fract_z
  _atom_site_thermal_displace_type
  _atom_site_B_iso_or_equiv
  _atom_site_type_symbol
  Ga1      1.0000 0.87483  0.64120  0.58602  Biso   1.000  Ga
  F1       1.0000 0.76349  0.59356  0.65566  Biso   1.000  F
  F2       1.0000 0.83856  0.54541  0.50560  Biso   1.000  F
  O1       1.0000 0.90880  0.59370  0.69480  Biso   1.000  O
  O2       1.0000 0.96830  0.62510  0.86780  Biso   1.000  O
  O3       1.0000 0.83910  0.63810  0.83300  Biso   1.000  O
  P1       1.0000 0.88701  0.59055  0.80421  Biso   1.000  P
  H1       1.0000 0.83100  0.50100  0.82800  Biso   1.000  H
  Ga2      1.0000 0.54150  0.97453  0.91935  Biso   1.000  Ga
  F3       1.0000 0.43016  0.92689  0.98899  Biso   1.000  F
  F4       1.0000 0.50523  0.87874  0.83893  Biso   1.000  F
  O4       1.0000 0.57547  0.92703  0.02813  Biso   1.000  O
  O5       1.0000 0.63497  0.95843  0.20113  Biso   1.000  O
  O6       1.0000 0.50577  0.97143  0.16633  Biso   1.000  O
  P2       1.0000 0.55368  0.92388  0.13754  Biso   1.000  P
  H2       1.0000 0.49767  0.83433  0.16133  Biso   1.000  H
  Ga3      1.0000 0.20816  0.30787  0.25269  Biso   1.000  Ga
  F5       1.0000 0.09682  0.26023  0.32233  Biso   1.000  F
  F6       1.0000 0.17189  0.21208  0.17227  Biso   1.000  F
  O7       1.0000 0.24213  0.26037  0.36147  Biso   1.000  O
  O8       1.0000 0.30163  0.29177  0.53447  Biso   1.000  O
  O9       1.0000 0.17243  0.30477  0.49967  Biso   1.000  O
  P3       1.0000 0.22034  0.25722  0.47088  Biso   1.000  P
  H3       1.0000 0.16433  0.16767  0.49467  Biso   1.000  H
  Ga4      1.0000 0.35880  0.23363  0.58602  Biso   1.000  Ga
  F7       1.0000 0.40644  0.16993  0.65566  Biso   1.000  F
  F8       1.0000 0.45459  0.29315  0.50560  Biso   1.000  F
  O10      1.0000 0.40630  0.31510  0.69480  Biso   1.000  O
  O11      1.0000 0.37490  0.34320  0.86780  Biso   1.000  O
  O12      1.0000 0.36190  0.20100  0.83300  Biso   1.000  O
  P4       1.0000 0.40945  0.29646  0.80421  Biso   1.000  P
  H4       1.0000 0.49900  0.33000  0.82800  Biso   1.000  H
  Ga5      1.0000 0.02547  0.56696  0.91935  Biso   1.000  Ga
  F9       1.0000 0.07311  0.50326  0.98899  Biso   1.000  F
  F10      1.0000 0.12126  0.62648  0.83893  Biso   1.000  F
  O13      1.0000 0.07297  0.64843  0.02813  Biso   1.000  O
  O14      1.0000 0.04157  0.67653  0.20113  Biso   1.000  O
  O15      1.0000 0.02857  0.53433  0.16633  Biso   1.000  O
  P5       1.0000 0.07612  0.62979  0.13754  Biso   1.000  P
  H5       1.0000 0.16567  0.66333  0.16133  Biso   1.000  H
  Ga6      1.0000 0.69213  0.90030  0.25269  Biso   1.000  Ga
  F11      1.0000 0.73977  0.83660  0.32233  Biso   1.000  F
  F12      1.0000 0.78792  0.95982  0.17227  Biso   1.000  F
  O16      1.0000 0.73963  0.98177  0.36147  Biso   1.000  O
  O17      1.0000 0.70823  0.00987  0.53447  Biso   1.000  O
  O18      1.0000 0.69523  0.86767  0.49967  Biso   1.000  O
  P6       1.0000 0.74278  0.96313  0.47088  Biso   1.000  P
  H6       1.0000 0.83233  0.99667  0.49467  Biso   1.000  H
  Ga7      1.0000 0.76637  0.12517  0.58602  Biso   1.000  Ga
  F13      1.0000 0.83007  0.23651  0.65566  Biso   1.000  F
  F14      1.0000 0.70685  0.16144  0.50560  Biso   1.000  F
  O19      1.0000 0.68490  0.09120  0.69480  Biso   1.000  O
  O20      1.0000 0.65680  0.03170  0.86780  Biso   1.000  O
  O21      1.0000 0.79900  0.16090  0.83300  Biso   1.000  O
  P7       1.0000 0.70354  0.11299  0.80421  Biso   1.000  P
  H7       1.0000 0.67000  0.16900  0.82800  Biso   1.000  H
  Ga8      1.0000 0.43304  0.45850  0.91935  Biso   1.000  Ga
  F15      1.0000 0.49674  0.56984  0.98899  Biso   1.000  F
  F16      1.0000 0.37352  0.49477  0.83893  Biso   1.000  F
  O22      1.0000 0.35157  0.42453  0.02813  Biso   1.000  O
  O23      1.0000 0.32347  0.36503  0.20113  Biso   1.000  O
  O24      1.0000 0.46567  0.49423  0.16633  Biso   1.000  O
  P8       1.0000 0.37021  0.44632  0.13754  Biso   1.000  P
  H8       1.0000 0.33667  0.50233  0.16133  Biso   1.000  H
  Ga9      1.0000 0.09970  0.79184  0.25269  Biso   1.000  Ga
  F17      1.0000 0.16340  0.90318  0.32233  Biso   1.000  F
  F18      1.0000 0.04018  0.82811  0.17227  Biso   1.000  F
  O25      1.0000 0.01823  0.75787  0.36147  Biso   1.000  O
  O26      1.0000 0.99013  0.69837  0.53447  Biso   1.000  O
  O27      1.0000 0.13233  0.82757  0.49967  Biso   1.000  O
  P9       1.0000 0.03687  0.77966  0.47088  Biso   1.000  P
  H9       1.0000 0.00333  0.83567  0.49467  Biso   1.000  H
  Ga10     1.0000 0.12517  0.35880  0.41398  Biso   1.000  Ga
  F19      1.0000 0.23651  0.40644  0.34434  Biso   1.000  F
  F20      1.0000 0.16144  0.45459  0.49440  Biso   1.000  F
  O28      1.0000 0.09120  0.40630  0.30520  Biso   1.000  O
  O29      1.0000 0.03170  0.37490  0.13220  Biso   1.000  O
  O30      1.0000 0.16090  0.36190  0.16700  Biso   1.000  O
  P10      1.0000 0.11299  0.40945  0.19579  Biso   1.000  P
  H10      1.0000 0.16900  0.49900  0.17200  Biso   1.000  H
  Ga11     1.0000 0.79184  0.69213  0.74731  Biso   1.000  Ga
  F21      1.0000 0.90318  0.73977  0.67767  Biso   1.000  F
  F22      1.0000 0.82811  0.78792  0.82773  Biso   1.000  F
  O31      1.0000 0.75787  0.73963  0.63853  Biso   1.000  O
  O32      1.0000 0.69837  0.70823  0.46553  Biso   1.000  O
  O33      1.0000 0.82757  0.69523  0.50033  Biso   1.000  O
  P11      1.0000 0.77966  0.74278  0.52912  Biso   1.000  P
  H11      1.0000 0.83567  0.83233  0.50533  Biso   1.000  H
  Ga12     1.0000 0.45850  0.02547  0.08065  Biso   1.000  Ga
  F23      1.0000 0.56984  0.07311  0.01101  Biso   1.000  F
  F24      1.0000 0.49477  0.12126  0.16107  Biso   1.000  F
  O34      1.0000 0.42453  0.07297  0.97187  Biso   1.000  O
  O35      1.0000 0.36503  0.04157  0.79887  Biso   1.000  O
  O36      1.0000 0.49423  0.02857  0.83367  Biso   1.000  O
  P12      1.0000 0.44632  0.07612  0.86246  Biso   1.000  P
  H12      1.0000 0.50233  0.16567  0.83867  Biso   1.000  H
  Ga13     1.0000 0.64120  0.76637  0.41398  Biso   1.000  Ga
  F25      1.0000 0.59356  0.83007  0.34434  Biso   1.000  F
  F26      1.0000 0.54541  0.70685  0.49440  Biso   1.000  F
  O37      1.0000 0.59370  0.68490  0.30520  Biso   1.000  O
  O38      1.0000 0.62510  0.65680  0.13220  Biso   1.000  O
  O39      1.0000 0.63810  0.79900  0.16700  Biso   1.000  O
  P13      1.0000 0.59055  0.70354  0.19579  Biso   1.000  P
  H13      1.0000 0.50100  0.67000  0.17200  Biso   1.000  H
  Ga14     1.0000 0.30787  0.09970  0.74731  Biso   1.000  Ga
  F27      1.0000 0.26023  0.16340  0.67767  Biso   1.000  F
  F28      1.0000 0.21208  0.04018  0.82773  Biso   1.000  F
  O40      1.0000 0.26037  0.01823  0.63853  Biso   1.000  O
  O41      1.0000 0.29177  0.99013  0.46553  Biso   1.000  O
  O42      1.0000 0.30477  0.13233  0.50033  Biso   1.000  O
  P14      1.0000 0.25722  0.03687  0.52912  Biso   1.000  P
  H14      1.0000 0.16767  0.00333  0.50533  Biso   1.000  H
  Ga15     1.0000 0.97453  0.43304  0.08065  Biso   1.000  Ga
  F29      1.0000 0.92689  0.49674  0.01101  Biso   1.000  F
  F30      1.0000 0.87874  0.37352  0.16107  Biso   1.000  F
  O43      1.0000 0.92703  0.35157  0.97187  Biso   1.000  O
  O44      1.0000 0.95843  0.32347  0.79887  Biso   1.000  O
  O45      1.0000 0.97143  0.46567  0.83367  Biso   1.000  O
  P15      1.0000 0.92388  0.37021  0.86246  Biso   1.000  P
  H15      1.0000 0.83433  0.33667  0.83867  Biso   1.000  H
  Ga16     1.0000 0.23363  0.87483  0.41398  Biso   1.000  Ga
  F31      1.0000 0.16993  0.76349  0.34434  Biso   1.000  F
  F32      1.0000 0.29315  0.83856  0.49440  Biso   1.000  F
  O46      1.0000 0.31510  0.90880  0.30520  Biso   1.000  O
  O47      1.0000 0.34320  0.96830  0.13220  Biso   1.000  O
  O48      1.0000 0.20100  0.83910  0.16700  Biso   1.000  O
  P16      1.0000 0.29646  0.88701  0.19579  Biso   1.000  P
  H16      1.0000 0.33000  0.83100  0.17200  Biso   1.000  H
  Ga17     1.0000 0.90030  0.20816  0.74731  Biso   1.000  Ga
  F33      1.0000 0.83660  0.09682  0.67767  Biso   1.000  F
  F34      1.0000 0.95982  0.17189  0.82773  Biso   1.000  F
  O49      1.0000 0.98177  0.24213  0.63853  Biso   1.000  O
  O50      1.0000 0.00987  0.30163  0.46553  Biso   1.000  O
  O51      1.0000 0.86767  0.17243  0.50033  Biso   1.000  O
  P17      1.0000 0.96313  0.22034  0.52912  Biso   1.000  P
  H17      1.0000 0.99667  0.16433  0.50533  Biso   1.000  H
  Ga18     1.0000 0.56696  0.54150  0.08065  Biso   1.000  Ga
  F35      1.0000 0.50326  0.43016  0.01101  Biso   1.000  F
  F36      1.0000 0.62648  0.50523  0.16107  Biso   1.000  F
  O52      1.0000 0.64843  0.57547  0.97187  Biso   1.000  O
  O53      1.0000 0.67653  0.63497  0.79887  Biso   1.000  O
  O54      1.0000 0.53433  0.50577  0.83367  Biso   1.000  O
  P18      1.0000 0.62979  0.55368  0.86246  Biso   1.000  P
  H18      1.0000 0.66333  0.49767  0.83867  Biso   1.000  H
