data_image0
_cell_length_a       18.315
_cell_length_b       18.315
_cell_length_c       13.136
_cell_angle_alpha    90
_cell_angle_beta     90
_cell_angle_gamma    120

_symmetry_space_group_name_H-M    "P 1"
_symmetry_int_tables_number       1

loop_
  _symmetry_equiv_pos_as_xyz
  'x, y, z'

loop_
  _atom_site_label
  _atom_site_occupancy
  _atom_site_fract_x
  _atom_site_fract_y
  _atom_site_fract_z
  _atom_site_thermal_displace_type
  _atom_site_B_iso_or_equiv
  _atom_site_type_symbol
  F1       1.0000 0.77734  0.59093  0.14252  Biso   1.000  F
  F2       1.0000 0.88468  0.57471  0.01314  Biso   1.000  F
  Ga1      1.0000 0.89425  0.65945  0.09644  Biso   1.000  Ga
  H1       1.0000 0.02400  0.85000  0.98000  Biso   1.000  H
  O1       1.0000 0.14466  0.85030  0.00360  Biso   1.000  O
  O2       1.0000 0.02894  0.74392  0.88360  Biso   1.000  O
  O3       1.0000 0.01122  0.73697  0.07290  Biso   1.000  O
  P1       1.0000 0.05099  0.79514  0.98123  Biso   1.000  P
  F3       1.0000 0.44401  0.92426  0.47585  Biso   1.000  F
  F4       1.0000 0.55135  0.90804  0.34647  Biso   1.000  F
  Ga2      1.0000 0.56092  0.99278  0.42977  Biso   1.000  Ga
  H2       1.0000 0.69067  0.18333  0.31333  Biso   1.000  H
  O4       1.0000 0.81133  0.18363  0.33693  Biso   1.000  O
  O5       1.0000 0.69561  0.07725  0.21693  Biso   1.000  O
  O6       1.0000 0.67789  0.07030  0.40623  Biso   1.000  O
  P2       1.0000 0.71766  0.12847  0.31456  Biso   1.000  P
  F5       1.0000 0.11067  0.25760  0.80919  Biso   1.000  F
  F6       1.0000 0.21801  0.24138  0.67981  Biso   1.000  F
  Ga3      1.0000 0.22758  0.32612  0.76311  Biso   1.000  Ga
  H3       1.0000 0.35733  0.51667  0.64667  Biso   1.000  H
  O7       1.0000 0.47799  0.51697  0.67027  Biso   1.000  O
  O8       1.0000 0.36227  0.41059  0.55027  Biso   1.000  O
  O9       1.0000 0.34455  0.40364  0.73957  Biso   1.000  O
  P3       1.0000 0.38432  0.46181  0.64790  Biso   1.000  P
  F7       1.0000 0.40907  0.18641  0.14252  Biso   1.000  F
  F8       1.0000 0.42529  0.30997  0.01314  Biso   1.000  F
  Ga4      1.0000 0.34055  0.23480  0.09644  Biso   1.000  Ga
  H4       1.0000 0.15000  0.17400  0.98000  Biso   1.000  H
  O10      1.0000 0.14970  0.29436  0.00360  Biso   1.000  O
  O11      1.0000 0.25608  0.28502  0.88360  Biso   1.000  O
  O12      1.0000 0.26303  0.27425  0.07290  Biso   1.000  O
  P4       1.0000 0.20486  0.25585  0.98123  Biso   1.000  P
  F9       1.0000 0.07574  0.51974  0.47585  Biso   1.000  F
  F10      1.0000 0.09196  0.64330  0.34647  Biso   1.000  F
  Ga5      1.0000 0.00722  0.56813  0.42977  Biso   1.000  Ga
  H5       1.0000 0.81667  0.50733  0.31333  Biso   1.000  H
  O13      1.0000 0.81637  0.62769  0.33693  Biso   1.000  O
  O14      1.0000 0.92275  0.61835  0.21693  Biso   1.000  O
  O15      1.0000 0.92970  0.60758  0.40623  Biso   1.000  O
  P5       1.0000 0.87153  0.58918  0.31456  Biso   1.000  P
  F11      1.0000 0.74240  0.85308  0.80919  Biso   1.000  F
  F12      1.0000 0.75862  0.97664  0.67981  Biso   1.000  F
  Ga6      1.0000 0.67388  0.90147  0.76311  Biso   1.000  Ga
  H6       1.0000 0.48333  0.84067  0.64667  Biso   1.000  H
  O16      1.0000 0.48303  0.96103  0.67027  Biso   1.000  O
  O17      1.0000 0.58941  0.95169  0.55027  Biso   1.000  O
  O18      1.0000 0.59636  0.94092  0.73957  Biso   1.000  O
  P6       1.0000 0.53819  0.92252  0.64790  Biso   1.000  P
  F13      1.0000 0.81359  0.22266  0.14252  Biso   1.000  F
  F14      1.0000 0.69003  0.11532  0.01314  Biso   1.000  F
  Ga7      1.0000 0.76520  0.10575  0.09644  Biso   1.000  Ga
  H7       1.0000 0.82600  0.97600  0.98000  Biso   1.000  H
  O19      1.0000 0.70564  0.85534  0.00360  Biso   1.000  O
  O20      1.0000 0.71498  0.97106  0.88360  Biso   1.000  O
  O21      1.0000 0.72575  0.98878  0.07290  Biso   1.000  O
  P7       1.0000 0.74415  0.94901  0.98123  Biso   1.000  P
  F15      1.0000 0.48026  0.55599  0.47585  Biso   1.000  F
  F16      1.0000 0.35670  0.44865  0.34647  Biso   1.000  F
  Ga8      1.0000 0.43187  0.43908  0.42977  Biso   1.000  Ga
  H8       1.0000 0.49267  0.30933  0.31333  Biso   1.000  H
  O22      1.0000 0.37231  0.18867  0.33693  Biso   1.000  O
  O23      1.0000 0.38165  0.30439  0.21693  Biso   1.000  O
  O24      1.0000 0.39242  0.32211  0.40623  Biso   1.000  O
  P8       1.0000 0.41082  0.28234  0.31456  Biso   1.000  P
  F17      1.0000 0.14692  0.88933  0.80919  Biso   1.000  F
  F18      1.0000 0.02336  0.78199  0.67981  Biso   1.000  F
  Ga9      1.0000 0.09853  0.77242  0.76311  Biso   1.000  Ga
  H9       1.0000 0.15933  0.64267  0.64667  Biso   1.000  H
  O25      1.0000 0.03897  0.52201  0.67027  Biso   1.000  O
  O26      1.0000 0.04831  0.63773  0.55027  Biso   1.000  O
  O27      1.0000 0.05908  0.65545  0.73957  Biso   1.000  O
  P9       1.0000 0.07748  0.61568  0.64790  Biso   1.000  P
  F19      1.0000 0.22266  0.40907  0.85748  Biso   1.000  F
  F20      1.0000 0.11532  0.42529  0.98686  Biso   1.000  F
  Ga10     1.0000 0.10575  0.34055  0.90356  Biso   1.000  Ga
  H10      1.0000 0.97600  0.15000  0.02000  Biso   1.000  H
  O28      1.0000 0.85534  0.14970  0.99640  Biso   1.000  O
  O29      1.0000 0.97106  0.25608  0.11640  Biso   1.000  O
  O30      1.0000 0.98878  0.26303  0.92710  Biso   1.000  O
  P10      1.0000 0.94901  0.20486  0.01877  Biso   1.000  P
  F21      1.0000 0.88933  0.74240  0.19081  Biso   1.000  F
  F22      1.0000 0.78199  0.75862  0.32019  Biso   1.000  F
  Ga11     1.0000 0.77242  0.67388  0.23689  Biso   1.000  Ga
  H11      1.0000 0.64267  0.48333  0.35333  Biso   1.000  H
  O31      1.0000 0.52201  0.48303  0.32973  Biso   1.000  O
  O32      1.0000 0.63773  0.58941  0.44973  Biso   1.000  O
  O33      1.0000 0.65545  0.59636  0.26043  Biso   1.000  O
  P11      1.0000 0.61568  0.53819  0.35210  Biso   1.000  P
  F23      1.0000 0.55599  0.07574  0.52415  Biso   1.000  F
  F24      1.0000 0.44865  0.09196  0.65353  Biso   1.000  F
  Ga12     1.0000 0.43908  0.00722  0.57023  Biso   1.000  Ga
  H12      1.0000 0.30933  0.81667  0.68667  Biso   1.000  H
  O34      1.0000 0.18867  0.81637  0.66307  Biso   1.000  O
  O35      1.0000 0.30439  0.92275  0.78307  Biso   1.000  O
  O36      1.0000 0.32211  0.92970  0.59377  Biso   1.000  O
  P12      1.0000 0.28234  0.87153  0.68544  Biso   1.000  P
  F25      1.0000 0.59093  0.81359  0.85748  Biso   1.000  F
  F26      1.0000 0.57471  0.69003  0.98686  Biso   1.000  F
  Ga13     1.0000 0.65945  0.76520  0.90356  Biso   1.000  Ga
  H13      1.0000 0.85000  0.82600  0.02000  Biso   1.000  H
  O37      1.0000 0.85030  0.70564  0.99640  Biso   1.000  O
  O38      1.0000 0.74392  0.71498  0.11640  Biso   1.000  O
  O39      1.0000 0.73697  0.72575  0.92710  Biso   1.000  O
  P13      1.0000 0.79514  0.74415  0.01877  Biso   1.000  P
  F27      1.0000 0.25760  0.14692  0.19081  Biso   1.000  F
  F28      1.0000 0.24138  0.02336  0.32019  Biso   1.000  F
  Ga14     1.0000 0.32612  0.09853  0.23689  Biso   1.000  Ga
  H14      1.0000 0.51667  0.15933  0.35333  Biso   1.000  H
  O40      1.0000 0.51697  0.03897  0.32973  Biso   1.000  O
  O41      1.0000 0.41059  0.04831  0.44973  Biso   1.000  O
  O42      1.0000 0.40364  0.05908  0.26043  Biso   1.000  O
  P14      1.0000 0.46181  0.07748  0.35210  Biso   1.000  P
  F29      1.0000 0.92426  0.48026  0.52415  Biso   1.000  F
  F30      1.0000 0.90804  0.35670  0.65353  Biso   1.000  F
  Ga15     1.0000 0.99278  0.43187  0.57023  Biso   1.000  Ga
  H15      1.0000 0.18333  0.49267  0.68667  Biso   1.000  H
  O43      1.0000 0.18363  0.37231  0.66307  Biso   1.000  O
  O44      1.0000 0.07725  0.38165  0.78307  Biso   1.000  O
  O45      1.0000 0.07030  0.39242  0.59377  Biso   1.000  O
  P15      1.0000 0.12847  0.41082  0.68544  Biso   1.000  P
  F31      1.0000 0.18641  0.77734  0.85748  Biso   1.000  F
  F32      1.0000 0.30997  0.88468  0.98686  Biso   1.000  F
  Ga16     1.0000 0.23480  0.89425  0.90356  Biso   1.000  Ga
  H16      1.0000 0.17400  0.02400  0.02000  Biso   1.000  H
  O46      1.0000 0.29436  0.14466  0.99640  Biso   1.000  O
  O47      1.0000 0.28502  0.02894  0.11640  Biso   1.000  O
  O48      1.0000 0.27425  0.01122  0.92710  Biso   1.000  O
  P16      1.0000 0.25585  0.05099  0.01877  Biso   1.000  P
  F33      1.0000 0.85308  0.11067  0.19081  Biso   1.000  F
  F34      1.0000 0.97664  0.21801  0.32019  Biso   1.000  F
  Ga17     1.0000 0.90147  0.22758  0.23689  Biso   1.000  Ga
  H17      1.0000 0.84067  0.35733  0.35333  Biso   1.000  H
  O49      1.0000 0.96103  0.47799  0.32973  Biso   1.000  O
  O50      1.0000 0.95169  0.36227  0.44973  Biso   1.000  O
  O51      1.0000 0.94092  0.34455  0.26043  Biso   1.000  O
  P17      1.0000 0.92252  0.38432  0.35210  Biso   1.000  P
  F35      1.0000 0.51974  0.44401  0.52415  Biso   1.000  F
  F36      1.0000 0.64330  0.55135  0.65353  Biso   1.000  F
  Ga18     1.0000 0.56813  0.56092  0.57023  Biso   1.000  Ga
  H18      1.0000 0.50733  0.69067  0.68667  Biso   1.000  H
  O52      1.0000 0.62769  0.81133  0.66307  Biso   1.000  O
  O53      1.0000 0.61835  0.69561  0.78307  Biso   1.000  O
  O54      1.0000 0.60758  0.67789  0.59377  Biso   1.000  O
  P18      1.0000 0.58918  0.71766  0.68544  Biso   1.000  P
