data_image0
_cell_length_a       15.683
_cell_length_b       15.683
_cell_length_c       11.5526
_cell_angle_alpha    90
_cell_angle_beta     90
_cell_angle_gamma    120

_symmetry_space_group_name_H-M    "P 1"
_symmetry_int_tables_number       1

loop_
  _symmetry_equiv_pos_as_xyz
  'x, y, z'

loop_
  _atom_site_label
  _atom_site_occupancy
  _atom_site_fract_x
  _atom_site_fract_y
  _atom_site_fract_z
  _atom_site_thermal_displace_type
  _atom_site_B_iso_or_equiv
  _atom_site_type_symbol
  O1       1.0000 0.93450  0.57200  0.77570  Biso   1.000  O
  O2       1.0000 0.87180  0.41500  0.79110  Biso   1.000  O
  C1       1.0000 0.87420  0.49310  0.82300  Biso   1.000  C
  C2       1.0000 0.80820  0.49620  0.91040  Biso   1.000  C
  C3       1.0000 0.73260  0.40670  0.95640  Biso   1.000  C
  C4       1.0000 0.82380  0.58530  0.95350  Biso   1.000  C
  N1       1.0000 0.89760  0.67900  0.91300  Biso   1.000  N
  N2       1.0000 0.71300  0.31310  0.91600  Biso   1.000  N
  O3       1.0000 0.42800  0.36250  0.44237  Biso   1.000  O
  O4       1.0000 0.58500  0.45680  0.45777  Biso   1.000  O
  C5       1.0000 0.50690  0.38110  0.48967  Biso   1.000  C
  C6       1.0000 0.50380  0.31200  0.57707  Biso   1.000  C
  C7       1.0000 0.59330  0.32590  0.62307  Biso   1.000  C
  C8       1.0000 0.41470  0.23850  0.62017  Biso   1.000  C
  N3       1.0000 0.32100  0.21860  0.57967  Biso   1.000  N
  N4       1.0000 0.68690  0.39990  0.58267  Biso   1.000  N
  O5       1.0000 0.63750  0.06550  0.10903  Biso   1.000  O
  O6       1.0000 0.54320  0.12820  0.12443  Biso   1.000  O
  C9       1.0000 0.61890  0.12580  0.15633  Biso   1.000  C
  C10      1.0000 0.68800  0.19180  0.24373  Biso   1.000  C
  C11      1.0000 0.67410  0.26740  0.28973  Biso   1.000  C
  C12      1.0000 0.76150  0.17620  0.28683  Biso   1.000  C
  N5       1.0000 0.78140  0.10240  0.24633  Biso   1.000  N
  N6       1.0000 0.60010  0.28700  0.24933  Biso   1.000  N
  O7       1.0000 0.06550  0.42800  0.77570  Biso   1.000  O
  O8       1.0000 0.12820  0.58500  0.79110  Biso   1.000  O
  C13      1.0000 0.12580  0.50690  0.82300  Biso   1.000  C
  C14      1.0000 0.19180  0.50380  0.91040  Biso   1.000  C
  C15      1.0000 0.26740  0.59330  0.95640  Biso   1.000  C
  C16      1.0000 0.17620  0.41470  0.95350  Biso   1.000  C
  N7       1.0000 0.10240  0.32100  0.91300  Biso   1.000  N
  N8       1.0000 0.28700  0.68690  0.91600  Biso   1.000  N
  O9       1.0000 0.57200  0.63750  0.44237  Biso   1.000  O
  O10      1.0000 0.41500  0.54320  0.45777  Biso   1.000  O
  C17      1.0000 0.49310  0.61890  0.48967  Biso   1.000  C
  C18      1.0000 0.49620  0.68800  0.57707  Biso   1.000  C
  C19      1.0000 0.40670  0.67410  0.62307  Biso   1.000  C
  C20      1.0000 0.58530  0.76150  0.62017  Biso   1.000  C
  N9       1.0000 0.67900  0.78140  0.57967  Biso   1.000  N
  N10      1.0000 0.31310  0.60010  0.58267  Biso   1.000  N
  O11      1.0000 0.36250  0.93450  0.10903  Biso   1.000  O
  O12      1.0000 0.45680  0.87180  0.12443  Biso   1.000  O
  C21      1.0000 0.38110  0.87420  0.15633  Biso   1.000  C
  C22      1.0000 0.31200  0.80820  0.24373  Biso   1.000  C
  C23      1.0000 0.32590  0.73260  0.28973  Biso   1.000  C
  C24      1.0000 0.23850  0.82380  0.28683  Biso   1.000  C
  N11      1.0000 0.21860  0.89760  0.24633  Biso   1.000  N
  N12      1.0000 0.39990  0.71300  0.24933  Biso   1.000  N
  O13      1.0000 0.57200  0.93450  0.89097  Biso   1.000  O
  O14      1.0000 0.41500  0.87180  0.87557  Biso   1.000  O
  C25      1.0000 0.49310  0.87420  0.84367  Biso   1.000  C
  C26      1.0000 0.49620  0.80820  0.75627  Biso   1.000  C
  C27      1.0000 0.40670  0.73260  0.71027  Biso   1.000  C
  C28      1.0000 0.58530  0.82380  0.71317  Biso   1.000  C
  N13      1.0000 0.67900  0.89760  0.75367  Biso   1.000  N
  N14      1.0000 0.31310  0.71300  0.75067  Biso   1.000  N
  O15      1.0000 0.36250  0.42800  0.22430  Biso   1.000  O
  O16      1.0000 0.45680  0.58500  0.20890  Biso   1.000  O
  C29      1.0000 0.38110  0.50690  0.17700  Biso   1.000  C
  C30      1.0000 0.31200  0.50380  0.08960  Biso   1.000  C
  C31      1.0000 0.32590  0.59330  0.04360  Biso   1.000  C
  C32      1.0000 0.23850  0.41470  0.04650  Biso   1.000  C
  N15      1.0000 0.21860  0.32100  0.08700  Biso   1.000  N
  N16      1.0000 0.39990  0.68690  0.08400  Biso   1.000  N
  O17      1.0000 0.06550  0.63750  0.55763  Biso   1.000  O
  O18      1.0000 0.12820  0.54320  0.54223  Biso   1.000  O
  C33      1.0000 0.12580  0.61890  0.51033  Biso   1.000  C
  C34      1.0000 0.19180  0.68800  0.42293  Biso   1.000  C
  C35      1.0000 0.26740  0.67410  0.37693  Biso   1.000  C
  C36      1.0000 0.17620  0.76150  0.37983  Biso   1.000  C
  N17      1.0000 0.10240  0.78140  0.42033  Biso   1.000  N
  N18      1.0000 0.28700  0.60010  0.41733  Biso   1.000  N
  O19      1.0000 0.42800  0.06550  0.89097  Biso   1.000  O
  O20      1.0000 0.58500  0.12820  0.87557  Biso   1.000  O
  C37      1.0000 0.50690  0.12580  0.84367  Biso   1.000  C
  C38      1.0000 0.50380  0.19180  0.75627  Biso   1.000  C
  C39      1.0000 0.59330  0.26740  0.71027  Biso   1.000  C
  C40      1.0000 0.41470  0.17620  0.71317  Biso   1.000  C
  N19      1.0000 0.32100  0.10240  0.75367  Biso   1.000  N
  N20      1.0000 0.68690  0.28700  0.75067  Biso   1.000  N
  O21      1.0000 0.63750  0.57200  0.22430  Biso   1.000  O
  O22      1.0000 0.54320  0.41500  0.20890  Biso   1.000  O
  C41      1.0000 0.61890  0.49310  0.17700  Biso   1.000  C
  C42      1.0000 0.68800  0.49620  0.08960  Biso   1.000  C
  C43      1.0000 0.67410  0.40670  0.04360  Biso   1.000  C
  C44      1.0000 0.76150  0.58530  0.04650  Biso   1.000  C
  N21      1.0000 0.78140  0.67900  0.08700  Biso   1.000  N
  N22      1.0000 0.60010  0.31310  0.08400  Biso   1.000  N
  O23      1.0000 0.93450  0.36250  0.55763  Biso   1.000  O
  O24      1.0000 0.87180  0.45680  0.54223  Biso   1.000  O
  C45      1.0000 0.87420  0.38110  0.51033  Biso   1.000  C
  C46      1.0000 0.80820  0.31200  0.42293  Biso   1.000  C
  C47      1.0000 0.73260  0.32590  0.37693  Biso   1.000  C
  C48      1.0000 0.82380  0.23850  0.37983  Biso   1.000  C
  N23      1.0000 0.89760  0.21860  0.42033  Biso   1.000  N
  N24      1.0000 0.71300  0.39990  0.41733  Biso   1.000  N
  In1      1.0000 0.00000  0.50000  0.66667  Biso   1.000  In
  In2      1.0000 0.50000  0.50000  0.33333  Biso   1.000  In
  In3      1.0000 0.50000  0.00000  0.00000  Biso   1.000  In
