data_image0
_cell_length_a       11.9838
_cell_length_b       13.509
_cell_length_c       27.039
_cell_angle_alpha    93.459
_cell_angle_beta     90
_cell_angle_gamma    90

_symmetry_space_group_name_H-M    P 1
_symmetry_int_tables_number       1

loop_
  _symmetry_equiv_pos_as_xyz
  'x, y, z'

loop_
  _atom_site_label
  _atom_site_occupancy
  _atom_site_fract_x
  _atom_site_fract_y
  _atom_site_fract_z
  _atom_site_thermal_displace_type
  _atom_site_B_iso_or_equiv
  _atom_site_type_symbol
  Zn1      1.0000 0.17349  0.82305  0.54204  Biso   1.000  Zn
  Zn2      1.0000 0.82683  0.80152  0.44362  Biso   1.000  Zn
  Zn3      1.0000 0.92406  0.98844  0.38895  Biso   1.000  Zn
  Zn4      1.0000 0.17349  0.17695  0.95796  Biso   1.000  Zn
  Zn5      1.0000 0.82683  0.19848  0.05638  Biso   1.000  Zn
  Zn6      1.0000 0.92406  0.01156  0.11105  Biso   1.000  Zn
  Zn7      1.0000 0.82651  0.17695  0.45796  Biso   1.000  Zn
  Zn8      1.0000 0.17317  0.19848  0.55638  Biso   1.000  Zn
  Zn9      1.0000 0.07594  0.01156  0.61105  Biso   1.000  Zn
  Zn10     1.0000 0.82651  0.82305  0.04204  Biso   1.000  Zn
  Zn11     1.0000 0.17317  0.80152  0.94362  Biso   1.000  Zn
  Zn12     1.0000 0.07594  0.98844  0.88895  Biso   1.000  Zn
  Zn13     1.0000 0.00000  0.00000  0.50000  Biso   1.000  Zn
  Zn14     1.0000 0.00000  0.00000  0.00000  Biso   1.000  Zn
  H1       1.0000 0.12460  0.86120  0.74610  Biso   1.000  H
  H2       1.0000 0.28240  0.63890  0.80740  Biso   1.000  H
  H3       1.0000 0.34930  0.58830  0.73190  Biso   1.000  H
  H4       1.0000 0.30510  0.66650  0.66040  Biso   1.000  H
  H5       1.0000 0.47700  0.89120  0.46450  Biso   1.000  H
  H6       1.0000 0.27760  0.10950  0.41850  Biso   1.000  H
  H7       1.0000 0.42510  0.18350  0.38190  Biso   1.000  H
  H8       1.0000 0.60300  0.09940  0.37780  Biso   1.000  H
  H9       1.0000 0.19680  0.50250  0.49410  Biso   1.000  H
  H10      1.0000 0.03220  0.31960  0.39040  Biso   1.000  H
  H11      1.0000 0.93990  0.45220  0.35300  Biso   1.000  H
  H12      1.0000 0.00840  0.61440  0.38490  Biso   1.000  H
  H13      1.0000 0.12460  0.13880  0.75390  Biso   1.000  H
  H14      1.0000 0.28240  0.36110  0.69260  Biso   1.000  H
  H15      1.0000 0.34930  0.41170  0.76810  Biso   1.000  H
  H16      1.0000 0.30510  0.33350  0.83960  Biso   1.000  H
  H17      1.0000 0.47700  0.10880  0.03550  Biso   1.000  H
  H18      1.0000 0.27760  0.89050  0.08150  Biso   1.000  H
  H19      1.0000 0.42510  0.81650  0.11810  Biso   1.000  H
  H20      1.0000 0.60300  0.90060  0.12220  Biso   1.000  H
  H21      1.0000 0.19680  0.49750  0.00590  Biso   1.000  H
  H22      1.0000 0.03220  0.68040  0.10960  Biso   1.000  H
  H23      1.0000 0.93990  0.54780  0.14700  Biso   1.000  H
  H24      1.0000 0.00840  0.38560  0.11510  Biso   1.000  H
  H25      1.0000 0.87540  0.13880  0.25390  Biso   1.000  H
  H26      1.0000 0.71760  0.36110  0.19260  Biso   1.000  H
  H27      1.0000 0.65070  0.41170  0.26810  Biso   1.000  H
  H28      1.0000 0.69490  0.33350  0.33960  Biso   1.000  H
  H29      1.0000 0.52300  0.10880  0.53550  Biso   1.000  H
  H30      1.0000 0.72240  0.89050  0.58150  Biso   1.000  H
  H31      1.0000 0.57490  0.81650  0.61810  Biso   1.000  H
  H32      1.0000 0.39700  0.90060  0.62220  Biso   1.000  H
  H33      1.0000 0.80320  0.49750  0.50590  Biso   1.000  H
  H34      1.0000 0.96780  0.68040  0.60960  Biso   1.000  H
  H35      1.0000 0.06010  0.54780  0.64700  Biso   1.000  H
  H36      1.0000 0.99160  0.38560  0.61510  Biso   1.000  H
  H37      1.0000 0.87540  0.86120  0.24610  Biso   1.000  H
  H38      1.0000 0.71760  0.63890  0.30740  Biso   1.000  H
  H39      1.0000 0.65070  0.58830  0.23190  Biso   1.000  H
  H40      1.0000 0.69490  0.66650  0.16040  Biso   1.000  H
  H41      1.0000 0.52300  0.89120  0.96450  Biso   1.000  H
  H42      1.0000 0.72240  0.10950  0.91850  Biso   1.000  H
  H43      1.0000 0.57490  0.18350  0.88190  Biso   1.000  H
  H44      1.0000 0.39700  0.09940  0.87780  Biso   1.000  H
  H45      1.0000 0.80320  0.50250  0.99410  Biso   1.000  H
  H46      1.0000 0.96780  0.31960  0.89040  Biso   1.000  H
  H47      1.0000 0.06010  0.45220  0.85300  Biso   1.000  H
  H48      1.0000 0.99160  0.61440  0.88490  Biso   1.000  H
  C1       1.0000 0.20660  0.77650  0.69460  Biso   1.000  C
  C2       1.0000 0.17120  0.80430  0.74260  Biso   1.000  C
  C3       1.0000 0.19530  0.76020  0.78450  Biso   1.000  C
  C4       1.0000 0.26400  0.67460  0.77930  Biso   1.000  C
  C5       1.0000 0.30200  0.64470  0.73450  Biso   1.000  C
  C6       1.0000 0.27600  0.69130  0.69140  Biso   1.000  C
  C7       1.0000 0.17320  0.82760  0.65170  Biso   1.000  C
  C8       1.0000 0.15770  0.79810  0.83570  Biso   1.000  C
  C9       1.0000 0.55680  0.98880  0.42040  Biso   1.000  C
  C10      1.0000 0.46680  0.94850  0.44640  Biso   1.000  C
  C11      1.0000 0.36150  0.99490  0.44480  Biso   1.000  C
  C12      1.0000 0.34930  0.07980  0.41970  Biso   1.000  C
  C13      1.0000 0.43490  0.12230  0.39690  Biso   1.000  C
  C14      1.0000 0.54270  0.07320  0.39570  Biso   1.000  C
  C15      1.0000 0.67030  0.94310  0.42420  Biso   1.000  C
  C16      1.0000 0.26910  0.95260  0.47390  Biso   1.000  C
  C17      1.0000 0.07900  0.56800  0.44440  Biso   1.000  C
  C18      1.0000 0.13920  0.49240  0.47020  Biso   1.000  C
  C19      1.0000 0.08800  0.39000  0.44980  Biso   1.000  C
  C20      1.0000 0.03700  0.38400  0.40630  Biso   1.000  C
  C21      1.0000 0.98900  0.46100  0.38060  Biso   1.000  C
  C22      1.0000 0.02500  0.55700  0.40210  Biso   1.000  C
  C23      1.0000 0.13110  0.68250  0.46540  Biso   1.000  C
  C24      1.0000 0.14310  0.30750  0.47430  Biso   1.000  C
  C25      1.0000 0.20660  0.22350  0.80540  Biso   1.000  C
  C26      1.0000 0.17120  0.19570  0.75740  Biso   1.000  C
  C27      1.0000 0.19530  0.23980  0.71550  Biso   1.000  C
  C28      1.0000 0.26400  0.32540  0.72070  Biso   1.000  C
  C29      1.0000 0.30200  0.35530  0.76550  Biso   1.000  C
  C30      1.0000 0.27600  0.30870  0.80860  Biso   1.000  C
  C31      1.0000 0.17320  0.17240  0.84830  Biso   1.000  C
  C32      1.0000 0.15770  0.20190  0.66430  Biso   1.000  C
  C33      1.0000 0.55680  0.01120  0.07960  Biso   1.000  C
  C34      1.0000 0.46680  0.05150  0.05360  Biso   1.000  C
  C35      1.0000 0.36150  0.00510  0.05520  Biso   1.000  C
  C36      1.0000 0.34930  0.92020  0.08030  Biso   1.000  C
  C37      1.0000 0.43490  0.87770  0.10310  Biso   1.000  C
  C38      1.0000 0.54270  0.92680  0.10430  Biso   1.000  C
  C39      1.0000 0.67030  0.05690  0.07580  Biso   1.000  C
  C40      1.0000 0.26910  0.04740  0.02610  Biso   1.000  C
  C41      1.0000 0.07900  0.43200  0.05560  Biso   1.000  C
  C42      1.0000 0.13920  0.50760  0.02980  Biso   1.000  C
  C43      1.0000 0.08800  0.61000  0.05020  Biso   1.000  C
  C44      1.0000 0.03700  0.61600  0.09370  Biso   1.000  C
  C45      1.0000 0.98900  0.53900  0.11940  Biso   1.000  C
  C46      1.0000 0.02500  0.44300  0.09790  Biso   1.000  C
  C47      1.0000 0.13110  0.31750  0.03460  Biso   1.000  C
  C48      1.0000 0.14310  0.69250  0.02570  Biso   1.000  C
  C49      1.0000 0.79340  0.22350  0.30540  Biso   1.000  C
  C50      1.0000 0.82880  0.19570  0.25740  Biso   1.000  C
  C51      1.0000 0.80470  0.23980  0.21550  Biso   1.000  C
  C52      1.0000 0.73600  0.32540  0.22070  Biso   1.000  C
  C53      1.0000 0.69800  0.35530  0.26550  Biso   1.000  C
  C54      1.0000 0.72400  0.30870  0.30860  Biso   1.000  C
  C55      1.0000 0.82680  0.17240  0.34830  Biso   1.000  C
  C56      1.0000 0.84230  0.20190  0.16430  Biso   1.000  C
  C57      1.0000 0.44320  0.01120  0.57960  Biso   1.000  C
  C58      1.0000 0.53320  0.05150  0.55360  Biso   1.000  C
  C59      1.0000 0.63850  0.00510  0.55520  Biso   1.000  C
  C60      1.0000 0.65070  0.92020  0.58030  Biso   1.000  C
  C61      1.0000 0.56510  0.87770  0.60310  Biso   1.000  C
  C62      1.0000 0.45730  0.92680  0.60430  Biso   1.000  C
  C63      1.0000 0.32970  0.05690  0.57580  Biso   1.000  C
  C64      1.0000 0.73090  0.04740  0.52610  Biso   1.000  C
  C65      1.0000 0.92100  0.43200  0.55560  Biso   1.000  C
  C66      1.0000 0.86080  0.50760  0.52980  Biso   1.000  C
  C67      1.0000 0.91200  0.61000  0.55020  Biso   1.000  C
  C68      1.0000 0.96300  0.61600  0.59370  Biso   1.000  C
  C69      1.0000 0.01100  0.53900  0.61940  Biso   1.000  C
  C70      1.0000 0.97500  0.44300  0.59790  Biso   1.000  C
  C71      1.0000 0.86890  0.31750  0.53460  Biso   1.000  C
  C72      1.0000 0.85690  0.69250  0.52570  Biso   1.000  C
  C73      1.0000 0.79340  0.77650  0.19460  Biso   1.000  C
  C74      1.0000 0.82880  0.80430  0.24260  Biso   1.000  C
  C75      1.0000 0.80470  0.76020  0.28450  Biso   1.000  C
  C76      1.0000 0.73600  0.67460  0.27930  Biso   1.000  C
  C77      1.0000 0.69800  0.64470  0.23450  Biso   1.000  C
  C78      1.0000 0.72400  0.69130  0.19140  Biso   1.000  C
  C79      1.0000 0.82680  0.82760  0.15170  Biso   1.000  C
  C80      1.0000 0.84230  0.79810  0.33570  Biso   1.000  C
  C81      1.0000 0.44320  0.98880  0.92040  Biso   1.000  C
  C82      1.0000 0.53320  0.94850  0.94640  Biso   1.000  C
  C83      1.0000 0.63850  0.99490  0.94480  Biso   1.000  C
  C84      1.0000 0.65070  0.07980  0.91970  Biso   1.000  C
  C85      1.0000 0.56510  0.12230  0.89690  Biso   1.000  C
  C86      1.0000 0.45730  0.07320  0.89570  Biso   1.000  C
  C87      1.0000 0.32970  0.94310  0.92420  Biso   1.000  C
  C88      1.0000 0.73090  0.95260  0.97390  Biso   1.000  C
  C89      1.0000 0.92100  0.56800  0.94440  Biso   1.000  C
  C90      1.0000 0.86080  0.49240  0.97020  Biso   1.000  C
  C91      1.0000 0.91200  0.39000  0.94980  Biso   1.000  C
  C92      1.0000 0.96300  0.38400  0.90630  Biso   1.000  C
  C93      1.0000 0.01100  0.46100  0.88060  Biso   1.000  C
  C94      1.0000 0.97500  0.55700  0.90210  Biso   1.000  C
  C95      1.0000 0.86890  0.68250  0.96540  Biso   1.000  C
  C96      1.0000 0.85690  0.30750  0.97430  Biso   1.000  C
  O1       1.0000 0.11050  0.90190  0.65660  Biso   1.000  O
  O2       1.0000 0.20870  0.79180  0.60960  Biso   1.000  O
  O3       1.0000 0.09610  0.87390  0.83500  Biso   1.000  O
  O4       1.0000 0.18370  0.75390  0.87260  Biso   1.000  O
  O5       1.0000 0.68000  0.86440  0.44780  Biso   1.000  O
  O6       1.0000 0.75070  0.98600  0.40230  Biso   1.000  O
  O7       1.0000 0.29080  0.88670  0.50340  Biso   1.000  O
  O8       1.0000 0.17140  0.98860  0.46770  Biso   1.000  O
  O9       1.0000 0.14770  0.68900  0.51130  Biso   1.000  O
  O10      1.0000 0.11870  0.75100  0.43870  Biso   1.000  O
  O11      1.0000 0.16290  0.32150  0.52290  Biso   1.000  O
  O12      1.0000 0.13500  0.22490  0.45080  Biso   1.000  O
  O13      1.0000 0.95430  0.89300  0.44620  Biso   1.000  O
  O14      1.0000 0.04240  0.90430  0.55260  Biso   1.000  O
  O15      1.0000 0.11050  0.09810  0.84340  Biso   1.000  O
  O16      1.0000 0.20870  0.20820  0.89040  Biso   1.000  O
  O17      1.0000 0.09610  0.12610  0.66500  Biso   1.000  O
  O18      1.0000 0.18370  0.24610  0.62740  Biso   1.000  O
  O19      1.0000 0.68000  0.13560  0.05220  Biso   1.000  O
  O20      1.0000 0.75070  0.01400  0.09770  Biso   1.000  O
  O21      1.0000 0.29080  0.11330  0.99660  Biso   1.000  O
  O22      1.0000 0.17140  0.01140  0.03230  Biso   1.000  O
  O23      1.0000 0.14770  0.31100  0.98870  Biso   1.000  O
  O24      1.0000 0.11870  0.24900  0.06130  Biso   1.000  O
  O25      1.0000 0.16290  0.67850  0.97710  Biso   1.000  O
  O26      1.0000 0.13500  0.77510  0.04920  Biso   1.000  O
  O27      1.0000 0.95430  0.10700  0.05380  Biso   1.000  O
  O28      1.0000 0.04240  0.09570  0.94740  Biso   1.000  O
  O29      1.0000 0.88950  0.09810  0.34340  Biso   1.000  O
  O30      1.0000 0.79130  0.20820  0.39040  Biso   1.000  O
  O31      1.0000 0.90390  0.12610  0.16500  Biso   1.000  O
  O32      1.0000 0.81630  0.24610  0.12740  Biso   1.000  O
  O33      1.0000 0.32000  0.13560  0.55220  Biso   1.000  O
  O34      1.0000 0.24930  0.01400  0.59770  Biso   1.000  O
  O35      1.0000 0.70920  0.11330  0.49660  Biso   1.000  O
  O36      1.0000 0.82860  0.01140  0.53230  Biso   1.000  O
  O37      1.0000 0.85230  0.31100  0.48870  Biso   1.000  O
  O38      1.0000 0.88130  0.24900  0.56130  Biso   1.000  O
  O39      1.0000 0.83710  0.67850  0.47710  Biso   1.000  O
  O40      1.0000 0.86500  0.77510  0.54920  Biso   1.000  O
  O41      1.0000 0.04570  0.10700  0.55380  Biso   1.000  O
  O42      1.0000 0.95760  0.09570  0.44740  Biso   1.000  O
  O43      1.0000 0.88950  0.90190  0.15660  Biso   1.000  O
  O44      1.0000 0.79130  0.79180  0.10960  Biso   1.000  O
  O45      1.0000 0.90390  0.87390  0.33500  Biso   1.000  O
  O46      1.0000 0.81630  0.75390  0.37260  Biso   1.000  O
  O47      1.0000 0.32000  0.86440  0.94780  Biso   1.000  O
  O48      1.0000 0.24930  0.98600  0.90230  Biso   1.000  O
  O49      1.0000 0.70920  0.88670  0.00340  Biso   1.000  O
  O50      1.0000 0.82860  0.98860  0.96770  Biso   1.000  O
  O51      1.0000 0.85230  0.68900  0.01130  Biso   1.000  O
  O52      1.0000 0.88130  0.75100  0.93870  Biso   1.000  O
  O53      1.0000 0.83710  0.32150  0.02290  Biso   1.000  O
  O54      1.0000 0.86500  0.22490  0.95080  Biso   1.000  O
  O55      1.0000 0.04570  0.89300  0.94620  Biso   1.000  O
  O56      1.0000 0.95760  0.90430  0.05260  Biso   1.000  O
