data_image0
_cell_length_a       8.738
_cell_length_b       8.738
_cell_length_c       18.709
_cell_angle_alpha    90
_cell_angle_beta     90
_cell_angle_gamma    120

_symmetry_space_group_name_H-M    "P 1"
_symmetry_int_tables_number       1

loop_
  _symmetry_equiv_pos_as_xyz
  'x, y, z'

loop_
  _atom_site_label
  _atom_site_occupancy
  _atom_site_fract_x
  _atom_site_fract_y
  _atom_site_fract_z
  _atom_site_thermal_displace_type
  _atom_site_B_iso_or_equiv
  _atom_site_type_symbol
  Co1      1.0000 0.00000  0.00000  0.50000  Biso   1.000  Co
  Co2      1.0000 0.66667  0.33333  0.83333  Biso   1.000  Co
  Co3      1.0000 0.33333  0.66667  0.16667  Biso   1.000  Co
  C1       1.0000 0.89615  0.79230  0.44270  Biso   1.000  C
  N1       1.0000 0.83255  0.66510  0.41000  Biso   1.000  N
  C2       1.0000 0.56282  0.12563  0.77603  Biso   1.000  C
  N2       1.0000 0.49922  0.99843  0.74333  Biso   1.000  N
  C3       1.0000 0.22948  0.45897  0.10937  Biso   1.000  C
  N3       1.0000 0.16588  0.33177  0.07667  Biso   1.000  N
  C4       1.0000 0.20770  0.10385  0.44270  Biso   1.000  C
  N4       1.0000 0.33490  0.16745  0.41000  Biso   1.000  N
  C5       1.0000 0.87437  0.43718  0.77603  Biso   1.000  C
  N5       1.0000 0.00157  0.50078  0.74333  Biso   1.000  N
  C6       1.0000 0.54103  0.77052  0.10937  Biso   1.000  C
  N6       1.0000 0.66823  0.83412  0.07667  Biso   1.000  N
  C7       1.0000 0.89615  0.10385  0.44270  Biso   1.000  C
  N7       1.0000 0.83255  0.16745  0.41000  Biso   1.000  N
  C8       1.0000 0.56282  0.43718  0.77603  Biso   1.000  C
  N8       1.0000 0.49922  0.50078  0.74333  Biso   1.000  N
  C9       1.0000 0.22948  0.77052  0.10937  Biso   1.000  C
  N9       1.0000 0.16588  0.83412  0.07667  Biso   1.000  N
  C10      1.0000 0.79230  0.89615  0.55730  Biso   1.000  C
  N10      1.0000 0.66510  0.83255  0.59000  Biso   1.000  N
  C11      1.0000 0.45897  0.22948  0.89063  Biso   1.000  C
  N11      1.0000 0.33177  0.16588  0.92333  Biso   1.000  N
  C12      1.0000 0.12563  0.56282  0.22397  Biso   1.000  C
  N12      1.0000 0.99843  0.49922  0.25667  Biso   1.000  N
  C13      1.0000 0.10385  0.20770  0.55730  Biso   1.000  C
  N13      1.0000 0.16745  0.33490  0.59000  Biso   1.000  N
  C14      1.0000 0.77052  0.54103  0.89063  Biso   1.000  C
  N14      1.0000 0.83412  0.66823  0.92333  Biso   1.000  N
  C15      1.0000 0.43718  0.87437  0.22397  Biso   1.000  C
  N15      1.0000 0.50078  0.00157  0.25667  Biso   1.000  N
  C16      1.0000 0.10385  0.89615  0.55730  Biso   1.000  C
  N16      1.0000 0.16745  0.83255  0.59000  Biso   1.000  N
  C17      1.0000 0.77052  0.22948  0.89063  Biso   1.000  C
  N17      1.0000 0.83412  0.16588  0.92333  Biso   1.000  N
  C18      1.0000 0.43718  0.56282  0.22397  Biso   1.000  C
  N18      1.0000 0.50078  0.49922  0.25667  Biso   1.000  N
  K1       1.0000 0.66667  0.33333  0.33333  Biso   1.000  K
  K2       1.0000 0.33333  0.66667  0.66667  Biso   1.000  K
  K3       1.0000 0.00000  0.00000  0.00000  Biso   1.000  K
