data_image0
_cell_length_a       13.427
_cell_length_b       8.7318
_cell_length_c       15.083
_cell_angle_alpha    90
_cell_angle_beta     111.7
_cell_angle_gamma    90

_symmetry_space_group_name_H-M    "P 1"
_symmetry_int_tables_number       1

loop_
  _symmetry_equiv_pos_as_xyz
  'x, y, z'

loop_
  _atom_site_label
  _atom_site_occupancy
  _atom_site_fract_x
  _atom_site_fract_y
  _atom_site_fract_z
  _atom_site_thermal_displace_type
  _atom_site_B_iso_or_equiv
  _atom_site_type_symbol
  C1       1.0000 0.66390  0.23540  0.57530  Biso   1.000  C
  C2       1.0000 0.83490  0.40040  0.58710  Biso   1.000  C
  C3       1.0000 0.83540  0.08760  0.57430  Biso   1.000  C
  N1       1.0000 0.61480  0.22260  0.62320  Biso   1.000  N
  N2       1.0000 0.88250  0.49210  0.64100  Biso   1.000  N
  N3       1.0000 0.88210  0.98360  0.61600  Biso   1.000  N
  C4       1.0000 0.16390  0.73540  0.57530  Biso   1.000  C
  C5       1.0000 0.33490  0.90040  0.58710  Biso   1.000  C
  C6       1.0000 0.33540  0.58760  0.57430  Biso   1.000  C
  N4       1.0000 0.11480  0.72260  0.62320  Biso   1.000  N
  N5       1.0000 0.38250  0.99210  0.64100  Biso   1.000  N
  N6       1.0000 0.38210  0.48360  0.61600  Biso   1.000  N
  C7       1.0000 0.33610  0.23540  0.92470  Biso   1.000  C
  C8       1.0000 0.16510  0.40040  0.91290  Biso   1.000  C
  C9       1.0000 0.16460  0.08760  0.92570  Biso   1.000  C
  N7       1.0000 0.38520  0.22260  0.87680  Biso   1.000  N
  N8       1.0000 0.11750  0.49210  0.85900  Biso   1.000  N
  N9       1.0000 0.11790  0.98360  0.88400  Biso   1.000  N
  C10      1.0000 0.83610  0.73540  0.92470  Biso   1.000  C
  C11      1.0000 0.66510  0.90040  0.91290  Biso   1.000  C
  C12      1.0000 0.66460  0.58760  0.92570  Biso   1.000  C
  N10      1.0000 0.88520  0.72260  0.87680  Biso   1.000  N
  N11      1.0000 0.61750  0.99210  0.85900  Biso   1.000  N
  N12      1.0000 0.61790  0.48360  0.88400  Biso   1.000  N
  C13      1.0000 0.33610  0.76460  0.42470  Biso   1.000  C
  C14      1.0000 0.16510  0.59960  0.41290  Biso   1.000  C
  C15      1.0000 0.16460  0.91240  0.42570  Biso   1.000  C
  N13      1.0000 0.38520  0.77740  0.37680  Biso   1.000  N
  N14      1.0000 0.11750  0.50790  0.35900  Biso   1.000  N
  N15      1.0000 0.11790  0.01640  0.38400  Biso   1.000  N
  C16      1.0000 0.83610  0.26460  0.42470  Biso   1.000  C
  C17      1.0000 0.66510  0.09960  0.41290  Biso   1.000  C
  C18      1.0000 0.66460  0.41240  0.42570  Biso   1.000  C
  N16      1.0000 0.88520  0.27740  0.37680  Biso   1.000  N
  N17      1.0000 0.61750  0.00790  0.35900  Biso   1.000  N
  N18      1.0000 0.61790  0.51640  0.38400  Biso   1.000  N
  C19      1.0000 0.66390  0.76460  0.07530  Biso   1.000  C
  C20      1.0000 0.83490  0.59960  0.08710  Biso   1.000  C
  C21      1.0000 0.83540  0.91240  0.07430  Biso   1.000  C
  N19      1.0000 0.61480  0.77740  0.12320  Biso   1.000  N
  N20      1.0000 0.88250  0.50790  0.14100  Biso   1.000  N
  N21      1.0000 0.88210  0.01640  0.11600  Biso   1.000  N
  C22      1.0000 0.16390  0.26460  0.07530  Biso   1.000  C
  C23      1.0000 0.33490  0.09960  0.08710  Biso   1.000  C
  C24      1.0000 0.33540  0.41240  0.07430  Biso   1.000  C
  N22      1.0000 0.11480  0.27740  0.12320  Biso   1.000  N
  N23      1.0000 0.38250  0.00790  0.14100  Biso   1.000  N
  N24      1.0000 0.38210  0.51640  0.11600  Biso   1.000  N
  Co1      1.0000 0.75000  0.25000  0.50000  Biso   1.000  Co
  Co2      1.0000 0.25000  0.25000  0.00000  Biso   1.000  Co
  Co3      1.0000 0.25000  0.75000  0.50000  Biso   1.000  Co
  Co4      1.0000 0.75000  0.75000  0.00000  Biso   1.000  Co
  K1       1.0000 0.50000  0.25132  0.75000  Biso   1.000  K
  K2       1.0000 1.00000  0.75132  0.75000  Biso   1.000  K
  K3       1.0000 0.50000  0.74868  0.25000  Biso   1.000  K
  K4       1.0000 0.00000  0.24868  0.25000  Biso   1.000  K
