data_image0
_cell_length_a       9.9462
_cell_length_b       23.357
_cell_length_c       23.6035
_cell_angle_alpha    94.998
_cell_angle_beta     96.626
_cell_angle_gamma    90.668

_symmetry_space_group_name_H-M    P 1
_symmetry_int_tables_number       1

loop_
  _symmetry_equiv_pos_as_xyz
  'x, y, z'

loop_
  _atom_site_label
  _atom_site_occupancy
  _atom_site_fract_x
  _atom_site_fract_y
  _atom_site_fract_z
  _atom_site_thermal_displace_type
  _atom_site_B_iso_or_equiv
  _atom_site_type_symbol
  Nd1      1.0000 0.78260  0.98056  0.99808  Biso   1.000  Nd
  Nd2      1.0000 0.26286  0.49760  0.52047  Biso   1.000  Nd
  Nd3      1.0000 0.21740  0.01944  0.00192  Biso   1.000  Nd
  Nd4      1.0000 0.73714  0.50240  0.47953  Biso   1.000  Nd
  P1       1.0000 0.05820  0.89801  0.07105  Biso   1.000  P
  P2       1.0000 0.00680  0.60778  0.51814  Biso   1.000  P
  P3       1.0000 0.51150  0.96776  0.08996  Biso   1.000  P
  P4       1.0000 0.42910  0.41710  0.41282  Biso   1.000  P
  P5       1.0000 0.94180  0.10199  0.92895  Biso   1.000  P
  P6       1.0000 0.99320  0.39222  0.48186  Biso   1.000  P
  P7       1.0000 0.48850  0.03224  0.91004  Biso   1.000  P
  P8       1.0000 0.57090  0.58290  0.58718  Biso   1.000  P
  H1       1.0000 0.78160  0.79730  0.46640  Biso   1.000  H
  H2       1.0000 0.89040  0.84680  0.46860  Biso   1.000  H
  H3       1.0000 0.70400  0.73700  0.36300  Biso   1.000  H
  H4       1.0000 0.72700  0.82600  0.22500  Biso   1.000  H
  H5       1.0000 0.79100  0.94200  0.25200  Biso   1.000  H
  H6       1.0000 0.90800  0.95000  0.30100  Biso   1.000  H
  H7       1.0000 0.89800  0.91000  0.16200  Biso   1.000  H
  H8       1.0000 0.27300  0.86900  0.15600  Biso   1.000  H
  H9       1.0000 0.42360  0.85520  0.23370  Biso   1.000  H
  H10      1.0000 0.39230  0.88940  0.29060  Biso   1.000  H
  H11      1.0000 0.34080  0.74930  0.21880  Biso   1.000  H
  H12      1.0000 0.31400  0.66100  0.26000  Biso   1.000  H
  H13      1.0000 0.33700  0.66600  0.36000  Biso   1.000  H
  H14      1.0000 0.40320  0.72140  0.45430  Biso   1.000  H
  H15      1.0000 0.37650  0.78750  0.45900  Biso   1.000  H
  H16      1.0000 0.22100  0.67200  0.48400  Biso   1.000  H
  H17      1.0000 0.81700  0.70400  0.48100  Biso   1.000  H
  H18      1.0000 0.82000  0.98400  0.45700  Biso   1.000  H
  H19      1.0000 0.79600  0.93400  0.43900  Biso   1.000  H
  H20      1.0000 0.50300  0.91800  0.42800  Biso   1.000  H
  H21      1.0000 0.57600  0.84900  0.42200  Biso   1.000  H
  H22      1.0000 0.83000  0.24400  0.42100  Biso   1.000  H
  H23      1.0000 0.85100  0.29600  0.39400  Biso   1.000  H
  H24      1.0000 0.78610  0.28980  0.28180  Biso   1.000  H
  H25      1.0000 0.79600  0.23900  0.18400  Biso   1.000  H
  H26      1.0000 0.81260  0.13800  0.18920  Biso   1.000  H
  H27      1.0000 0.84940  0.05440  0.30840  Biso   1.000  H
  H28      1.0000 0.89410  0.05400  0.24670  Biso   1.000  H
  H29      1.0000 0.73700  0.01720  0.16460  Biso   1.000  H
  H30      1.0000 0.36300  0.97330  0.18070  Biso   1.000  H
  H31      1.0000 0.24260  0.98300  0.26730  Biso   1.000  H
  H32      1.0000 0.37490  0.01320  0.33610  Biso   1.000  H
  H33      1.0000 0.16560  0.09510  0.23040  Biso   1.000  H
  H34      1.0000 0.13710  0.17300  0.24540  Biso   1.000  H
  H35      1.0000 0.17890  0.22540  0.33160  Biso   1.000  H
  H36      1.0000 0.22800  0.21700  0.43800  Biso   1.000  H
  H37      1.0000 0.36500  0.17800  0.44900  Biso   1.000  H
  H38      1.0000 0.30340  0.31080  0.42570  Biso   1.000  H
  H39      1.0000 0.68000  0.36500  0.40700  Biso   1.000  H
  H40      1.0000 0.95800  0.10400  0.43500  Biso   1.000  H
  H41      1.0000 0.02000  0.12100  0.36300  Biso   1.000  H
  H42      1.0000 0.36820  0.02530  0.45860  Biso   1.000  H
  H43      1.0000 0.25370  0.01940  0.40680  Biso   1.000  H
  H44      1.0000 0.25680  0.07200  0.45300  Biso   1.000  H
  H45      1.0000 0.21840  0.20270  0.53360  Biso   1.000  H
  H46      1.0000 0.10960  0.15320  0.53140  Biso   1.000  H
  H47      1.0000 0.29600  0.26300  0.63700  Biso   1.000  H
  H48      1.0000 0.27300  0.17400  0.77500  Biso   1.000  H
  H49      1.0000 0.20900  0.05800  0.74800  Biso   1.000  H
  H50      1.0000 0.09200  0.05000  0.69900  Biso   1.000  H
  H51      1.0000 0.10200  0.09000  0.83800  Biso   1.000  H
  H52      1.0000 0.72700  0.13100  0.84400  Biso   1.000  H
  H53      1.0000 0.57640  0.14480  0.76630  Biso   1.000  H
  H54      1.0000 0.60770  0.11060  0.70940  Biso   1.000  H
  H55      1.0000 0.65920  0.25070  0.78120  Biso   1.000  H
  H56      1.0000 0.68600  0.33900  0.74000  Biso   1.000  H
  H57      1.0000 0.66300  0.33400  0.64000  Biso   1.000  H
  H58      1.0000 0.59680  0.27860  0.54570  Biso   1.000  H
  H59      1.0000 0.62350  0.21250  0.54100  Biso   1.000  H
  H60      1.0000 0.77900  0.32800  0.51600  Biso   1.000  H
  H61      1.0000 0.18300  0.29600  0.51900  Biso   1.000  H
  H62      1.0000 0.18000  0.01600  0.54300  Biso   1.000  H
  H63      1.0000 0.20400  0.06600  0.56100  Biso   1.000  H
  H64      1.0000 0.49700  0.08200  0.57200  Biso   1.000  H
  H65      1.0000 0.42400  0.15100  0.57800  Biso   1.000  H
  H66      1.0000 0.17000  0.75600  0.57900  Biso   1.000  H
  H67      1.0000 0.14900  0.70400  0.60600  Biso   1.000  H
  H68      1.0000 0.21390  0.71020  0.71820  Biso   1.000  H
  H69      1.0000 0.20400  0.76100  0.81600  Biso   1.000  H
  H70      1.0000 0.18740  0.86200  0.81080  Biso   1.000  H
  H71      1.0000 0.15060  0.94560  0.69160  Biso   1.000  H
  H72      1.0000 0.10590  0.94600  0.75330  Biso   1.000  H
  H73      1.0000 0.26300  0.98280  0.83540  Biso   1.000  H
  H74      1.0000 0.63700  0.02670  0.81930  Biso   1.000  H
  H75      1.0000 0.75740  0.01700  0.73270  Biso   1.000  H
  H76      1.0000 0.62510  0.98680  0.66390  Biso   1.000  H
  H77      1.0000 0.83440  0.90490  0.76960  Biso   1.000  H
  H78      1.0000 0.86290  0.82700  0.75460  Biso   1.000  H
  H79      1.0000 0.82110  0.77460  0.66840  Biso   1.000  H
  H80      1.0000 0.77200  0.78300  0.56200  Biso   1.000  H
  H81      1.0000 0.63500  0.82200  0.55100  Biso   1.000  H
  H82      1.0000 0.69660  0.68920  0.57430  Biso   1.000  H
  H83      1.0000 0.32000  0.63500  0.59300  Biso   1.000  H
  H84      1.0000 0.04200  0.89600  0.56500  Biso   1.000  H
  H85      1.0000 0.98000  0.87900  0.63700  Biso   1.000  H
  H86      1.0000 0.63180  0.97470  0.54140  Biso   1.000  H
  H87      1.0000 0.74630  0.98060  0.59320  Biso   1.000  H
  H88      1.0000 0.74320  0.92800  0.54700  Biso   1.000  H
  C1       1.0000 0.97260  0.76660  0.45960  Biso   1.000  C
  C2       1.0000 0.86030  0.80960  0.44950  Biso   1.000  C
  C3       1.0000 0.82030  0.81570  0.38600  Biso   1.000  C
  C4       1.0000 0.74810  0.77100  0.35070  Biso   1.000  C
  C5       1.0000 0.71430  0.77460  0.29250  Biso   1.000  C
  C6       1.0000 0.75690  0.82530  0.26910  Biso   1.000  C
  C7       1.0000 0.82650  0.86870  0.30080  Biso   1.000  C
  C8       1.0000 0.87740  0.91840  0.27380  Biso   1.000  C
  C9       1.0000 0.99380  0.90420  0.23870  Biso   1.000  C
  C10      1.0000 0.97600  0.90590  0.18000  Biso   1.000  C
  C11      1.0000 0.07870  0.89040  0.14620  Biso   1.000  C
  C12      1.0000 0.20260  0.87400  0.17500  Biso   1.000  C
  C13      1.0000 0.22210  0.87380  0.23290  Biso   1.000  C
  C14      1.0000 0.36010  0.85850  0.26200  Biso   1.000  C
  C15      1.0000 0.35730  0.80150  0.29120  Biso   1.000  C
  C16      1.0000 0.34290  0.74990  0.25840  Biso   1.000  C
  C17      1.0000 0.33150  0.69850  0.28300  Biso   1.000  C
  C18      1.0000 0.33280  0.70080  0.34200  Biso   1.000  C
  C19      1.0000 0.34930  0.75160  0.37660  Biso   1.000  C
  C20      1.0000 0.34320  0.75070  0.44000  Biso   1.000  C
  C21      1.0000 0.20300  0.73910  0.45600  Biso   1.000  C
  C22      1.0000 0.17220  0.68740  0.47570  Biso   1.000  C
  C23      1.0000 0.04420  0.67420  0.48930  Biso   1.000  C
  C24      1.0000 0.94190  0.71440  0.47980  Biso   1.000  C
  C25      1.0000 0.10040  0.77880  0.44890  Biso   1.000  C
  C26      1.0000 0.85510  0.86530  0.35950  Biso   1.000  C
  C27      1.0000 0.11910  0.88990  0.26450  Biso   1.000  C
  C28      1.0000 0.36400  0.80070  0.34970  Biso   1.000  C
  C29      1.0000 0.84840  0.95480  0.41460  Biso   1.000  C
  C30      1.0000 0.51250  0.87450  0.40020  Biso   1.000  C
  C31      1.0000 0.65270  0.27150  0.39820  Biso   1.000  C
  C32      1.0000 0.79720  0.25800  0.38710  Biso   1.000  C
  C33      1.0000 0.80390  0.22320  0.32910  Biso   1.000  C
  C34      1.0000 0.79460  0.25010  0.28010  Biso   1.000  C
  C35      1.0000 0.79750  0.21870  0.22660  Biso   1.000  C
  C36      1.0000 0.80990  0.15900  0.22430  Biso   1.000  C
  C37      1.0000 0.81810  0.13070  0.27390  Biso   1.000  C
  C38      1.0000 0.82450  0.06650  0.27030  Biso   1.000  C
  C39      1.0000 0.68880  0.03790  0.24500  Biso   1.000  C
  C40      1.0000 0.66670  0.01619  0.18726  Biso   1.000  C
  C41      1.0000 0.54200  0.99333  0.16362  Biso   1.000  C
  C42      1.0000 0.43460  0.99352  0.19748  Biso   1.000  C
  C43      1.0000 0.45220  0.01470  0.25502  Biso   1.000  C
  C44      1.0000 0.33380  0.01534  0.29036  Biso   1.000  C
  C45      1.0000 0.28350  0.07408  0.30328  Biso   1.000  C
  C46      1.0000 0.20610  0.10302  0.26240  Biso   1.000  C
  C47      1.0000 0.16540  0.15742  0.27345  Biso   1.000  C
  C48      1.0000 0.20420  0.18743  0.32523  Biso   1.000  C
  C49      1.0000 0.28070  0.16160  0.36790  Biso   1.000  C
  C50      1.0000 0.32760  0.19660  0.42550  Biso   1.000  C
  C51      1.0000 0.42640  0.24290  0.41790  Biso   1.000  C
  C52      1.0000 0.39090  0.30110  0.41900  Biso   1.000  C
  C53      1.0000 0.47930  0.34410  0.41050  Biso   1.000  C
  C54      1.0000 0.60810  0.32950  0.39940  Biso   1.000  C
  C55      1.0000 0.56280  0.23000  0.40940  Biso   1.000  C
  C56      1.0000 0.81850  0.16310  0.32650  Biso   1.000  C
  C57      1.0000 0.58050  0.03570  0.27910  Biso   1.000  C
  C58      1.0000 0.31750  0.10520  0.35700  Biso   1.000  C
  C59      1.0000 0.96230  0.12900  0.40270  Biso   1.000  C
  C60      1.0000 0.31140  0.04600  0.43220  Biso   1.000  C
  C61      1.0000 0.70630  0.12820  0.05240  Biso   1.000  C
  C62      1.0000 0.37390  0.36700  0.58270  Biso   1.000  C
  C63      1.0000 0.02740  0.23340  0.54040  Biso   1.000  C
  C64      1.0000 0.13970  0.19040  0.55050  Biso   1.000  C
  C65      1.0000 0.17970  0.18430  0.61400  Biso   1.000  C
  C66      1.0000 0.25190  0.22900  0.64930  Biso   1.000  C
  C67      1.0000 0.28570  0.22540  0.70750  Biso   1.000  C
  C68      1.0000 0.24310  0.17470  0.73090  Biso   1.000  C
  C69      1.0000 0.17350  0.13130  0.69920  Biso   1.000  C
  C70      1.0000 0.12260  0.08160  0.72620  Biso   1.000  C
  C71      1.0000 0.00620  0.09580  0.76130  Biso   1.000  C
  C72      1.0000 0.02400  0.09410  0.82000  Biso   1.000  C
  C73      1.0000 0.92130  0.10960  0.85380  Biso   1.000  C
  C74      1.0000 0.79740  0.12600  0.82500  Biso   1.000  C
  C75      1.0000 0.77790  0.12620  0.76710  Biso   1.000  C
  C76      1.0000 0.63990  0.14150  0.73800  Biso   1.000  C
  C77      1.0000 0.64270  0.19850  0.70880  Biso   1.000  C
  C78      1.0000 0.65710  0.25010  0.74160  Biso   1.000  C
  C79      1.0000 0.66850  0.30150  0.71700  Biso   1.000  C
  C80      1.0000 0.66720  0.29920  0.65800  Biso   1.000  C
  C81      1.0000 0.65070  0.24840  0.62340  Biso   1.000  C
  C82      1.0000 0.65680  0.24930  0.56000  Biso   1.000  C
  C83      1.0000 0.79700  0.26090  0.54400  Biso   1.000  C
  C84      1.0000 0.82780  0.31260  0.52430  Biso   1.000  C
  C85      1.0000 0.95580  0.32580  0.51070  Biso   1.000  C
  C86      1.0000 0.05810  0.28560  0.52020  Biso   1.000  C
  C87      1.0000 0.89960  0.22120  0.55110  Biso   1.000  C
  C88      1.0000 0.14490  0.13470  0.64050  Biso   1.000  C
  C89      1.0000 0.88090  0.11010  0.73550  Biso   1.000  C
  C90      1.0000 0.63600  0.19930  0.65030  Biso   1.000  C
  C91      1.0000 0.15160  0.04520  0.58540  Biso   1.000  C
  C92      1.0000 0.48750  0.12550  0.59980  Biso   1.000  C
  C93      1.0000 0.34730  0.72850  0.60180  Biso   1.000  C
  C94      1.0000 0.20280  0.74200  0.61290  Biso   1.000  C
  C95      1.0000 0.19610  0.77680  0.67090  Biso   1.000  C
  C96      1.0000 0.20540  0.74990  0.71990  Biso   1.000  C
  C97      1.0000 0.20250  0.78130  0.77340  Biso   1.000  C
  C98      1.0000 0.19010  0.84100  0.77570  Biso   1.000  C
  C99      1.0000 0.18190  0.86930  0.72610  Biso   1.000  C
  C100     1.0000 0.17550  0.93350  0.72970  Biso   1.000  C
  C101     1.0000 0.31120  0.96210  0.75500  Biso   1.000  C
  C102     1.0000 0.33330  0.98381  0.81274  Biso   1.000  C
  C103     1.0000 0.45800  0.00667  0.83638  Biso   1.000  C
  C104     1.0000 0.56540  0.00648  0.80252  Biso   1.000  C
  C105     1.0000 0.54780  0.98530  0.74498  Biso   1.000  C
  C106     1.0000 0.66620  0.98466  0.70964  Biso   1.000  C
  C107     1.0000 0.71650  0.92592  0.69672  Biso   1.000  C
  C108     1.0000 0.79390  0.89698  0.73760  Biso   1.000  C
  C109     1.0000 0.83460  0.84258  0.72655  Biso   1.000  C
  C110     1.0000 0.79580  0.81257  0.67477  Biso   1.000  C
  C111     1.0000 0.71930  0.83840  0.63210  Biso   1.000  C
  C112     1.0000 0.67240  0.80340  0.57450  Biso   1.000  C
  C113     1.0000 0.57360  0.75710  0.58210  Biso   1.000  C
  C114     1.0000 0.60910  0.69890  0.58100  Biso   1.000  C
  C115     1.0000 0.52070  0.65590  0.58950  Biso   1.000  C
  C116     1.0000 0.39190  0.67050  0.60060  Biso   1.000  C
  C117     1.0000 0.43720  0.77000  0.59060  Biso   1.000  C
  C118     1.0000 0.18150  0.83690  0.67350  Biso   1.000  C
  C119     1.0000 0.41950  0.96430  0.72090  Biso   1.000  C
  C120     1.0000 0.68250  0.89480  0.64300  Biso   1.000  C
  C121     1.0000 0.03770  0.87100  0.59730  Biso   1.000  C
  C122     1.0000 0.68860  0.95400  0.56780  Biso   1.000  C
  C123     1.0000 0.29370  0.87180  0.94760  Biso   1.000  C
  C124     1.0000 0.62610  0.63300  0.41730  Biso   1.000  C
  N1       1.0000 0.04230  0.04790  0.10010  Biso   1.000  N
  N2       1.0000 0.26100  0.52100  0.44400  Biso   1.000  N
  N3       1.0000 0.95770  0.95210  0.89990  Biso   1.000  N
  N4       1.0000 0.73900  0.47900  0.55600  Biso   1.000  N
  O1       1.0000 0.92870  0.90780  0.39400  Biso   1.000  O
  O2       1.0000 0.14100  0.89390  0.32340  Biso   1.000  O
  O3       1.0000 0.37360  0.85340  0.38310  Biso   1.000  O
  O4       1.0000 0.13200  0.83210  0.43260  Biso   1.000  O
  O5       1.0000 0.91790  0.91900  0.05440  Biso   1.000  O
  O6       1.0000 0.17340  0.93450  0.05550  Biso   1.000  O
  O7       1.0000 0.07310  0.83540  0.04170  Biso   1.000  O
  O8       1.0000 0.13650  0.57900  0.53500  Biso   1.000  O
  O9       1.0000 0.90640  0.57140  0.47860  Biso   1.000  O
  O10      1.0000 0.93560  0.62850  0.57410  Biso   1.000  O
  O11      1.0000 0.82640  0.13660  0.37640  Biso   1.000  O
  O12      1.0000 0.60820  0.05380  0.33540  Biso   1.000  O
  O13      1.0000 0.39420  0.07800  0.39940  Biso   1.000  O
  O14      1.0000 0.59590  0.17440  0.41340  Biso   1.000  O
  O15      1.0000 0.64350  0.95290  0.06900  Biso   1.000  O
  O16      1.0000 0.42900  0.01200  0.05900  Biso   1.000  O
  O17      1.0000 0.42430  0.90990  0.08630  Biso   1.000  O
  O18      1.0000 0.38140  0.43090  0.35140  Biso   1.000  O
  O19      1.0000 0.54190  0.45530  0.43920  Biso   1.000  O
  O20      1.0000 0.30610  0.42350  0.44680  Biso   1.000  O
  O21      1.0000 0.70460  0.87820  0.96500  Biso   1.000  O
  O22      1.0000 0.67590  0.06840  0.04470  Biso   1.000  O
  O23      1.0000 0.21180  0.50320  0.62320  Biso   1.000  O
  O24      1.0000 0.39920  0.42620  0.57490  Biso   1.000  O
  O25      1.0000 0.99210  0.03890  0.04730  Biso   1.000  O
  O26      1.0000 0.16800  0.05190  0.10910  Biso   1.000  O
  O27      1.0000 0.97040  0.05220  0.13860  Biso   1.000  O
  O28      1.0000 0.33400  0.55690  0.44230  Biso   1.000  O
  O29      1.0000 0.12110  0.51260  0.42180  Biso   1.000  O
  O30      1.0000 0.23010  0.55730  0.39950  Biso   1.000  O
  O31      1.0000 0.07130  0.09220  0.60600  Biso   1.000  O
  O32      1.0000 0.85900  0.10610  0.67660  Biso   1.000  O
  O33      1.0000 0.62640  0.14660  0.61690  Biso   1.000  O
  O34      1.0000 0.86800  0.16790  0.56740  Biso   1.000  O
  O35      1.0000 0.08210  0.08100  0.94560  Biso   1.000  O
  O36      1.0000 0.82660  0.06550  0.94450  Biso   1.000  O
  O37      1.0000 0.92690  0.16460  0.95830  Biso   1.000  O
  O38      1.0000 0.86350  0.42100  0.46500  Biso   1.000  O
  O39      1.0000 0.09360  0.42860  0.52140  Biso   1.000  O
  O40      1.0000 0.06440  0.37150  0.42590  Biso   1.000  O
  O41      1.0000 0.17360  0.86340  0.62360  Biso   1.000  O
  O42      1.0000 0.39180  0.94620  0.66460  Biso   1.000  O
  O43      1.0000 0.60580  0.92200  0.60060  Biso   1.000  O
  O44      1.0000 0.40410  0.82560  0.58660  Biso   1.000  O
  O45      1.0000 0.35650  0.04710  0.93100  Biso   1.000  O
  O46      1.0000 0.57100  0.98800  0.94100  Biso   1.000  O
  O47      1.0000 0.57570  0.09010  0.91370  Biso   1.000  O
  O48      1.0000 0.61860  0.56910  0.64860  Biso   1.000  O
  O49      1.0000 0.45810  0.54470  0.56080  Biso   1.000  O
  O50      1.0000 0.69390  0.57650  0.55320  Biso   1.000  O
  O51      1.0000 0.29540  0.12180  0.03500  Biso   1.000  O
  O52      1.0000 0.32410  0.93160  0.95530  Biso   1.000  O
  O53      1.0000 0.78820  0.49680  0.37680  Biso   1.000  O
  O54      1.0000 0.60080  0.57380  0.42510  Biso   1.000  O
  O55      1.0000 0.00790  0.96110  0.95270  Biso   1.000  O
  O56      1.0000 0.83200  0.94810  0.89090  Biso   1.000  O
  O57      1.0000 0.02960  0.94780  0.86140  Biso   1.000  O
  O58      1.0000 0.66600  0.44310  0.55770  Biso   1.000  O
  O59      1.0000 0.87890  0.48740  0.57820  Biso   1.000  O
  O60      1.0000 0.76990  0.44270  0.60050  Biso   1.000  O
