data_image0
_cell_length_a       12.1323
_cell_length_b       12.3676
_cell_length_c       13.3757
_cell_angle_alpha    101.748
_cell_angle_beta     99.025
_cell_angle_gamma    105.984

_symmetry_space_group_name_H-M    P 1
_symmetry_int_tables_number       1

loop_
  _symmetry_equiv_pos_as_xyz
  'x, y, z'

loop_
  _atom_site_label
  _atom_site_occupancy
  _atom_site_fract_x
  _atom_site_fract_y
  _atom_site_fract_z
  _atom_site_thermal_displace_type
  _atom_site_B_iso_or_equiv
  _atom_site_type_symbol
  Tb1      1.0000 0.32646  0.48121  0.45432  Biso   1.000  Tb
  Tb2      1.0000 0.67354  0.51879  0.54568  Biso   1.000  Tb
  H1       1.0000 0.04450  0.35640  0.10910  Biso   1.000  H
  H2       1.0000 0.19730  0.69900  0.21230  Biso   1.000  H
  H3       1.0000 0.89310  0.27240  0.93910  Biso   1.000  H
  H4       1.0000 0.59550  0.22850  0.53970  Biso   1.000  H
  H5       1.0000 0.25840  0.06110  0.38450  Biso   1.000  H
  H6       1.0000 0.71700  0.11350  0.60780  Biso   1.000  H
  H7       1.0000 0.36520  0.47010  0.13430  Biso   1.000  H
  H8       1.0000 0.71410  0.53710  0.21590  Biso   1.000  H
  H9       1.0000 0.27140  0.45390  0.94960  Biso   1.000  H
  H10      1.0000 0.95550  0.64360  0.89090  Biso   1.000  H
  H11      1.0000 0.80270  0.30100  0.78770  Biso   1.000  H
  H12      1.0000 0.10690  0.72760  0.06090  Biso   1.000  H
  H13      1.0000 0.40450  0.77150  0.46030  Biso   1.000  H
  H14      1.0000 0.74160  0.93890  0.61550  Biso   1.000  H
  H15      1.0000 0.28300  0.88650  0.39220  Biso   1.000  H
  H16      1.0000 0.63480  0.52990  0.86570  Biso   1.000  H
  H17      1.0000 0.28590  0.46290  0.78410  Biso   1.000  H
  H18      1.0000 0.72860  0.54610  0.05040  Biso   1.000  H
  C1       1.0000 0.19150  0.50800  0.27790  Biso   1.000  C
  C2       1.0000 0.98950  0.44330  0.00700  Biso   1.000  C
  C3       1.0000 0.05380  0.43060  0.09970  Biso   1.000  C
  C4       1.0000 0.12870  0.52480  0.17530  Biso   1.000  C
  C5       1.0000 0.14640  0.63510  0.16000  Biso   1.000  C
  C6       1.0000 0.90870  0.34710  0.92940  Biso   1.000  C
  C7       1.0000 0.40930  0.27830  0.45620  Biso   1.000  C
  C8       1.0000 0.54900  0.05190  0.52110  Biso   1.000  C
  C9       1.0000 0.53300  0.15960  0.51210  Biso   1.000  C
  C10      1.0000 0.42610  0.16260  0.46290  Biso   1.000  C
  C11      1.0000 0.33040  0.05850  0.41810  Biso   1.000  C
  C12      1.0000 0.65520  0.04520  0.57550  Biso   1.000  C
  C13      1.0000 0.52510  0.49590  0.30140  Biso   1.000  C
  C14      1.0000 0.44430  0.48660  0.01300  Biso   1.000  C
  C15      1.0000 0.43800  0.48360  0.11660  Biso   1.000  C
  C16      1.0000 0.53480  0.49970  0.19150  Biso   1.000  C
  C17      1.0000 0.64670  0.52470  0.16530  Biso   1.000  C
  C18      1.0000 0.34510  0.46960  0.93360  Biso   1.000  C
  C19      1.0000 0.95800  0.31190  0.59170  Biso   1.000  C
  C20      1.0000 0.07250  0.29100  0.45260  Biso   1.000  C
  C21      1.0000 0.91660  0.12090  0.45200  Biso   1.000  C
  C22      1.0000 0.30580  0.67810  0.65320  Biso   1.000  C
  C23      1.0000 0.26020  0.74000  0.84160  Biso   1.000  C
  C24      1.0000 0.12430  0.61400  0.70300  Biso   1.000  C
  C25      1.0000 0.80850  0.49200  0.72210  Biso   1.000  C
  C26      1.0000 0.01050  0.55670  0.99300  Biso   1.000  C
  C27      1.0000 0.94620  0.56940  0.90030  Biso   1.000  C
  C28      1.0000 0.87130  0.47520  0.82470  Biso   1.000  C
  C29      1.0000 0.85360  0.36490  0.84000  Biso   1.000  C
  C30      1.0000 0.09130  0.65290  0.07060  Biso   1.000  C
  C31      1.0000 0.59070  0.72170  0.54380  Biso   1.000  C
  C32      1.0000 0.45100  0.94810  0.47890  Biso   1.000  C
  C33      1.0000 0.46700  0.84040  0.48790  Biso   1.000  C
  C34      1.0000 0.57390  0.83740  0.53710  Biso   1.000  C
  C35      1.0000 0.66960  0.94150  0.58190  Biso   1.000  C
  C36      1.0000 0.34480  0.95480  0.42450  Biso   1.000  C
  C37      1.0000 0.47490  0.50410  0.69860  Biso   1.000  C
  C38      1.0000 0.55570  0.51340  0.98700  Biso   1.000  C
  C39      1.0000 0.56200  0.51640  0.88340  Biso   1.000  C
  C40      1.0000 0.46520  0.50030  0.80850  Biso   1.000  C
  C41      1.0000 0.35330  0.47530  0.83470  Biso   1.000  C
  C42      1.0000 0.65490  0.53040  0.06640  Biso   1.000  C
  C43      1.0000 0.04200  0.68810  0.40830  Biso   1.000  C
  C44      1.0000 0.92750  0.70900  0.54740  Biso   1.000  C
  C45      1.0000 0.08340  0.87910  0.54800  Biso   1.000  C
  C46      1.0000 0.69420  0.32190  0.34680  Biso   1.000  C
  C47      1.0000 0.73980  0.26000  0.15840  Biso   1.000  C
  C48      1.0000 0.87570  0.38600  0.29700  Biso   1.000  C
  N1       1.0000 0.98350  0.24700  0.49620  Biso   1.000  N
  N2       1.0000 0.24470  0.70010  0.72600  Biso   1.000  N
  N3       1.0000 0.01650  0.75300  0.50380  Biso   1.000  N
  N4       1.0000 0.75530  0.29990  0.27400  Biso   1.000  N
  O1       1.0000 0.17170  0.40870  0.29140  Biso   1.000  O
  O2       1.0000 0.26270  0.59550  0.34130  Biso   1.000  O
  O3       1.0000 0.30840  0.27860  0.42140  Biso   1.000  O
  O4       1.0000 0.49710  0.36930  0.48910  Biso   1.000  O
  O5       1.0000 0.42320  0.46310  0.31730  Biso   1.000  O
  O6       1.0000 0.61980  0.52520  0.36860  Biso   1.000  O
  O7       1.0000 0.14470  0.38500  0.50040  Biso   1.000  O
  O8       1.0000 0.27150  0.63360  0.55900  Biso   1.000  O
  O9       1.0000 0.82830  0.59130  0.70860  Biso   1.000  O
  O10      1.0000 0.73730  0.40450  0.65870  Biso   1.000  O
  O11      1.0000 0.69160  0.72140  0.57860  Biso   1.000  O
  O12      1.0000 0.50290  0.63070  0.51090  Biso   1.000  O
  O13      1.0000 0.57680  0.53690  0.68270  Biso   1.000  O
  O14      1.0000 0.38020  0.47480  0.63140  Biso   1.000  O
  O15      1.0000 0.85530  0.61500  0.49960  Biso   1.000  O
  O16      1.0000 0.72850  0.36640  0.44100  Biso   1.000  O
