data_image0
_cell_length_a       12.2015
_cell_length_b       12.3678
_cell_length_c       13.5203
_cell_angle_alpha    102.222
_cell_angle_beta     98.704
_cell_angle_gamma    106.48

_symmetry_space_group_name_H-M    P 1
_symmetry_int_tables_number       1

loop_
  _symmetry_equiv_pos_as_xyz
  'x, y, z'

loop_
  _atom_site_label
  _atom_site_occupancy
  _atom_site_fract_x
  _atom_site_fract_y
  _atom_site_fract_z
  _atom_site_thermal_displace_type
  _atom_site_B_iso_or_equiv
  _atom_site_type_symbol
  Ce1      1.0000 0.32514  0.48091  0.45396  Biso   1.000  Ce
  Ce2      1.0000 0.67486  0.51909  0.54604  Biso   1.000  Ce
  H1       1.0000 0.03750  0.35670  0.11180  Biso   1.000  H
  H2       1.0000 0.20220  0.69990  0.20580  Biso   1.000  H
  H3       1.0000 0.89410  0.27850  0.94410  Biso   1.000  H
  H4       1.0000 0.58510  0.22950  0.54380  Biso   1.000  H
  H5       1.0000 0.26100  0.05110  0.37890  Biso   1.000  H
  H6       1.0000 0.71180  0.12210  0.60910  Biso   1.000  H
  H7       1.0000 0.36680  0.46900  0.13420  Biso   1.000  H
  H8       1.0000 0.71280  0.53110  0.20840  Biso   1.000  H
  H9       1.0000 0.27410  0.46230  0.95550  Biso   1.000  H
  H10      1.0000 0.96250  0.64330  0.88820  Biso   1.000  H
  H11      1.0000 0.79780  0.30010  0.79420  Biso   1.000  H
  H12      1.0000 0.10590  0.72150  0.05590  Biso   1.000  H
  H13      1.0000 0.41490  0.77050  0.45620  Biso   1.000  H
  H14      1.0000 0.73900  0.94890  0.62110  Biso   1.000  H
  H15      1.0000 0.28820  0.87790  0.39090  Biso   1.000  H
  H16      1.0000 0.63320  0.53100  0.86580  Biso   1.000  H
  H17      1.0000 0.28720  0.46890  0.79160  Biso   1.000  H
  H18      1.0000 0.72590  0.53770  0.04450  Biso   1.000  H
  C1       1.0000 0.18850  0.50910  0.27180  Biso   1.000  C
  C2       1.0000 0.99000  0.44290  0.00470  Biso   1.000  C
  C3       1.0000 0.05160  0.43060  0.10060  Biso   1.000  C
  C4       1.0000 0.12750  0.52330  0.17250  Biso   1.000  C
  C5       1.0000 0.14860  0.63480  0.15630  Biso   1.000  C
  C6       1.0000 0.91040  0.35260  0.93320  Biso   1.000  C
  C7       1.0000 0.40220  0.26990  0.45270  Biso   1.000  C
  C8       1.0000 0.54460  0.05230  0.52310  Biso   1.000  C
  C9       1.0000 0.52550  0.15850  0.51320  Biso   1.000  C
  C10      1.0000 0.42210  0.15720  0.46010  Biso   1.000  C
  C11      1.0000 0.33260  0.05170  0.41470  Biso   1.000  C
  C12      1.0000 0.65130  0.05180  0.57770  Biso   1.000  C
  C13      1.0000 0.52750  0.49390  0.29730  Biso   1.000  C
  C14      1.0000 0.44550  0.48860  0.01250  Biso   1.000  C
  C15      1.0000 0.43880  0.48320  0.11560  Biso   1.000  C
  C16      1.0000 0.53650  0.49840  0.18680  Biso   1.000  C
  C17      1.0000 0.64570  0.52010  0.15920  Biso   1.000  C
  C18      1.0000 0.34660  0.47500  0.93780  Biso   1.000  C
  C19      1.0000 0.95380  0.30730  0.59060  Biso   1.000  C
  C20      1.0000 0.06960  0.28530  0.45060  Biso   1.000  C
  C21      1.0000 0.87900  0.13200  0.42000  Biso   1.000  C
  C22      1.0000 0.31220  0.68200  0.65230  Biso   1.000  C
  C23      1.0000 0.28900  0.75300  0.83960  Biso   1.000  C
  C24      1.0000 0.12700  0.60300  0.70400  Biso   1.000  C
  C25      1.0000 0.81150  0.49090  0.72820  Biso   1.000  C
  C26      1.0000 0.01000  0.55710  0.99530  Biso   1.000  C
  C27      1.0000 0.94840  0.56940  0.89940  Biso   1.000  C
  C28      1.0000 0.87250  0.47670  0.82750  Biso   1.000  C
  C29      1.0000 0.85140  0.36520  0.84370  Biso   1.000  C
  C30      1.0000 0.08960  0.64740  0.06680  Biso   1.000  C
  C31      1.0000 0.59780  0.73010  0.54730  Biso   1.000  C
  C32      1.0000 0.45540  0.94770  0.47690  Biso   1.000  C
  C33      1.0000 0.47450  0.84150  0.48680  Biso   1.000  C
  C34      1.0000 0.57790  0.84280  0.53990  Biso   1.000  C
  C35      1.0000 0.66740  0.94830  0.58530  Biso   1.000  C
  C36      1.0000 0.34870  0.94820  0.42230  Biso   1.000  C
  C37      1.0000 0.47250  0.50610  0.70270  Biso   1.000  C
  C38      1.0000 0.55450  0.51140  0.98750  Biso   1.000  C
  C39      1.0000 0.56120  0.51680  0.88440  Biso   1.000  C
  C40      1.0000 0.46350  0.50160  0.81320  Biso   1.000  C
  C41      1.0000 0.35430  0.47990  0.84080  Biso   1.000  C
  C42      1.0000 0.65340  0.52500  0.06220  Biso   1.000  C
  C43      1.0000 0.04620  0.69270  0.40940  Biso   1.000  C
  C44      1.0000 0.93040  0.71470  0.54940  Biso   1.000  C
  C45      1.0000 0.12100  0.86800  0.58000  Biso   1.000  C
  C46      1.0000 0.68780  0.31800  0.34770  Biso   1.000  C
  C47      1.0000 0.71100  0.24700  0.16040  Biso   1.000  C
  C48      1.0000 0.87300  0.39700  0.29600  Biso   1.000  C
  N1       1.0000 0.97830  0.23980  0.49170  Biso   1.000  N
  N2       1.0000 0.24470  0.70040  0.72070  Biso   1.000  N
  N3       1.0000 0.02170  0.76020  0.50830  Biso   1.000  N
  N4       1.0000 0.75530  0.29960  0.27930  Biso   1.000  N
  O1       1.0000 0.16590  0.40870  0.28750  Biso   1.000  O
  O2       1.0000 0.26220  0.59880  0.33550  Biso   1.000  O
  O3       1.0000 0.30190  0.26610  0.41430  Biso   1.000  O
  O4       1.0000 0.48470  0.36370  0.48580  Biso   1.000  O
  O5       1.0000 0.42620  0.46310  0.31220  Biso   1.000  O
  O6       1.0000 0.62190  0.52070  0.36130  Biso   1.000  O
  O7       1.0000 0.13760  0.37910  0.49940  Biso   1.000  O
  O8       1.0000 0.27000  0.63870  0.56240  Biso   1.000  O
  O9       1.0000 0.83410  0.59130  0.71250  Biso   1.000  O
  O10      1.0000 0.73780  0.40120  0.66450  Biso   1.000  O
  O11      1.0000 0.69810  0.73390  0.58570  Biso   1.000  O
  O12      1.0000 0.51530  0.63630  0.51420  Biso   1.000  O
  O13      1.0000 0.57380  0.53690  0.68780  Biso   1.000  O
  O14      1.0000 0.37810  0.47930  0.63870  Biso   1.000  O
  O15      1.0000 0.86240  0.62090  0.50060  Biso   1.000  O
  O16      1.0000 0.73000  0.36130  0.43760  Biso   1.000  O
