data_image0
_cell_length_a       12.117
_cell_length_b       12.335
_cell_length_c       13.412
_cell_angle_alpha    101.569
_cell_angle_beta     99.036
_cell_angle_gamma    106.286

_symmetry_space_group_name_H-M    P 1
_symmetry_int_tables_number       1

loop_
  _symmetry_equiv_pos_as_xyz
  'x, y, z'

loop_
  _atom_site_label
  _atom_site_occupancy
  _atom_site_fract_x
  _atom_site_fract_y
  _atom_site_fract_z
  _atom_site_thermal_displace_type
  _atom_site_B_iso_or_equiv
  _atom_site_type_symbol
  Eu1      1.0000 0.32640  0.48118  0.45422  Biso   1.000  Eu
  Eu2      1.0000 0.67360  0.51882  0.54578  Biso   1.000  Eu
  H1       1.0000 0.04330  0.35550  0.11080  Biso   1.000  H
  H2       1.0000 0.19830  0.69860  0.20760  Biso   1.000  H
  H3       1.0000 0.89770  0.27720  0.94270  Biso   1.000  H
  H4       1.0000 0.59290  0.22910  0.54300  Biso   1.000  H
  H5       1.0000 0.26050  0.05720  0.37890  Biso   1.000  H
  H6       1.0000 0.71910  0.11640  0.60260  Biso   1.000  H
  H7       1.0000 0.36370  0.46570  0.13360  Biso   1.000  H
  H8       1.0000 0.71300  0.52840  0.21170  Biso   1.000  H
  H9       1.0000 0.27200  0.45830  0.95130  Biso   1.000  H
  H10      1.0000 0.95670  0.64450  0.88920  Biso   1.000  H
  H11      1.0000 0.80170  0.30140  0.79240  Biso   1.000  H
  H12      1.0000 0.10230  0.72280  0.05730  Biso   1.000  H
  H13      1.0000 0.40710  0.77090  0.45700  Biso   1.000  H
  H14      1.0000 0.73950  0.94280  0.62110  Biso   1.000  H
  H15      1.0000 0.28090  0.88360  0.39740  Biso   1.000  H
  H16      1.0000 0.63630  0.53430  0.86640  Biso   1.000  H
  H17      1.0000 0.28700  0.47160  0.78830  Biso   1.000  H
  H18      1.0000 0.72800  0.54170  0.04870  Biso   1.000  H
  C1       1.0000 0.19080  0.50940  0.27570  Biso   1.000  C
  C2       1.0000 0.98970  0.44320  0.00660  Biso   1.000  C
  C3       1.0000 0.05360  0.43000  0.10120  Biso   1.000  C
  C4       1.0000 0.12640  0.52150  0.17430  Biso   1.000  C
  C5       1.0000 0.14570  0.63370  0.15730  Biso   1.000  C
  C6       1.0000 0.91230  0.35180  0.93260  Biso   1.000  C
  C7       1.0000 0.40850  0.27730  0.45600  Biso   1.000  C
  C8       1.0000 0.54530  0.05130  0.52180  Biso   1.000  C
  C9       1.0000 0.53090  0.15960  0.51330  Biso   1.000  C
  C10      1.0000 0.42550  0.16100  0.46120  Biso   1.000  C
  C11      1.0000 0.33160  0.05560  0.41570  Biso   1.000  C
  C12      1.0000 0.65580  0.04770  0.57470  Biso   1.000  C
  C13      1.0000 0.52510  0.49590  0.30070  Biso   1.000  C
  C14      1.0000 0.44390  0.48680  0.01250  Biso   1.000  C
  C15      1.0000 0.43660  0.48170  0.11570  Biso   1.000  C
  C16      1.0000 0.53710  0.50040  0.18960  Biso   1.000  C
  C17      1.0000 0.64600  0.52010  0.16240  Biso   1.000  C
  C18      1.0000 0.34570  0.47290  0.93490  Biso   1.000  C
  C19      1.0000 0.95320  0.31160  0.59310  Biso   1.000  C
  C20      1.0000 0.07420  0.28990  0.45330  Biso   1.000  C
  C21      1.0000 0.90150  0.13310  0.43330  Biso   1.000  C
  C22      1.0000 0.30970  0.67790  0.65050  Biso   1.000  C
  C23      1.0000 0.28640  0.73650  0.83670  Biso   1.000  C
  C24      1.0000 0.12210  0.61230  0.70210  Biso   1.000  C
  C25      1.0000 0.80920  0.49060  0.72430  Biso   1.000  C
  C26      1.0000 0.01030  0.55680  0.99340  Biso   1.000  C
  C27      1.0000 0.94640  0.57000  0.89880  Biso   1.000  C
  C28      1.0000 0.87360  0.47850  0.82570  Biso   1.000  C
  C29      1.0000 0.85430  0.36630  0.84270  Biso   1.000  C
  C30      1.0000 0.08770  0.64820  0.06740  Biso   1.000  C
  C31      1.0000 0.59150  0.72270  0.54400  Biso   1.000  C
  C32      1.0000 0.45470  0.94870  0.47820  Biso   1.000  C
  C33      1.0000 0.46910  0.84040  0.48670  Biso   1.000  C
  C34      1.0000 0.57450  0.83900  0.53880  Biso   1.000  C
  C35      1.0000 0.66840  0.94440  0.58430  Biso   1.000  C
  C36      1.0000 0.34420  0.95230  0.42530  Biso   1.000  C
  C37      1.0000 0.47490  0.50410  0.69930  Biso   1.000  C
  C38      1.0000 0.55610  0.51320  0.98750  Biso   1.000  C
  C39      1.0000 0.56340  0.51830  0.88430  Biso   1.000  C
  C40      1.0000 0.46290  0.49960  0.81040  Biso   1.000  C
  C41      1.0000 0.35400  0.47990  0.83760  Biso   1.000  C
  C42      1.0000 0.65430  0.52710  0.06510  Biso   1.000  C
  C43      1.0000 0.04680  0.68840  0.40690  Biso   1.000  C
  C44      1.0000 0.92580  0.71010  0.54670  Biso   1.000  C
  C45      1.0000 0.09850  0.86690  0.56670  Biso   1.000  C
  C46      1.0000 0.69030  0.32210  0.34950  Biso   1.000  C
  C47      1.0000 0.71360  0.26350  0.16330  Biso   1.000  C
  C48      1.0000 0.87790  0.38770  0.29790  Biso   1.000  C
  N1       1.0000 0.98360  0.25050  0.49770  Biso   1.000  N
  N2       1.0000 0.24380  0.69850  0.71940  Biso   1.000  N
  N3       1.0000 0.01640  0.74950  0.50230  Biso   1.000  N
  N4       1.0000 0.75620  0.30150  0.28060  Biso   1.000  N
  O1       1.0000 0.16930  0.40860  0.29140  Biso   1.000  O
  O2       1.0000 0.26290  0.59700  0.33880  Biso   1.000  O
  O3       1.0000 0.30520  0.27550  0.41900  Biso   1.000  O
  O4       1.0000 0.49270  0.36860  0.48720  Biso   1.000  O
  O5       1.0000 0.42360  0.46270  0.31470  Biso   1.000  O
  O6       1.0000 0.62110  0.52450  0.36680  Biso   1.000  O
  O7       1.0000 0.14260  0.38390  0.50000  Biso   1.000  O
  O8       1.0000 0.27180  0.63480  0.55920  Biso   1.000  O
  O9       1.0000 0.83070  0.59140  0.70860  Biso   1.000  O
  O10      1.0000 0.73710  0.40300  0.66120  Biso   1.000  O
  O11      1.0000 0.69480  0.72450  0.58100  Biso   1.000  O
  O12      1.0000 0.50730  0.63140  0.51280  Biso   1.000  O
  O13      1.0000 0.57640  0.53730  0.68530  Biso   1.000  O
  O14      1.0000 0.37890  0.47550  0.63320  Biso   1.000  O
  O15      1.0000 0.85740  0.61610  0.50000  Biso   1.000  O
  O16      1.0000 0.72820  0.36520  0.44080  Biso   1.000  O
