data_image0
_cell_length_a       13.318
_cell_length_b       13.318
_cell_length_c       13.278
_cell_angle_alpha    90
_cell_angle_beta     90
_cell_angle_gamma    120

_symmetry_space_group_name_H-M    "P 1"
_symmetry_int_tables_number       1

loop_
  _symmetry_equiv_pos_as_xyz
  'x, y, z'

loop_
  _atom_site_label
  _atom_site_occupancy
  _atom_site_fract_x
  _atom_site_fract_y
  _atom_site_fract_z
  _atom_site_thermal_displace_type
  _atom_site_B_iso_or_equiv
  _atom_site_type_symbol
  N1       1.0000 0.25590  0.33390  0.73380  Biso   1.000  N
  N2       1.0000 0.12770  0.15900  0.78150  Biso   1.000  N
  N3       1.0000 0.69620  0.60430  0.60420  Biso   1.000  N
  N4       1.0000 0.70460  0.49460  0.48440  Biso   1.000  N
  N5       1.0000 0.00110  0.58960  0.23330  Biso   1.000  N
  N6       1.0000 0.82420  0.46090  0.28170  Biso   1.000  N
  N7       1.0000 0.27090  0.02940  0.10460  Biso   1.000  N
  N8       1.0000 0.15980  0.03630  0.98360  Biso   1.000  N
  C1       1.0000 0.34080  0.45820  0.73920  Biso   1.000  C
  H1       1.0000 0.33870  0.48750  0.80720  Biso   1.000  H
  H2       1.0000 0.31980  0.50050  0.68980  Biso   1.000  H
  C2       1.0000 0.46160  0.48150  0.71740  Biso   1.000  C
  H3       1.0000 0.46250  0.44750  0.65130  Biso   1.000  H
  H4       1.0000 0.48470  0.44380  0.76950  Biso   1.000  H
  C3       1.0000 0.54870  0.61190  0.71590  Biso   1.000  C
  H5       1.0000 0.52890  0.64830  0.66020  Biso   1.000  H
  H6       1.0000 0.54280  0.64680  0.77990  Biso   1.000  H
  C4       1.0000 0.67150  0.63740  0.70260  Biso   1.000  C
  H7       1.0000 0.72460  0.72150  0.71260  Biso   1.000  H
  H8       1.0000 0.68880  0.59600  0.75570  Biso   1.000  H
  C5       1.0000 0.19260  0.26640  0.81030  Biso   1.000  C
  H9       1.0000 0.19460  0.29330  0.87690  Biso   1.000  H
  C6       1.0000 0.15420  0.15710  0.68190  Biso   1.000  C
  H10      1.0000 0.12180  0.09000  0.64040  Biso   1.000  H
  C7       1.0000 0.23250  0.26390  0.65200  Biso   1.000  C
  H11      1.0000 0.26520  0.28660  0.58660  Biso   1.000  H
  C8       1.0000 0.67290  0.49620  0.57860  Biso   1.000  C
  H12      1.0000 0.63870  0.43090  0.62210  Biso   1.000  H
  C9       1.0000 0.74750  0.60520  0.44970  Biso   1.000  C
  H13      1.0000 0.77720  0.63090  0.38390  Biso   1.000  H
  C10      1.0000 0.74150  0.67240  0.52230  Biso   1.000  C
  H14      1.0000 0.76460  0.75220  0.51690  Biso   1.000  H
  C11      1.0000 0.12510  0.67310  0.23900  Biso   1.000  C
  H15      1.0000 0.16710  0.65200  0.18960  Biso   1.000  H
  H16      1.0000 0.15420  0.67070  0.30710  Biso   1.000  H
  C12      1.0000 0.14840  0.79540  0.21710  Biso   1.000  C
  H17      1.0000 0.11100  0.81850  0.26940  Biso   1.000  H
  H18      1.0000 0.11410  0.79630  0.15120  Biso   1.000  H
  C13      1.0000 0.27910  0.88270  0.21520  Biso   1.000  C
  H19      1.0000 0.31450  0.87590  0.27860  Biso   1.000  H
  H20      1.0000 0.31510  0.86340  0.15880  Biso   1.000  H
  C14      1.0000 0.30430  0.00520  0.20350  Biso   1.000  C
  H21      1.0000 0.26240  0.02160  0.25670  Biso   1.000  H
  H22      1.0000 0.38830  0.05840  0.21380  Biso   1.000  H
  C15      1.0000 0.93330  0.52590  0.31060  Biso   1.000  C
  H23      1.0000 0.96030  0.52760  0.37710  Biso   1.000  H
  C16      1.0000 0.82390  0.48730  0.18210  Biso   1.000  C
  H24      1.0000 0.75710  0.45470  0.14010  Biso   1.000  H
  C17      1.0000 0.93120  0.56570  0.15210  Biso   1.000  C
  H25      1.0000 0.95380  0.59820  0.08660  Biso   1.000  H
  C18      1.0000 0.16300  0.00620  0.07860  Biso   1.000  C
  H26      1.0000 0.09800  0.97280  0.12260  Biso   1.000  H
  C19      1.0000 0.27190  0.08110  0.94980  Biso   1.000  C
  H27      1.0000 0.29790  0.11140  0.88420  Biso   1.000  H
  C20      1.0000 0.33970  0.07610  0.02260  Biso   1.000  C
  H28      1.0000 0.41980  0.10030  0.01750  Biso   1.000  H
  N9       1.0000 0.66610  0.92200  0.73380  Biso   1.000  N
  N10      1.0000 0.84100  0.96870  0.78150  Biso   1.000  N
  N11      1.0000 0.39570  0.09190  0.60420  Biso   1.000  N
  N12      1.0000 0.50540  0.21000  0.48440  Biso   1.000  N
  N13      1.0000 0.41040  0.41150  0.23330  Biso   1.000  N
  N14      1.0000 0.53910  0.36330  0.28170  Biso   1.000  N
  N15      1.0000 0.97060  0.24150  0.10460  Biso   1.000  N
  N16      1.0000 0.96370  0.12350  0.98360  Biso   1.000  N
  C21      1.0000 0.54180  0.88260  0.73920  Biso   1.000  C
  H29      1.0000 0.51250  0.85120  0.80720  Biso   1.000  H
  H30      1.0000 0.49950  0.81930  0.68980  Biso   1.000  H
  C22      1.0000 0.51850  0.98010  0.71740  Biso   1.000  C
  H31      1.0000 0.55250  0.01500  0.65130  Biso   1.000  H
  H32      1.0000 0.55620  0.04090  0.76950  Biso   1.000  H
  C23      1.0000 0.38810  0.93680  0.71590  Biso   1.000  C
  H33      1.0000 0.35170  0.88060  0.66020  Biso   1.000  H
  H34      1.0000 0.35320  0.89600  0.77990  Biso   1.000  H
  C24      1.0000 0.36260  0.03410  0.70260  Biso   1.000  C
  H35      1.0000 0.27850  0.00310  0.71260  Biso   1.000  H
  H36      1.0000 0.40400  0.09280  0.75570  Biso   1.000  H
  C25      1.0000 0.73360  0.92620  0.81030  Biso   1.000  C
  H37      1.0000 0.70670  0.90130  0.87690  Biso   1.000  H
  C26      1.0000 0.84290  0.99710  0.68190  Biso   1.000  C
  H38      1.0000 0.91000  0.03180  0.64040  Biso   1.000  H
  C27      1.0000 0.73610  0.96860  0.65200  Biso   1.000  C
  H39      1.0000 0.71340  0.97860  0.58660  Biso   1.000  H
  C28      1.0000 0.50380  0.17670  0.57860  Biso   1.000  C
  H40      1.0000 0.56910  0.20780  0.62210  Biso   1.000  H
  C29      1.0000 0.39480  0.14230  0.44970  Biso   1.000  C
  H41      1.0000 0.36910  0.14630  0.38390  Biso   1.000  H
  C30      1.0000 0.32760  0.06910  0.52230  Biso   1.000  C
  H42      1.0000 0.24780  0.01240  0.51690  Biso   1.000  H
  C31      1.0000 0.32690  0.45200  0.23900  Biso   1.000  C
  H43      1.0000 0.34800  0.51510  0.18960  Biso   1.000  H
  H44      1.0000 0.32930  0.48350  0.30710  Biso   1.000  H
  C32      1.0000 0.20460  0.35300  0.21710  Biso   1.000  C
  H45      1.0000 0.18150  0.29250  0.26940  Biso   1.000  H
  H46      1.0000 0.20370  0.31780  0.15120  Biso   1.000  H
  C33      1.0000 0.11730  0.39640  0.21520  Biso   1.000  C
  H47      1.0000 0.12410  0.43860  0.27860  Biso   1.000  H
  H48      1.0000 0.13660  0.45170  0.15880  Biso   1.000  H
  C34      1.0000 0.99480  0.29910  0.20350  Biso   1.000  C
  H49      1.0000 0.97840  0.24080  0.25670  Biso   1.000  H
  H50      1.0000 0.94160  0.32990  0.21380  Biso   1.000  H
  C35      1.0000 0.47410  0.40740  0.31060  Biso   1.000  C
  H51      1.0000 0.47240  0.43270  0.37710  Biso   1.000  H
  C36      1.0000 0.51270  0.33660  0.18210  Biso   1.000  C
  H52      1.0000 0.54530  0.30240  0.14010  Biso   1.000  H
  C37      1.0000 0.43430  0.36550  0.15210  Biso   1.000  C
  H53      1.0000 0.40180  0.35560  0.08660  Biso   1.000  H
  C38      1.0000 0.99380  0.15680  0.07860  Biso   1.000  C
  H54      1.0000 0.02720  0.12520  0.12260  Biso   1.000  H
  C39      1.0000 0.91890  0.19080  0.94980  Biso   1.000  C
  H55      1.0000 0.88860  0.18650  0.88420  Biso   1.000  H
  C40      1.0000 0.92390  0.26360  0.02260  Biso   1.000  C
  H56      1.0000 0.89970  0.31950  0.01750  Biso   1.000  H
  N17      1.0000 0.07800  0.74410  0.73380  Biso   1.000  N
  N18      1.0000 0.03130  0.87230  0.78150  Biso   1.000  N
  N19      1.0000 0.90810  0.30380  0.60420  Biso   1.000  N
  N20      1.0000 0.79000  0.29540  0.48440  Biso   1.000  N
  N21      1.0000 0.58850  0.99890  0.23330  Biso   1.000  N
  N22      1.0000 0.63670  0.17580  0.28170  Biso   1.000  N
  N23      1.0000 0.75850  0.72910  0.10460  Biso   1.000  N
  N24      1.0000 0.87650  0.84020  0.98360  Biso   1.000  N
  C41      1.0000 0.11740  0.65920  0.73920  Biso   1.000  C
  H57      1.0000 0.14880  0.66130  0.80720  Biso   1.000  H
  H58      1.0000 0.18070  0.68020  0.68980  Biso   1.000  H
  C42      1.0000 0.01990  0.53840  0.71740  Biso   1.000  C
  H59      1.0000 0.98500  0.53750  0.65130  Biso   1.000  H
  H60      1.0000 0.95910  0.51530  0.76950  Biso   1.000  H
  C43      1.0000 0.06320  0.45130  0.71590  Biso   1.000  C
  H61      1.0000 0.11940  0.47110  0.66020  Biso   1.000  H
  H62      1.0000 0.10400  0.45720  0.77990  Biso   1.000  H
  C44      1.0000 0.96590  0.32850  0.70260  Biso   1.000  C
  H63      1.0000 0.99690  0.27540  0.71260  Biso   1.000  H
  H64      1.0000 0.90720  0.31120  0.75570  Biso   1.000  H
  C45      1.0000 0.07380  0.80740  0.81030  Biso   1.000  C
  H65      1.0000 0.09870  0.80540  0.87690  Biso   1.000  H
  C46      1.0000 0.00290  0.84580  0.68190  Biso   1.000  C
  H66      1.0000 0.96820  0.87820  0.64040  Biso   1.000  H
  C47      1.0000 0.03140  0.76750  0.65200  Biso   1.000  C
  H67      1.0000 0.02140  0.73480  0.58660  Biso   1.000  H
  C48      1.0000 0.82330  0.32710  0.57860  Biso   1.000  C
  H68      1.0000 0.79220  0.36130  0.62210  Biso   1.000  H
  C49      1.0000 0.85770  0.25250  0.44970  Biso   1.000  C
  H69      1.0000 0.85370  0.22280  0.38390  Biso   1.000  H
  C50      1.0000 0.93090  0.25850  0.52230  Biso   1.000  C
  H70      1.0000 0.98760  0.23540  0.51690  Biso   1.000  H
  C51      1.0000 0.54800  0.87490  0.23900  Biso   1.000  C
  H71      1.0000 0.48490  0.83290  0.18960  Biso   1.000  H
  H72      1.0000 0.51650  0.84580  0.30710  Biso   1.000  H
  C52      1.0000 0.64700  0.85160  0.21710  Biso   1.000  C
  H73      1.0000 0.70750  0.88900  0.26940  Biso   1.000  H
  H74      1.0000 0.68220  0.88590  0.15120  Biso   1.000  H
  C53      1.0000 0.60360  0.72090  0.21520  Biso   1.000  C
  H75      1.0000 0.56140  0.68550  0.27860  Biso   1.000  H
  H76      1.0000 0.54830  0.68490  0.15880  Biso   1.000  H
  C54      1.0000 0.70090  0.69570  0.20350  Biso   1.000  C
  H77      1.0000 0.75920  0.73760  0.25670  Biso   1.000  H
  H78      1.0000 0.67010  0.61170  0.21380  Biso   1.000  H
  C55      1.0000 0.59260  0.06670  0.31060  Biso   1.000  C
  H79      1.0000 0.56730  0.03970  0.37710  Biso   1.000  H
  C56      1.0000 0.66340  0.17610  0.18210  Biso   1.000  C
  H80      1.0000 0.69760  0.24290  0.14010  Biso   1.000  H
  C57      1.0000 0.63450  0.06880  0.15210  Biso   1.000  C
  H81      1.0000 0.64440  0.04620  0.08660  Biso   1.000  H
  C58      1.0000 0.84320  0.83700  0.07860  Biso   1.000  C
  H82      1.0000 0.87480  0.90200  0.12260  Biso   1.000  H
  C59      1.0000 0.80920  0.72810  0.94980  Biso   1.000  C
  H83      1.0000 0.81350  0.70210  0.88420  Biso   1.000  H
  C60      1.0000 0.73640  0.66030  0.02260  Biso   1.000  C
  H84      1.0000 0.68050  0.58020  0.01750  Biso   1.000  H
  Cd1      1.0000 0.00000  0.00000  0.88423  Biso   1.000  Cd
  Cd2      1.0000 0.66667  0.33333  0.38409  Biso   1.000  Cd
