data_image0
_cell_length_a       15.096
_cell_length_b       15.6776
_cell_length_c       31.846
_cell_angle_alpha    93.6305
_cell_angle_beta     90
_cell_angle_gamma    118.78

_symmetry_space_group_name_H-M    P 1
_symmetry_int_tables_number       1

loop_
  _symmetry_equiv_pos_as_xyz
  'x, y, z'

loop_
  _atom_site_label
  _atom_site_occupancy
  _atom_site_fract_x
  _atom_site_fract_y
  _atom_site_fract_z
  _atom_site_thermal_displace_type
  _atom_site_B_iso_or_equiv
  _atom_site_type_symbol
  Zn1      1.0000 0.93855  0.58620  0.19575  Biso   1.000  Zn
  Zn2      1.0000 0.54568  0.85646  0.88353  Biso   1.000  Zn
  Zn3      1.0000 0.10126  0.37982  0.00221  Biso   1.000  Zn
  Zn4      1.0000 0.64765  0.58620  0.69575  Biso   1.000  Zn
  Zn5      1.0000 0.31078  0.85646  0.38353  Biso   1.000  Zn
  Zn6      1.0000 0.27856  0.37982  0.50221  Biso   1.000  Zn
  H1       1.0000 0.19620  0.26820  0.95130  Biso   1.000  H
  H2       1.0000 0.22980  0.14320  0.96080  Biso   1.000  H
  H3       1.0000 0.04290  0.06800  0.05940  Biso   1.000  H
  H4       1.0000 0.01690  0.19880  0.04800  Biso   1.000  H
  H5       1.0000 0.41020  0.76900  0.95290  Biso   1.000  H
  H6       1.0000 0.30690  0.79720  0.00040  Biso   1.000  H
  H7       1.0000 0.40420  0.06000  0.95460  Biso   1.000  H
  H8       1.0000 0.51450  0.02940  0.91250  Biso   1.000  H
  H9       1.0000 0.10820  0.65220  0.13890  Biso   1.000  H
  H10      1.0000 0.18350  0.75340  0.08550  Biso   1.000  H
  H11      1.0000 0.98680  0.85600  0.10240  Biso   1.000  H
  H12      1.0000 0.91150  0.74680  0.15410  Biso   1.000  H
  H13      1.0000 0.10010  0.48220  0.08690  Biso   1.000  H
  H14      1.0000 0.19850  0.55080  0.14780  Biso   1.000  H
  H15      1.0000 0.38990  0.45660  0.10300  Biso   1.000  H
  H16      1.0000 0.28880  0.39820  0.04180  Biso   1.000  H
  H17      1.0000 0.50170  0.85880  0.34730  Biso   1.000  H
  H18      1.0000 0.54390  0.78400  0.29100  Biso   1.000  H
  H19      1.0000 0.24700  0.62940  0.25730  Biso   1.000  H
  H20      1.0000 0.21180  0.69700  0.31770  Biso   1.000  H
  H21      1.0000 0.82560  0.65540  0.25750  Biso   1.000  H
  H22      1.0000 0.68000  0.66780  0.25830  Biso   1.000  H
  H23      1.0000 0.59650  0.51500  0.14530  Biso   1.000  H
  H24      1.0000 0.74230  0.50340  0.14730  Biso   1.000  H
  H25      1.0000 0.07200  0.26820  0.45130  Biso   1.000  H
  H26      1.0000 0.91340  0.14320  0.46080  Biso   1.000  H
  H27      1.0000 0.02510  0.06800  0.55940  Biso   1.000  H
  H28      1.0000 0.18190  0.19880  0.54800  Biso   1.000  H
  H29      1.0000 0.35880  0.76900  0.45290  Biso   1.000  H
  H30      1.0000 0.49030  0.79720  0.50040  Biso   1.000  H
  H31      1.0000 0.65580  0.06000  0.45460  Biso   1.000  H
  H32      1.0000 0.51490  0.02940  0.41250  Biso   1.000  H
  H33      1.0000 0.54400  0.65220  0.63890  Biso   1.000  H
  H34      1.0000 0.56990  0.75340  0.58550  Biso   1.000  H
  H35      1.0000 0.86920  0.85600  0.60240  Biso   1.000  H
  H36      1.0000 0.83530  0.74680  0.65410  Biso   1.000  H
  H37      1.0000 0.38210  0.48220  0.58690  Biso   1.000  H
  H38      1.0000 0.35230  0.55080  0.64780  Biso   1.000  H
  H39      1.0000 0.06670  0.45660  0.60300  Biso   1.000  H
  H40      1.0000 0.10940  0.39820  0.54180  Biso   1.000  H
  H41      1.0000 0.35710  0.85880  0.84730  Biso   1.000  H
  H42      1.0000 0.24010  0.78400  0.79100  Biso   1.000  H
  H43      1.0000 0.38240  0.62940  0.75730  Biso   1.000  H
  H44      1.0000 0.48520  0.69700  0.81770  Biso   1.000  H
  H45      1.0000 0.82980  0.65540  0.75750  Biso   1.000  H
  H46      1.0000 0.98780  0.66780  0.75830  Biso   1.000  H
  H47      1.0000 0.91850  0.51500  0.64530  Biso   1.000  H
  H48      1.0000 0.76110  0.50340  0.64730  Biso   1.000  H
  C1       1.0000 0.14870  0.88940  0.05750  Biso   1.000  C
  C2       1.0000 0.26670  0.94360  0.00760  Biso   1.000  C
  C3       1.0000 0.16940  0.01620  0.02030  Biso   1.000  C
  C4       1.0000 0.16640  0.22800  0.97390  Biso   1.000  C
  C5       1.0000 0.18620  0.15360  0.97940  Biso   1.000  C
  C6       1.0000 0.14370  0.09280  0.01160  Biso   1.000  C
  C7       1.0000 0.07660  0.10940  0.03750  Biso   1.000  C
  C8       1.0000 0.06130  0.18740  0.03020  Biso   1.000  C
  C9       1.0000 0.41010  0.82960  0.95370  Biso   1.000  C
  C10      1.0000 0.34660  0.84500  0.98160  Biso   1.000  C
  C11      1.0000 0.34280  0.93180  0.98100  Biso   1.000  C
  C12      1.0000 0.40470  0.99980  0.95530  Biso   1.000  C
  C13      1.0000 0.46960  0.98040  0.92960  Biso   1.000  C
  C14      1.0000 0.08210  0.69340  0.13080  Biso   1.000  C
  C15      1.0000 0.12940  0.75540  0.09990  Biso   1.000  C
  C16      1.0000 0.09740  0.82040  0.09010  Biso   1.000  C
  C17      1.0000 0.01350  0.81480  0.10970  Biso   1.000  C
  C18      1.0000 0.96800  0.74860  0.14020  Biso   1.000  C
  C19      1.0000 0.37800  0.55980  0.16910  Biso   1.000  C
  C20      1.0000 0.42240  0.64940  0.23170  Biso   1.000  C
  C21      1.0000 0.52840  0.60220  0.20050  Biso   1.000  C
  C22      1.0000 0.16080  0.47860  0.09000  Biso   1.000  C
  C23      1.0000 0.21910  0.51980  0.12640  Biso   1.000  C
  C24      1.0000 0.30900  0.51560  0.13180  Biso   1.000  C
  C25      1.0000 0.33240  0.46560  0.10010  Biso   1.000  C
  C26      1.0000 0.27030  0.42880  0.06420  Biso   1.000  C
  C27      1.0000 0.44910  0.81000  0.32930  Biso   1.000  C
  C28      1.0000 0.47510  0.76680  0.29530  Biso   1.000  C
  C29      1.0000 0.39930  0.69860  0.26800  Biso   1.000  C
  C30      1.0000 0.30050  0.67460  0.27600  Biso   1.000  C
  C31      1.0000 0.28030  0.71720  0.31150  Biso   1.000  C
  C32      1.0000 0.77860  0.62680  0.23430  Biso   1.000  C
  C33      1.0000 0.69200  0.63400  0.23510  Biso   1.000  C
  C34      1.0000 0.62180  0.59200  0.20190  Biso   1.000  C
  C35      1.0000 0.64270  0.54400  0.16870  Biso   1.000  C
  C36      1.0000 0.72990  0.53840  0.16990  Biso   1.000  C
  C37      1.0000 0.74070  0.88940  0.55750  Biso   1.000  C
  C38      1.0000 0.67690  0.94360  0.50760  Biso   1.000  C
  C39      1.0000 0.84680  0.01620  0.52030  Biso   1.000  C
  C40      1.0000 0.06160  0.22800  0.47390  Biso   1.000  C
  C41      1.0000 0.96740  0.15360  0.47940  Biso   1.000  C
  C42      1.0000 0.94910  0.09280  0.51160  Biso   1.000  C
  C43      1.0000 0.03280  0.10940  0.53750  Biso   1.000  C
  C44      1.0000 0.12610  0.18740  0.53020  Biso   1.000  C
  C45      1.0000 0.41950  0.82960  0.45370  Biso   1.000  C
  C46      1.0000 0.49840  0.84500  0.48160  Biso   1.000  C
  C47      1.0000 0.58900  0.93180  0.48100  Biso   1.000  C
  C48      1.0000 0.59510  0.99980  0.45530  Biso   1.000  C
  C49      1.0000 0.51080  0.98040  0.42960  Biso   1.000  C
  C50      1.0000 0.61130  0.69340  0.63080  Biso   1.000  C
  C51      1.0000 0.62600  0.75540  0.59990  Biso   1.000  C
  C52      1.0000 0.72300  0.82040  0.59010  Biso   1.000  C
  C53      1.0000 0.80130  0.81480  0.60970  Biso   1.000  C
  C54      1.0000 0.78060  0.74860  0.64020  Biso   1.000  C
  C55      1.0000 0.18180  0.55980  0.66910  Biso   1.000  C
  C56      1.0000 0.22700  0.64940  0.73170  Biso   1.000  C
  C57      1.0000 0.07380  0.60220  0.70050  Biso   1.000  C
  C58      1.0000 0.31780  0.47860  0.59000  Biso   1.000  C
  C59      1.0000 0.30070  0.51980  0.62640  Biso   1.000  C
  C60      1.0000 0.20660  0.51560  0.63180  Biso   1.000  C
  C61      1.0000 0.13320  0.46560  0.60010  Biso   1.000  C
  C62      1.0000 0.15850  0.42880  0.56420  Biso   1.000  C
  C63      1.0000 0.36090  0.81000  0.82930  Biso   1.000  C
  C64      1.0000 0.29170  0.76680  0.79530  Biso   1.000  C
  C65      1.0000 0.29930  0.69860  0.76800  Biso   1.000  C
  C66      1.0000 0.37410  0.67460  0.77600  Biso   1.000  C
  C67      1.0000 0.43690  0.71720  0.81150  Biso   1.000  C
  C68      1.0000 0.84820  0.62680  0.73430  Biso   1.000  C
  C69      1.0000 0.94200  0.63400  0.73510  Biso   1.000  C
  C70      1.0000 0.97020  0.59200  0.70190  Biso   1.000  C
  C71      1.0000 0.90130  0.54400  0.66870  Biso   1.000  C
  C72      1.0000 0.80850  0.53840  0.66990  Biso   1.000  C
  I1       1.0000 0.02760  0.65440  0.26730  Biso   1.000  I
  I2       1.0000 0.93000  0.43294  0.15992  Biso   1.000  I
  I3       1.0000 0.67490  0.01440  0.84750  Biso   1.000  I
  I4       1.0000 0.58360  0.72700  0.91655  Biso   1.000  I
  I5       1.0000 0.22149  0.48062  0.94708  Biso   1.000  I
  I6       1.0000 0.92615  0.34902  0.01891  Biso   1.000  I
  I7       1.0000 0.62680  0.65440  0.76730  Biso   1.000  I
  I8       1.0000 0.50294  0.43294  0.65992  Biso   1.000  I
  I9       1.0000 0.33950  0.01440  0.34750  Biso   1.000  I
  I10      1.0000 0.14340  0.72700  0.41655  Biso   1.000  I
  I11      1.0000 0.25913  0.48062  0.44708  Biso   1.000  I
  I12      1.0000 0.42287  0.34902  0.51891  Biso   1.000  I
  N1       1.0000 0.22590  0.88360  0.03760  Biso   1.000  N
  N2       1.0000 0.24360  0.01260  0.99720  Biso   1.000  N
  N3       1.0000 0.11830  0.95400  0.04937  Biso   1.000  N
  N4       1.0000 0.10440  0.24700  0.00020  Biso   1.000  N
  N5       1.0000 0.47030  0.89640  0.92840  Biso   1.000  N
  N6       1.0000 0.00100  0.68780  0.15040  Biso   1.000  N
  N7       1.0000 0.35230  0.60300  0.20090  Biso   1.000  N
  N8       1.0000 0.51470  0.65440  0.23280  Biso   1.000  N
  N9       1.0000 0.46520  0.55760  0.16735  Biso   1.000  N
  N10      1.0000 0.18500  0.43480  0.05960  Biso   1.000  N
  N11      1.0000 0.35300  0.78560  0.33740  Biso   1.000  N
  N12      1.0000 0.79990  0.58100  0.20206  Biso   1.000  N
  N13      1.0000 0.65770  0.88360  0.53760  Biso   1.000  N
  N14      1.0000 0.76900  0.01260  0.49720  Biso   1.000  N
  N15      1.0000 0.83570  0.95400  0.54937  Biso   1.000  N
  N16      1.0000 0.14260  0.24700  0.50020  Biso   1.000  N
  N17      1.0000 0.42610  0.89640  0.42840  Biso   1.000  N
  N18      1.0000 0.68680  0.68780  0.65040  Biso   1.000  N
  N19      1.0000 0.25070  0.60300  0.70090  Biso   1.000  N
  N20      1.0000 0.13970  0.65440  0.73280  Biso   1.000  N
  N21      1.0000 0.09240  0.55760  0.66735  Biso   1.000  N
  N22      1.0000 0.24980  0.43480  0.55960  Biso   1.000  N
  N23      1.0000 0.43260  0.78560  0.83740  Biso   1.000  N
  N24      1.0000 0.78110  0.58100  0.70206  Biso   1.000  N
  Zn7      1.0000 0.35235  0.41380  0.30425  Biso   1.000  Zn
  Zn8      1.0000 0.68922  0.14354  0.61647  Biso   1.000  Zn
  Zn9      1.0000 0.72144  0.62018  0.49779  Biso   1.000  Zn
  Zn10     1.0000 0.06145  0.41380  0.80425  Biso   1.000  Zn
  Zn11     1.0000 0.45432  0.14354  0.11647  Biso   1.000  Zn
  Zn12     1.0000 0.89874  0.62018  0.99779  Biso   1.000  Zn
  H49      1.0000 0.92800  0.73180  0.54870  Biso   1.000  H
  H50      1.0000 0.08660  0.85680  0.53920  Biso   1.000  H
  H51      1.0000 0.97490  0.93200  0.44060  Biso   1.000  H
  H52      1.0000 0.81810  0.80120  0.45200  Biso   1.000  H
  H53      1.0000 0.64120  0.23100  0.54710  Biso   1.000  H
  H54      1.0000 0.50970  0.20280  0.49960  Biso   1.000  H
  H55      1.0000 0.34420  0.94000  0.54540  Biso   1.000  H
  H56      1.0000 0.48510  0.97060  0.58750  Biso   1.000  H
  H57      1.0000 0.45600  0.34780  0.36110  Biso   1.000  H
  H58      1.0000 0.43010  0.24660  0.41450  Biso   1.000  H
  H59      1.0000 0.13080  0.14400  0.39760  Biso   1.000  H
  H60      1.0000 0.16470  0.25320  0.34590  Biso   1.000  H
  H61      1.0000 0.61790  0.51780  0.41310  Biso   1.000  H
  H62      1.0000 0.64770  0.44920  0.35220  Biso   1.000  H
  H63      1.0000 0.93330  0.54340  0.39700  Biso   1.000  H
  H64      1.0000 0.89060  0.60180  0.45820  Biso   1.000  H
  H65      1.0000 0.64290  0.14120  0.15270  Biso   1.000  H
  H66      1.0000 0.75990  0.21600  0.20900  Biso   1.000  H
  H67      1.0000 0.61760  0.37060  0.24270  Biso   1.000  H
  H68      1.0000 0.51480  0.30300  0.18230  Biso   1.000  H
  H69      1.0000 0.17020  0.34460  0.24250  Biso   1.000  H
  H70      1.0000 0.01220  0.33220  0.24170  Biso   1.000  H
  H71      1.0000 0.08150  0.48500  0.35470  Biso   1.000  H
  H72      1.0000 0.23890  0.49660  0.35270  Biso   1.000  H
  H73      1.0000 0.80380  0.73180  0.04870  Biso   1.000  H
  H74      1.0000 0.77020  0.85680  0.03920  Biso   1.000  H
  H75      1.0000 0.95710  0.93200  0.94060  Biso   1.000  H
  H76      1.0000 0.98310  0.80120  0.95200  Biso   1.000  H
  H77      1.0000 0.58980  0.23100  0.04710  Biso   1.000  H
  H78      1.0000 0.69310  0.20280  0.99960  Biso   1.000  H
  H79      1.0000 0.59580  0.94000  0.04540  Biso   1.000  H
  H80      1.0000 0.48550  0.97060  0.08750  Biso   1.000  H
  H81      1.0000 0.89180  0.34780  0.86110  Biso   1.000  H
  H82      1.0000 0.81650  0.24660  0.91450  Biso   1.000  H
  H83      1.0000 0.01320  0.14400  0.89760  Biso   1.000  H
  H84      1.0000 0.08850  0.25320  0.84590  Biso   1.000  H
  H85      1.0000 0.89990  0.51780  0.91310  Biso   1.000  H
  H86      1.0000 0.80150  0.44920  0.85220  Biso   1.000  H
  H87      1.0000 0.61010  0.54340  0.89700  Biso   1.000  H
  H88      1.0000 0.71120  0.60180  0.95820  Biso   1.000  H
  H89      1.0000 0.49830  0.14120  0.65270  Biso   1.000  H
  H90      1.0000 0.45610  0.21600  0.70900  Biso   1.000  H
  H91      1.0000 0.75300  0.37060  0.74270  Biso   1.000  H
  H92      1.0000 0.78820  0.30300  0.68230  Biso   1.000  H
  H93      1.0000 0.17440  0.34460  0.74250  Biso   1.000  H
  H94      1.0000 0.32000  0.33220  0.74170  Biso   1.000  H
  H95      1.0000 0.40350  0.48500  0.85470  Biso   1.000  H
  H96      1.0000 0.25770  0.49660  0.85270  Biso   1.000  H
  C73      1.0000 0.25930  0.11060  0.44250  Biso   1.000  C
  C74      1.0000 0.32310  0.05640  0.49240  Biso   1.000  C
  C75      1.0000 0.15320  0.98380  0.47970  Biso   1.000  C
  C76      1.0000 0.93840  0.77200  0.52610  Biso   1.000  C
  C77      1.0000 0.03260  0.84640  0.52060  Biso   1.000  C
  C78      1.0000 0.05090  0.90720  0.48840  Biso   1.000  C
  C79      1.0000 0.96720  0.89060  0.46250  Biso   1.000  C
  C80      1.0000 0.87390  0.81260  0.46980  Biso   1.000  C
  C81      1.0000 0.58050  0.17040  0.54630  Biso   1.000  C
  C82      1.0000 0.50160  0.15500  0.51840  Biso   1.000  C
  C83      1.0000 0.41100  0.06820  0.51900  Biso   1.000  C
  C84      1.0000 0.40490  0.00020  0.54470  Biso   1.000  C
  C85      1.0000 0.48920  0.01960  0.57040  Biso   1.000  C
  C86      1.0000 0.38870  0.30660  0.36920  Biso   1.000  C
  C87      1.0000 0.37400  0.24460  0.40010  Biso   1.000  C
  C88      1.0000 0.27700  0.17960  0.40990  Biso   1.000  C
  C89      1.0000 0.19870  0.18520  0.39030  Biso   1.000  C
  C90      1.0000 0.21940  0.25140  0.35980  Biso   1.000  C
  C91      1.0000 0.81820  0.44020  0.33090  Biso   1.000  C
  C92      1.0000 0.77300  0.35060  0.26830  Biso   1.000  C
  C93      1.0000 0.92620  0.39780  0.29950  Biso   1.000  C
  C94      1.0000 0.68220  0.52140  0.41000  Biso   1.000  C
  C95      1.0000 0.69930  0.48020  0.37360  Biso   1.000  C
  C96      1.0000 0.79340  0.48440  0.36820  Biso   1.000  C
  C97      1.0000 0.86680  0.53440  0.39990  Biso   1.000  C
  C98      1.0000 0.84150  0.57120  0.43580  Biso   1.000  C
  C99      1.0000 0.63910  0.19000  0.17070  Biso   1.000  C
  C100     1.0000 0.70830  0.23320  0.20470  Biso   1.000  C
  C101     1.0000 0.70070  0.30140  0.23200  Biso   1.000  C
  C102     1.0000 0.62590  0.32540  0.22400  Biso   1.000  C
  C103     1.0000 0.56310  0.28280  0.18850  Biso   1.000  C
  C104     1.0000 0.15180  0.37320  0.26570  Biso   1.000  C
  C105     1.0000 0.05800  0.36600  0.26490  Biso   1.000  C
  C106     1.0000 0.02980  0.40800  0.29810  Biso   1.000  C
  C107     1.0000 0.09870  0.45600  0.33130  Biso   1.000  C
  C108     1.0000 0.19150  0.46160  0.33010  Biso   1.000  C
  C109     1.0000 0.85130  0.11060  0.94250  Biso   1.000  C
  C110     1.0000 0.73330  0.05640  0.99240  Biso   1.000  C
  C111     1.0000 0.83060  0.98380  0.97970  Biso   1.000  C
  C112     1.0000 0.83360  0.77200  0.02610  Biso   1.000  C
  C113     1.0000 0.81380  0.84640  0.02060  Biso   1.000  C
  C114     1.0000 0.85630  0.90720  0.98840  Biso   1.000  C
  C115     1.0000 0.92340  0.89060  0.96250  Biso   1.000  C
  C116     1.0000 0.93870  0.81260  0.96980  Biso   1.000  C
  C117     1.0000 0.58990  0.17040  0.04630  Biso   1.000  C
  C118     1.0000 0.65340  0.15500  0.01840  Biso   1.000  C
  C119     1.0000 0.65720  0.06820  0.01900  Biso   1.000  C
  C120     1.0000 0.59530  0.00020  0.04470  Biso   1.000  C
  C121     1.0000 0.53040  0.01960  0.07040  Biso   1.000  C
  C122     1.0000 0.91790  0.30660  0.86920  Biso   1.000  C
  C123     1.0000 0.87060  0.24460  0.90010  Biso   1.000  C
  C124     1.0000 0.90260  0.17960  0.90990  Biso   1.000  C
  C125     1.0000 0.98650  0.18520  0.89030  Biso   1.000  C
  C126     1.0000 0.03200  0.25140  0.85980  Biso   1.000  C
  C127     1.0000 0.62200  0.44020  0.83090  Biso   1.000  C
  C128     1.0000 0.57760  0.35060  0.76830  Biso   1.000  C
  C129     1.0000 0.47160  0.39780  0.79950  Biso   1.000  C
  C130     1.0000 0.83920  0.52140  0.91000  Biso   1.000  C
  C131     1.0000 0.78090  0.48020  0.87360  Biso   1.000  C
  C132     1.0000 0.69100  0.48440  0.86820  Biso   1.000  C
  C133     1.0000 0.66760  0.53440  0.89990  Biso   1.000  C
  C134     1.0000 0.72970  0.57120  0.93580  Biso   1.000  C
  C135     1.0000 0.55090  0.19000  0.67070  Biso   1.000  C
  C136     1.0000 0.52490  0.23320  0.70470  Biso   1.000  C
  C137     1.0000 0.60070  0.30140  0.73200  Biso   1.000  C
  C138     1.0000 0.69950  0.32540  0.72400  Biso   1.000  C
  C139     1.0000 0.71970  0.28280  0.68850  Biso   1.000  C
  C140     1.0000 0.22140  0.37320  0.76570  Biso   1.000  C
  C141     1.0000 0.30800  0.36600  0.76490  Biso   1.000  C
  C142     1.0000 0.37820  0.40800  0.79810  Biso   1.000  C
  C143     1.0000 0.35730  0.45600  0.83130  Biso   1.000  C
  C144     1.0000 0.27010  0.46160  0.83010  Biso   1.000  C
  I13      1.0000 0.37320  0.34560  0.23270  Biso   1.000  I
  I14      1.0000 0.49706  0.56706  0.34008  Biso   1.000  I
  I15      1.0000 0.66050  0.98560  0.65250  Biso   1.000  I
  I16      1.0000 0.85660  0.27300  0.58345  Biso   1.000  I
  I17      1.0000 0.74087  0.51938  0.55292  Biso   1.000  I
  I18      1.0000 0.57713  0.65098  0.48109  Biso   1.000  I
  I19      1.0000 0.97240  0.34560  0.73270  Biso   1.000  I
  I20      1.0000 0.07000  0.56706  0.84008  Biso   1.000  I
  I21      1.0000 0.32510  0.98560  0.15250  Biso   1.000  I
  I22      1.0000 0.41640  0.27300  0.08345  Biso   1.000  I
  I23      1.0000 0.77851  0.51938  0.05292  Biso   1.000  I
  I24      1.0000 0.07385  0.65098  0.98109  Biso   1.000  I
  N25      1.0000 0.34230  0.11640  0.46240  Biso   1.000  N
  N26      1.0000 0.23100  0.98740  0.50280  Biso   1.000  N
  N27      1.0000 0.16430  0.04600  0.45063  Biso   1.000  N
  N28      1.0000 0.85740  0.75300  0.49980  Biso   1.000  N
  N29      1.0000 0.57390  0.10360  0.57160  Biso   1.000  N
  N30      1.0000 0.31320  0.31220  0.34960  Biso   1.000  N
  N31      1.0000 0.74930  0.39700  0.29910  Biso   1.000  N
  N32      1.0000 0.86030  0.34560  0.26720  Biso   1.000  N
  N33      1.0000 0.90760  0.44240  0.33265  Biso   1.000  N
  N34      1.0000 0.75020  0.56520  0.44040  Biso   1.000  N
  N35      1.0000 0.56740  0.21440  0.16260  Biso   1.000  N
  N36      1.0000 0.21890  0.41900  0.29794  Biso   1.000  N
  N37      1.0000 0.77410  0.11640  0.96240  Biso   1.000  N
  N38      1.0000 0.75640  0.98740  0.00280  Biso   1.000  N
  N39      1.0000 0.88170  0.04600  0.95063  Biso   1.000  N
  N40      1.0000 0.89560  0.75300  0.99980  Biso   1.000  N
  N41      1.0000 0.52970  0.10360  0.07160  Biso   1.000  N
  N42      1.0000 0.99900  0.31220  0.84960  Biso   1.000  N
  N43      1.0000 0.64770  0.39700  0.79910  Biso   1.000  N
  N44      1.0000 0.48530  0.34560  0.76720  Biso   1.000  N
  N45      1.0000 0.53480  0.44240  0.83265  Biso   1.000  N
  N46      1.0000 0.81500  0.56520  0.94040  Biso   1.000  N
  N47      1.0000 0.64700  0.21440  0.66260  Biso   1.000  N
  N48      1.0000 0.20010  0.41900  0.79794  Biso   1.000  N
