data_image0
_cell_length_a       11.8647
_cell_length_b       11.8647
_cell_length_c       16.343
_cell_angle_alpha    73.3114
_cell_angle_beta     73.3114
_cell_angle_gamma    78.7511

_symmetry_space_group_name_H-M    P 1
_symmetry_int_tables_number       1

loop_
  _symmetry_equiv_pos_as_xyz
  'x, y, z'

loop_
  _atom_site_label
  _atom_site_occupancy
  _atom_site_fract_x
  _atom_site_fract_y
  _atom_site_fract_z
  _atom_site_thermal_displace_type
  _atom_site_B_iso_or_equiv
  _atom_site_type_symbol
  Mn1      1.0000 0.83328  0.61570  0.54688  Biso   1.000  Mn
  Mn2      1.0000 0.38430  0.16672  0.95312  Biso   1.000  Mn
  Mn3      1.0000 0.16672  0.38430  0.45312  Biso   1.000  Mn
  Mn4      1.0000 0.61570  0.83328  0.04688  Biso   1.000  Mn
  H1       1.0000 0.16520  0.45320  0.03660  Biso   1.000  H
  H2       1.0000 0.81270  0.66350  0.27480  Biso   1.000  H
  H3       1.0000 0.14130  0.48530  0.24520  Biso   1.000  H
  H4       1.0000 0.32630  0.36190  0.07620  Biso   1.000  H
  H5       1.0000 0.26520  0.37640  0.17170  Biso   1.000  H
  H6       1.0000 0.97960  0.57680  0.04580  Biso   1.000  H
  H7       1.0000 0.45730  0.42250  0.18010  Biso   1.000  H
  H8       1.0000 0.29310  0.63710  0.00150  Biso   1.000  H
  H9       1.0000 0.57570  0.56570  0.15260  Biso   1.000  H
  H10      1.0000 0.41090  0.77550  0.98440  Biso   1.000  H
  H11      1.0000 0.54680  0.83480  0.46340  Biso   1.000  H
  H12      1.0000 0.33650  0.18730  0.22520  Biso   1.000  H
  H13      1.0000 0.51470  0.85870  0.25480  Biso   1.000  H
  H14      1.0000 0.63810  0.67370  0.42380  Biso   1.000  H
  H15      1.0000 0.62360  0.73480  0.32830  Biso   1.000  H
  H16      1.0000 0.42320  0.02040  0.45420  Biso   1.000  H
  H17      1.0000 0.57750  0.54270  0.31990  Biso   1.000  H
  H18      1.0000 0.36290  0.70690  0.49850  Biso   1.000  H
  H19      1.0000 0.43430  0.42430  0.34740  Biso   1.000  H
  H20      1.0000 0.22450  0.58910  0.51560  Biso   1.000  H
  H21      1.0000 0.83480  0.54680  0.96340  Biso   1.000  H
  H22      1.0000 0.18730  0.33650  0.72520  Biso   1.000  H
  H23      1.0000 0.85870  0.51470  0.75480  Biso   1.000  H
  H24      1.0000 0.67370  0.63810  0.92380  Biso   1.000  H
  H25      1.0000 0.73480  0.62360  0.82830  Biso   1.000  H
  H26      1.0000 0.02040  0.42320  0.95420  Biso   1.000  H
  H27      1.0000 0.54270  0.57750  0.81990  Biso   1.000  H
  H28      1.0000 0.70690  0.36290  0.99850  Biso   1.000  H
  H29      1.0000 0.42430  0.43430  0.84740  Biso   1.000  H
  H30      1.0000 0.58910  0.22450  0.01560  Biso   1.000  H
  H31      1.0000 0.45320  0.16520  0.53660  Biso   1.000  H
  H32      1.0000 0.66350  0.81270  0.77480  Biso   1.000  H
  H33      1.0000 0.48530  0.14130  0.74520  Biso   1.000  H
  H34      1.0000 0.36190  0.32630  0.57620  Biso   1.000  H
  H35      1.0000 0.37640  0.26520  0.67170  Biso   1.000  H
  H36      1.0000 0.57680  0.97960  0.54580  Biso   1.000  H
  H37      1.0000 0.42250  0.45730  0.68010  Biso   1.000  H
  H38      1.0000 0.63710  0.29310  0.50150  Biso   1.000  H
  H39      1.0000 0.56570  0.57570  0.65260  Biso   1.000  H
  H40      1.0000 0.77550  0.41090  0.48440  Biso   1.000  H
  C1       1.0000 0.97580  0.57420  0.27420  Biso   1.000  C
  C2       1.0000 0.07780  0.51780  0.13620  Biso   1.000  C
  C3       1.0000 0.88060  0.62720  0.15480  Biso   1.000  C
  C4       1.0000 0.87880  0.62760  0.24060  Biso   1.000  C
  C5       1.0000 0.77760  0.69080  0.11660  Biso   1.000  C
  C6       1.0000 0.35850  0.51270  0.09630  Biso   1.000  C
  C7       1.0000 0.07580  0.52000  0.22240  Biso   1.000  C
  C8       1.0000 0.97560  0.57380  0.36610  Biso   1.000  C
  C9       1.0000 0.28210  0.41850  0.11000  Biso   1.000  C
  C10      1.0000 0.97910  0.57450  0.10330  Biso   1.000  C
  C11      1.0000 0.44530  0.49410  0.13950  Biso   1.000  C
  C12      1.0000 0.34840  0.62100  0.03500  Biso   1.000  C
  C13      1.0000 0.51590  0.58210  0.12310  Biso   1.000  C
  C14      1.0000 0.42050  0.70310  0.02480  Biso   1.000  C
  C15      1.0000 0.42580  0.02420  0.22580  Biso   1.000  C
  C16      1.0000 0.48220  0.92220  0.36380  Biso   1.000  C
  C17      1.0000 0.37280  0.11940  0.34520  Biso   1.000  C
  C18      1.0000 0.37240  0.12120  0.25940  Biso   1.000  C
  C19      1.0000 0.30920  0.22240  0.38340  Biso   1.000  C
  C20      1.0000 0.48730  0.64150  0.40370  Biso   1.000  C
  C21      1.0000 0.48000  0.92420  0.27760  Biso   1.000  C
  C22      1.0000 0.42620  0.02440  0.13390  Biso   1.000  C
  C23      1.0000 0.58150  0.71790  0.39000  Biso   1.000  C
  C24      1.0000 0.42550  0.02090  0.39670  Biso   1.000  C
  C25      1.0000 0.50590  0.55470  0.36050  Biso   1.000  C
  C26      1.0000 0.37900  0.65160  0.46500  Biso   1.000  C
  C27      1.0000 0.41790  0.48410  0.37690  Biso   1.000  C
  C28      1.0000 0.29690  0.57950  0.47520  Biso   1.000  C
  C29      1.0000 0.02420  0.42580  0.72580  Biso   1.000  C
  C30      1.0000 0.92220  0.48220  0.86380  Biso   1.000  C
  C31      1.0000 0.11940  0.37280  0.84520  Biso   1.000  C
  C32      1.0000 0.12120  0.37240  0.75940  Biso   1.000  C
  C33      1.0000 0.22240  0.30920  0.88340  Biso   1.000  C
  C34      1.0000 0.64150  0.48730  0.90370  Biso   1.000  C
  C35      1.0000 0.92420  0.48000  0.77760  Biso   1.000  C
  C36      1.0000 0.02440  0.42620  0.63390  Biso   1.000  C
  C37      1.0000 0.71790  0.58150  0.89000  Biso   1.000  C
  C38      1.0000 0.02090  0.42550  0.89670  Biso   1.000  C
  C39      1.0000 0.55470  0.50590  0.86050  Biso   1.000  C
  C40      1.0000 0.65160  0.37900  0.96500  Biso   1.000  C
  C41      1.0000 0.48410  0.41790  0.87690  Biso   1.000  C
  C42      1.0000 0.57950  0.29690  0.97520  Biso   1.000  C
  C43      1.0000 0.57420  0.97580  0.77420  Biso   1.000  C
  C44      1.0000 0.51780  0.07780  0.63620  Biso   1.000  C
  C45      1.0000 0.62720  0.88060  0.65480  Biso   1.000  C
  C46      1.0000 0.62760  0.87880  0.74060  Biso   1.000  C
  C47      1.0000 0.69080  0.77760  0.61660  Biso   1.000  C
  C48      1.0000 0.51270  0.35850  0.59630  Biso   1.000  C
  C49      1.0000 0.52000  0.07580  0.72240  Biso   1.000  C
  C50      1.0000 0.57380  0.97560  0.86610  Biso   1.000  C
  C51      1.0000 0.41850  0.28210  0.61000  Biso   1.000  C
  C52      1.0000 0.57450  0.97910  0.60330  Biso   1.000  C
  C53      1.0000 0.49410  0.44530  0.63950  Biso   1.000  C
  C54      1.0000 0.62100  0.34840  0.53500  Biso   1.000  C
  C55      1.0000 0.58210  0.51590  0.62310  Biso   1.000  C
  C56      1.0000 0.70310  0.42050  0.52480  Biso   1.000  C
  N1       1.0000 0.17220  0.46220  0.08530  Biso   1.000  N
  N2       1.0000 0.50450  0.68730  0.06880  Biso   1.000  N
  N3       1.0000 0.53780  0.82780  0.41470  Biso   1.000  N
  N4       1.0000 0.31270  0.49550  0.43120  Biso   1.000  N
  N5       1.0000 0.82780  0.53780  0.91470  Biso   1.000  N
  N6       1.0000 0.49550  0.31270  0.93120  Biso   1.000  N
  N7       1.0000 0.46220  0.17220  0.58530  Biso   1.000  N
  N8       1.0000 0.68730  0.50450  0.56880  Biso   1.000  N
  O1       1.0000 0.68850  0.73890  0.16380  Biso   1.000  O
  O2       1.0000 0.78400  0.69780  0.03600  Biso   1.000  O
  O3       1.0000 0.87950  0.61350  0.41190  Biso   1.000  O
  O4       1.0000 0.06940  0.53620  0.39140  Biso   1.000  O
  O5       1.0000 0.97210  0.72950  0.52320  Biso   1.000  O
  O6       1.0000 0.26110  0.31150  0.33620  Biso   1.000  O
  O7       1.0000 0.30220  0.21600  0.46400  Biso   1.000  O
  O8       1.0000 0.38650  0.12050  0.08810  Biso   1.000  O
  O9       1.0000 0.46380  0.93060  0.10860  Biso   1.000  O
  O10      1.0000 0.27050  0.02790  0.97680  Biso   1.000  O
  O11      1.0000 0.31150  0.26110  0.83620  Biso   1.000  O
  O12      1.0000 0.21600  0.30220  0.96400  Biso   1.000  O
  O13      1.0000 0.12050  0.38650  0.58810  Biso   1.000  O
  O14      1.0000 0.93060  0.46380  0.60860  Biso   1.000  O
  O15      1.0000 0.02790  0.27050  0.47680  Biso   1.000  O
  O16      1.0000 0.73890  0.68850  0.66380  Biso   1.000  O
  O17      1.0000 0.69780  0.78400  0.53600  Biso   1.000  O
  O18      1.0000 0.61350  0.87950  0.91190  Biso   1.000  O
  O19      1.0000 0.53620  0.06940  0.89140  Biso   1.000  O
  O20      1.0000 0.72950  0.97210  0.02320  Biso   1.000  O
