data_image0
_cell_length_a       11.887
_cell_length_b       11.887
_cell_length_c       16.355
_cell_angle_alpha    73.3759
_cell_angle_beta     73.3759
_cell_angle_gamma    78.4194

_symmetry_space_group_name_H-M    P 1
_symmetry_int_tables_number       1

loop_
  _symmetry_equiv_pos_as_xyz
  'x, y, z'

loop_
  _atom_site_label
  _atom_site_occupancy
  _atom_site_fract_x
  _atom_site_fract_y
  _atom_site_fract_z
  _atom_site_thermal_displace_type
  _atom_site_B_iso_or_equiv
  _atom_site_type_symbol
  Mn1      1.0000 0.83243  0.61587  0.54667  Biso   1.000  Mn
  Mn2      1.0000 0.38413  0.16757  0.95333  Biso   1.000  Mn
  Mn3      1.0000 0.16757  0.38413  0.45333  Biso   1.000  Mn
  Mn4      1.0000 0.61587  0.83243  0.04667  Biso   1.000  Mn
  H1       1.0000 0.16660  0.45260  0.03720  Biso   1.000  H
  H2       1.0000 0.81350  0.66330  0.27450  Biso   1.000  H
  H3       1.0000 0.14280  0.48600  0.24540  Biso   1.000  H
  H4       1.0000 0.97990  0.57390  0.04660  Biso   1.000  H
  H5       1.0000 0.32820  0.36080  0.07810  Biso   1.000  H
  H6       1.0000 0.26690  0.37810  0.17290  Biso   1.000  H
  H7       1.0000 0.29380  0.63620  0.00300  Biso   1.000  H
  H8       1.0000 0.45870  0.42390  0.18030  Biso   1.000  H
  H9       1.0000 0.57700  0.56620  0.15240  Biso   1.000  H
  H10      1.0000 0.41420  0.77360  0.98180  Biso   1.000  H
  H11      1.0000 0.54740  0.83340  0.46280  Biso   1.000  H
  H12      1.0000 0.33670  0.18650  0.22550  Biso   1.000  H
  H13      1.0000 0.51400  0.85720  0.25460  Biso   1.000  H
  H14      1.0000 0.42610  0.02010  0.45340  Biso   1.000  H
  H15      1.0000 0.63920  0.67180  0.42190  Biso   1.000  H
  H16      1.0000 0.62190  0.73310  0.32710  Biso   1.000  H
  H17      1.0000 0.36380  0.70620  0.49700  Biso   1.000  H
  H18      1.0000 0.57610  0.54130  0.31970  Biso   1.000  H
  H19      1.0000 0.43380  0.42300  0.34760  Biso   1.000  H
  H20      1.0000 0.22640  0.58580  0.51820  Biso   1.000  H
  H21      1.0000 0.83340  0.54740  0.96280  Biso   1.000  H
  H22      1.0000 0.18650  0.33670  0.72550  Biso   1.000  H
  H23      1.0000 0.85720  0.51400  0.75460  Biso   1.000  H
  H24      1.0000 0.02010  0.42610  0.95340  Biso   1.000  H
  H25      1.0000 0.67180  0.63920  0.92190  Biso   1.000  H
  H26      1.0000 0.73310  0.62190  0.82710  Biso   1.000  H
  H27      1.0000 0.70620  0.36380  0.99700  Biso   1.000  H
  H28      1.0000 0.54130  0.57610  0.81970  Biso   1.000  H
  H29      1.0000 0.42300  0.43380  0.84760  Biso   1.000  H
  H30      1.0000 0.58580  0.22640  0.01820  Biso   1.000  H
  H31      1.0000 0.45260  0.16660  0.53720  Biso   1.000  H
  H32      1.0000 0.66330  0.81350  0.77450  Biso   1.000  H
  H33      1.0000 0.48600  0.14280  0.74540  Biso   1.000  H
  H34      1.0000 0.57390  0.97990  0.54660  Biso   1.000  H
  H35      1.0000 0.36080  0.32820  0.57810  Biso   1.000  H
  H36      1.0000 0.37810  0.26690  0.67290  Biso   1.000  H
  H37      1.0000 0.63620  0.29380  0.50300  Biso   1.000  H
  H38      1.0000 0.42390  0.45870  0.68030  Biso   1.000  H
  H39      1.0000 0.56620  0.57700  0.65240  Biso   1.000  H
  H40      1.0000 0.77360  0.41420  0.48180  Biso   1.000  H
  C1       1.0000 0.97680  0.57320  0.27380  Biso   1.000  C
  C2       1.0000 0.07840  0.51800  0.13760  Biso   1.000  C
  C3       1.0000 0.77780  0.68920  0.11670  Biso   1.000  C
  C4       1.0000 0.87950  0.62690  0.24030  Biso   1.000  C
  C5       1.0000 0.88100  0.62600  0.15520  Biso   1.000  C
  C6       1.0000 0.07710  0.51990  0.22270  Biso   1.000  C
  C7       1.0000 0.97670  0.57310  0.36650  Biso   1.000  C
  C8       1.0000 0.97930  0.57310  0.10380  Biso   1.000  C
  C9       1.0000 0.35990  0.51210  0.09620  Biso   1.000  C
  C10      1.0000 0.28380  0.41860  0.11100  Biso   1.000  C
  C11      1.0000 0.35010  0.61970  0.03570  Biso   1.000  C
  C12      1.0000 0.44670  0.49490  0.13940  Biso   1.000  C
  C13      1.0000 0.51710  0.58230  0.12290  Biso   1.000  C
  C14      1.0000 0.42270  0.70250  0.02350  Biso   1.000  C
  C15      1.0000 0.42680  0.02320  0.22620  Biso   1.000  C
  C16      1.0000 0.48200  0.92160  0.36240  Biso   1.000  C
  C17      1.0000 0.31080  0.22220  0.38330  Biso   1.000  C
  C18      1.0000 0.37310  0.12050  0.25970  Biso   1.000  C
  C19      1.0000 0.37400  0.11900  0.34480  Biso   1.000  C
  C20      1.0000 0.48010  0.92290  0.27730  Biso   1.000  C
  C21      1.0000 0.42690  0.02330  0.13350  Biso   1.000  C
  C22      1.0000 0.42690  0.02070  0.39620  Biso   1.000  C
  C23      1.0000 0.48790  0.64010  0.40380  Biso   1.000  C
  C24      1.0000 0.58140  0.71620  0.38900  Biso   1.000  C
  C25      1.0000 0.38030  0.64990  0.46430  Biso   1.000  C
  C26      1.0000 0.50510  0.55330  0.36060  Biso   1.000  C
  C27      1.0000 0.41770  0.48290  0.37710  Biso   1.000  C
  C28      1.0000 0.29750  0.57730  0.47650  Biso   1.000  C
  C29      1.0000 0.02320  0.42680  0.72620  Biso   1.000  C
  C30      1.0000 0.92160  0.48200  0.86240  Biso   1.000  C
  C31      1.0000 0.22220  0.31080  0.88330  Biso   1.000  C
  C32      1.0000 0.12050  0.37310  0.75970  Biso   1.000  C
  C33      1.0000 0.11900  0.37400  0.84480  Biso   1.000  C
  C34      1.0000 0.92290  0.48010  0.77730  Biso   1.000  C
  C35      1.0000 0.02330  0.42690  0.63350  Biso   1.000  C
  C36      1.0000 0.02070  0.42690  0.89620  Biso   1.000  C
  C37      1.0000 0.64010  0.48790  0.90380  Biso   1.000  C
  C38      1.0000 0.71620  0.58140  0.88900  Biso   1.000  C
  C39      1.0000 0.64990  0.38030  0.96430  Biso   1.000  C
  C40      1.0000 0.55330  0.50510  0.86060  Biso   1.000  C
  C41      1.0000 0.48290  0.41770  0.87710  Biso   1.000  C
  C42      1.0000 0.57730  0.29750  0.97650  Biso   1.000  C
  C43      1.0000 0.57320  0.97680  0.77380  Biso   1.000  C
  C44      1.0000 0.51800  0.07840  0.63760  Biso   1.000  C
  C45      1.0000 0.68920  0.77780  0.61670  Biso   1.000  C
  C46      1.0000 0.62690  0.87950  0.74030  Biso   1.000  C
  C47      1.0000 0.62600  0.88100  0.65520  Biso   1.000  C
  C48      1.0000 0.51990  0.07710  0.72270  Biso   1.000  C
  C49      1.0000 0.57310  0.97670  0.86650  Biso   1.000  C
  C50      1.0000 0.57310  0.97930  0.60380  Biso   1.000  C
  C51      1.0000 0.51210  0.35990  0.59620  Biso   1.000  C
  C52      1.0000 0.41860  0.28380  0.61100  Biso   1.000  C
  C53      1.0000 0.61970  0.35010  0.53570  Biso   1.000  C
  C54      1.0000 0.49490  0.44670  0.63940  Biso   1.000  C
  C55      1.0000 0.58230  0.51710  0.62290  Biso   1.000  C
  C56      1.0000 0.70250  0.42270  0.52350  Biso   1.000  C
  N1       1.0000 0.17360  0.46180  0.08580  Biso   1.000  N
  N2       1.0000 0.50530  0.68650  0.06830  Biso   1.000  N
  N3       1.0000 0.53820  0.82640  0.41420  Biso   1.000  N
  N4       1.0000 0.31350  0.49470  0.43170  Biso   1.000  N
  N5       1.0000 0.82640  0.53820  0.91420  Biso   1.000  N
  N6       1.0000 0.49470  0.31350  0.93170  Biso   1.000  N
  N7       1.0000 0.46180  0.17360  0.58580  Biso   1.000  N
  N8       1.0000 0.68650  0.50530  0.56830  Biso   1.000  N
  O1       1.0000 0.68900  0.73740  0.16380  Biso   1.000  O
  O2       1.0000 0.78490  0.69610  0.03630  Biso   1.000  O
  O3       1.0000 0.06910  0.53670  0.39210  Biso   1.000  O
  O4       1.0000 0.87960  0.61340  0.41240  Biso   1.000  O
  O5       1.0000 0.97330  0.73090  0.51650  Biso   1.000  O
  O6       1.0000 0.26260  0.31100  0.33620  Biso   1.000  O
  O7       1.0000 0.30390  0.21510  0.46370  Biso   1.000  O
  O8       1.0000 0.46330  0.93090  0.10790  Biso   1.000  O
  O9       1.0000 0.38660  0.12040  0.08760  Biso   1.000  O
  O10      1.0000 0.26910  0.02670  0.98350  Biso   1.000  O
  O11      1.0000 0.31100  0.26260  0.83620  Biso   1.000  O
  O12      1.0000 0.21510  0.30390  0.96370  Biso   1.000  O
  O13      1.0000 0.93090  0.46330  0.60790  Biso   1.000  O
  O14      1.0000 0.12040  0.38660  0.58760  Biso   1.000  O
  O15      1.0000 0.02670  0.26910  0.48350  Biso   1.000  O
  O16      1.0000 0.73740  0.68900  0.66380  Biso   1.000  O
  O17      1.0000 0.69610  0.78490  0.53630  Biso   1.000  O
  O18      1.0000 0.53670  0.06910  0.89210  Biso   1.000  O
  O19      1.0000 0.61340  0.87960  0.91240  Biso   1.000  O
  O20      1.0000 0.73090  0.97330  0.01650  Biso   1.000  O
