data_image0
_cell_length_a       11.8845
_cell_length_b       11.8845
_cell_length_c       16.357
_cell_angle_alpha    73.4542
_cell_angle_beta     73.4542
_cell_angle_gamma    78.4889

_symmetry_space_group_name_H-M    P 1
_symmetry_int_tables_number       1

loop_
  _symmetry_equiv_pos_as_xyz
  'x, y, z'

loop_
  _atom_site_label
  _atom_site_occupancy
  _atom_site_fract_x
  _atom_site_fract_y
  _atom_site_fract_z
  _atom_site_thermal_displace_type
  _atom_site_B_iso_or_equiv
  _atom_site_type_symbol
  Mn1      1.0000 0.83252  0.61562  0.54678  Biso   1.000  Mn
  Mn2      1.0000 0.38438  0.16748  0.95322  Biso   1.000  Mn
  Mn3      1.0000 0.16748  0.38438  0.45322  Biso   1.000  Mn
  Mn4      1.0000 0.61562  0.83252  0.04678  Biso   1.000  Mn
  H1       1.0000 0.16560  0.45400  0.03640  Biso   1.000  H
  H2       1.0000 0.81190  0.66110  0.27480  Biso   1.000  H
  H3       1.0000 0.14290  0.48810  0.24480  Biso   1.000  H
  H4       1.0000 0.98100  0.57440  0.04680  Biso   1.000  H
  H5       1.0000 0.32720  0.36020  0.07920  Biso   1.000  H
  H6       1.0000 0.26540  0.37880  0.17350  Biso   1.000  H
  H7       1.0000 0.29270  0.63470  0.00210  Biso   1.000  H
  H8       1.0000 0.46060  0.42320  0.18010  Biso   1.000  H
  H9       1.0000 0.57890  0.56410  0.15090  Biso   1.000  H
  H10      1.0000 0.41390  0.77370  0.98190  Biso   1.000  H
  H11      1.0000 0.54600  0.83440  0.46360  Biso   1.000  H
  H12      1.0000 0.33890  0.18810  0.22520  Biso   1.000  H
  H13      1.0000 0.51190  0.85710  0.25520  Biso   1.000  H
  H14      1.0000 0.42560  0.01900  0.45320  Biso   1.000  H
  H15      1.0000 0.63980  0.67280  0.42080  Biso   1.000  H
  H16      1.0000 0.62120  0.73460  0.32650  Biso   1.000  H
  H17      1.0000 0.36530  0.70730  0.49790  Biso   1.000  H
  H18      1.0000 0.57680  0.53940  0.31990  Biso   1.000  H
  H19      1.0000 0.43590  0.42110  0.34910  Biso   1.000  H
  H20      1.0000 0.22630  0.58610  0.51810  Biso   1.000  H
  H21      1.0000 0.83440  0.54600  0.96360  Biso   1.000  H
  H22      1.0000 0.18810  0.33890  0.72520  Biso   1.000  H
  H23      1.0000 0.85710  0.51190  0.75520  Biso   1.000  H
  H24      1.0000 0.01900  0.42560  0.95320  Biso   1.000  H
  H25      1.0000 0.67280  0.63980  0.92080  Biso   1.000  H
  H26      1.0000 0.73460  0.62120  0.82650  Biso   1.000  H
  H27      1.0000 0.70730  0.36530  0.99790  Biso   1.000  H
  H28      1.0000 0.53940  0.57680  0.81990  Biso   1.000  H
  H29      1.0000 0.42110  0.43590  0.84910  Biso   1.000  H
  H30      1.0000 0.58610  0.22630  0.01810  Biso   1.000  H
  H31      1.0000 0.45400  0.16560  0.53640  Biso   1.000  H
  H32      1.0000 0.66110  0.81190  0.77480  Biso   1.000  H
  H33      1.0000 0.48810  0.14290  0.74480  Biso   1.000  H
  H34      1.0000 0.57440  0.98100  0.54680  Biso   1.000  H
  H35      1.0000 0.36020  0.32720  0.57920  Biso   1.000  H
  H36      1.0000 0.37880  0.26540  0.67350  Biso   1.000  H
  H37      1.0000 0.63470  0.29270  0.50210  Biso   1.000  H
  H38      1.0000 0.42320  0.46060  0.68010  Biso   1.000  H
  H39      1.0000 0.56410  0.57890  0.65090  Biso   1.000  H
  H40      1.0000 0.77370  0.41390  0.48190  Biso   1.000  H
  C1       1.0000 0.07760  0.51900  0.13640  Biso   1.000  C
  C2       1.0000 0.97640  0.57380  0.27400  Biso   1.000  C
  C3       1.0000 0.87870  0.62670  0.24030  Biso   1.000  C
  C4       1.0000 0.88140  0.62780  0.15410  Biso   1.000  C
  C5       1.0000 0.77840  0.69060  0.11630  Biso   1.000  C
  C6       1.0000 0.35990  0.51250  0.09650  Biso   1.000  C
  C7       1.0000 0.07680  0.52140  0.22250  Biso   1.000  C
  C8       1.0000 0.97530  0.57310  0.36720  Biso   1.000  C
  C9       1.0000 0.98030  0.57370  0.10400  Biso   1.000  C
  C10      1.0000 0.28300  0.41860  0.11150  Biso   1.000  C
  C11      1.0000 0.34860  0.61920  0.03500  Biso   1.000  C
  C12      1.0000 0.44820  0.49440  0.13940  Biso   1.000  C
  C13      1.0000 0.51800  0.58060  0.12240  Biso   1.000  C
  C14      1.0000 0.42250  0.70250  0.02340  Biso   1.000  C
  C15      1.0000 0.48100  0.92240  0.36360  Biso   1.000  C
  C16      1.0000 0.42620  0.02360  0.22600  Biso   1.000  C
  C17      1.0000 0.37330  0.12130  0.25970  Biso   1.000  C
  C18      1.0000 0.37220  0.11860  0.34590  Biso   1.000  C
  C19      1.0000 0.30940  0.22160  0.38370  Biso   1.000  C
  C20      1.0000 0.48750  0.64010  0.40350  Biso   1.000  C
  C21      1.0000 0.47860  0.92320  0.27750  Biso   1.000  C
  C22      1.0000 0.42690  0.02470  0.13280  Biso   1.000  C
  C23      1.0000 0.42630  0.01970  0.39600  Biso   1.000  C
  C24      1.0000 0.58140  0.71700  0.38850  Biso   1.000  C
  C25      1.0000 0.38080  0.65140  0.46500  Biso   1.000  C
  C26      1.0000 0.50560  0.55180  0.36060  Biso   1.000  C
  C27      1.0000 0.41940  0.48200  0.37760  Biso   1.000  C
  C28      1.0000 0.29750  0.57750  0.47660  Biso   1.000  C
  C29      1.0000 0.92240  0.48100  0.86360  Biso   1.000  C
  C30      1.0000 0.02360  0.42620  0.72600  Biso   1.000  C
  C31      1.0000 0.12130  0.37330  0.75970  Biso   1.000  C
  C32      1.0000 0.11860  0.37220  0.84590  Biso   1.000  C
  C33      1.0000 0.22160  0.30940  0.88370  Biso   1.000  C
  C34      1.0000 0.64010  0.48750  0.90350  Biso   1.000  C
  C35      1.0000 0.92320  0.47860  0.77750  Biso   1.000  C
  C36      1.0000 0.02470  0.42690  0.63280  Biso   1.000  C
  C37      1.0000 0.01970  0.42630  0.89600  Biso   1.000  C
  C38      1.0000 0.71700  0.58140  0.88850  Biso   1.000  C
  C39      1.0000 0.65140  0.38080  0.96500  Biso   1.000  C
  C40      1.0000 0.55180  0.50560  0.86060  Biso   1.000  C
  C41      1.0000 0.48200  0.41940  0.87760  Biso   1.000  C
  C42      1.0000 0.57750  0.29750  0.97660  Biso   1.000  C
  C43      1.0000 0.51900  0.07760  0.63640  Biso   1.000  C
  C44      1.0000 0.57380  0.97640  0.77400  Biso   1.000  C
  C45      1.0000 0.62670  0.87870  0.74030  Biso   1.000  C
  C46      1.0000 0.62780  0.88140  0.65410  Biso   1.000  C
  C47      1.0000 0.69060  0.77840  0.61630  Biso   1.000  C
  C48      1.0000 0.51250  0.35990  0.59650  Biso   1.000  C
  C49      1.0000 0.52140  0.07680  0.72250  Biso   1.000  C
  C50      1.0000 0.57310  0.97530  0.86720  Biso   1.000  C
  C51      1.0000 0.57370  0.98030  0.60400  Biso   1.000  C
  C52      1.0000 0.41860  0.28300  0.61150  Biso   1.000  C
  C53      1.0000 0.61920  0.34860  0.53500  Biso   1.000  C
  C54      1.0000 0.49440  0.44820  0.63940  Biso   1.000  C
  C55      1.0000 0.58060  0.51800  0.62240  Biso   1.000  C
  C56      1.0000 0.70250  0.42250  0.52340  Biso   1.000  C
  N1       1.0000 0.50490  0.68710  0.06770  Biso   1.000  N
  N2       1.0000 0.17210  0.46290  0.08510  Biso   1.000  N
  N3       1.0000 0.31290  0.49510  0.43230  Biso   1.000  N
  N4       1.0000 0.53710  0.82790  0.41490  Biso   1.000  N
  N5       1.0000 0.49510  0.31290  0.93230  Biso   1.000  N
  N6       1.0000 0.82790  0.53710  0.91490  Biso   1.000  N
  N7       1.0000 0.68710  0.50490  0.56770  Biso   1.000  N
  N8       1.0000 0.46290  0.17210  0.58510  Biso   1.000  N
  O1       1.0000 0.68780  0.73740  0.16420  Biso   1.000  O
  O2       1.0000 0.06960  0.53540  0.39210  Biso   1.000  O
  O3       1.0000 0.78430  0.69770  0.03640  Biso   1.000  O
  O4       1.0000 0.88020  0.61400  0.41220  Biso   1.000  O
  O5       1.0000 0.96840  0.72760  0.52720  Biso   1.000  O
  O6       1.0000 0.26260  0.31220  0.33580  Biso   1.000  O
  O7       1.0000 0.46460  0.93040  0.10790  Biso   1.000  O
  O8       1.0000 0.30230  0.21570  0.46360  Biso   1.000  O
  O9       1.0000 0.38600  0.11980  0.08780  Biso   1.000  O
  O10      1.0000 0.27240  0.03160  0.97280  Biso   1.000  O
  O11      1.0000 0.31220  0.26260  0.83580  Biso   1.000  O
  O12      1.0000 0.93040  0.46460  0.60790  Biso   1.000  O
  O13      1.0000 0.21570  0.30230  0.96360  Biso   1.000  O
  O14      1.0000 0.11980  0.38600  0.58780  Biso   1.000  O
  O15      1.0000 0.03160  0.27240  0.47280  Biso   1.000  O
  O16      1.0000 0.73740  0.68780  0.66420  Biso   1.000  O
  O17      1.0000 0.53540  0.06960  0.89210  Biso   1.000  O
  O18      1.0000 0.69770  0.78430  0.53640  Biso   1.000  O
  O19      1.0000 0.61400  0.88020  0.91220  Biso   1.000  O
  O20      1.0000 0.72760  0.96840  0.02720  Biso   1.000  O
