data_image0
_cell_length_a       11.885
_cell_length_b       11.885
_cell_length_c       16.344
_cell_angle_alpha    73.4831
_cell_angle_beta     73.4831
_cell_angle_gamma    78.51

_symmetry_space_group_name_H-M    P 1
_symmetry_int_tables_number       1

loop_
  _symmetry_equiv_pos_as_xyz
  'x, y, z'

loop_
  _atom_site_label
  _atom_site_occupancy
  _atom_site_fract_x
  _atom_site_fract_y
  _atom_site_fract_z
  _atom_site_thermal_displace_type
  _atom_site_B_iso_or_equiv
  _atom_site_type_symbol
  Mn1      1.0000 0.33250  0.11538  0.54706  Biso   1.000  Mn
  Mn2      1.0000 0.88462  0.66750  0.95294  Biso   1.000  Mn
  Mn3      1.0000 0.66750  0.88462  0.45294  Biso   1.000  Mn
  Mn4      1.0000 0.11538  0.33250  0.04706  Biso   1.000  Mn
  H1       1.0000 0.95270  0.66470  0.53680  Biso   1.000  H
  H2       1.0000 0.98710  0.64230  0.74490  Biso   1.000  H
  H3       1.0000 0.16380  0.31300  0.77460  Biso   1.000  H
  H4       1.0000 0.07520  0.47980  0.54640  Biso   1.000  H
  H5       1.0000 0.87760  0.76640  0.67180  Biso   1.000  H
  H6       1.0000 0.86190  0.82730  0.57660  Biso   1.000  H
  H7       1.0000 0.13420  0.79500  0.49970  Biso   1.000  H
  H8       1.0000 0.92220  0.95960  0.67920  Biso   1.000  H
  H9       1.0000 0.06790  0.07370  0.65460  Biso   1.000  H
  H10      1.0000 0.27430  0.91310  0.48210  Biso   1.000  H
  H11      1.0000 0.33530  0.04730  0.96320  Biso   1.000  H
  H12      1.0000 0.35770  0.01290  0.75510  Biso   1.000  H
  H13      1.0000 0.68700  0.83620  0.72540  Biso   1.000  H
  H14      1.0000 0.52020  0.92480  0.95360  Biso   1.000  H
  H15      1.0000 0.23360  0.12240  0.82820  Biso   1.000  H
  H16      1.0000 0.17270  0.13810  0.92340  Biso   1.000  H
  H17      1.0000 0.20500  0.86580  0.00030  Biso   1.000  H
  H18      1.0000 0.04040  0.07780  0.82080  Biso   1.000  H
  H19      1.0000 0.92630  0.93210  0.84540  Biso   1.000  H
  H20      1.0000 0.08690  0.72570  0.01790  Biso   1.000  H
  H21      1.0000 0.04730  0.33530  0.46320  Biso   1.000  H
  H22      1.0000 0.01290  0.35770  0.25510  Biso   1.000  H
  H23      1.0000 0.83620  0.68700  0.22540  Biso   1.000  H
  H24      1.0000 0.92480  0.52020  0.45360  Biso   1.000  H
  H25      1.0000 0.12240  0.23360  0.32820  Biso   1.000  H
  H26      1.0000 0.13810  0.17270  0.42340  Biso   1.000  H
  H27      1.0000 0.86580  0.20500  0.50030  Biso   1.000  H
  H28      1.0000 0.07780  0.04040  0.32080  Biso   1.000  H
  H29      1.0000 0.93210  0.92630  0.34540  Biso   1.000  H
  H30      1.0000 0.72570  0.08690  0.51790  Biso   1.000  H
  H31      1.0000 0.66470  0.95270  0.03680  Biso   1.000  H
  H32      1.0000 0.64230  0.98710  0.24490  Biso   1.000  H
  H33      1.0000 0.31300  0.16380  0.27460  Biso   1.000  H
  H34      1.0000 0.47980  0.07520  0.04640  Biso   1.000  H
  H35      1.0000 0.76640  0.87760  0.17180  Biso   1.000  H
  H36      1.0000 0.82730  0.86190  0.07660  Biso   1.000  H
  H37      1.0000 0.79500  0.13420  0.99970  Biso   1.000  H
  H38      1.0000 0.95960  0.92220  0.17920  Biso   1.000  H
  H39      1.0000 0.07370  0.06790  0.15460  Biso   1.000  H
  H40      1.0000 0.91310  0.27430  0.98210  Biso   1.000  H
  C1       1.0000 0.01830  0.57830  0.63650  Biso   1.000  C
  C2       1.0000 0.07450  0.47570  0.77440  Biso   1.000  C
  C3       1.0000 0.18980  0.27760  0.61640  Biso   1.000  C
  C4       1.0000 0.12630  0.38070  0.65520  Biso   1.000  C
  C5       1.0000 0.02100  0.57640  0.72230  Biso   1.000  C
  C6       1.0000 0.12740  0.37900  0.74060  Biso   1.000  C
  C7       1.0000 0.01340  0.85860  0.59580  Biso   1.000  C
  C8       1.0000 0.07340  0.47540  0.86650  Biso   1.000  C
  C9       1.0000 0.07370  0.47930  0.60370  Biso   1.000  C
  C10      1.0000 0.91880  0.78280  0.61000  Biso   1.000  C
  C11      1.0000 0.11920  0.84940  0.53390  Biso   1.000  C
  C12      1.0000 0.99410  0.94650  0.63950  Biso   1.000  C
  C13      1.0000 0.08280  0.01540  0.62370  Biso   1.000  C
  C14      1.0000 0.20260  0.92200  0.52320  Biso   1.000  C
  C15      1.0000 0.42170  0.98170  0.86350  Biso   1.000  C
  C16      1.0000 0.52430  0.92550  0.72560  Biso   1.000  C
  C17      1.0000 0.72240  0.81020  0.88360  Biso   1.000  C
  C18      1.0000 0.61930  0.87370  0.84480  Biso   1.000  C
  C19      1.0000 0.42360  0.97900  0.77770  Biso   1.000  C
  C20      1.0000 0.62100  0.87260  0.75940  Biso   1.000  C
  C21      1.0000 0.14140  0.98660  0.90420  Biso   1.000  C
  C22      1.0000 0.52460  0.92660  0.63350  Biso   1.000  C
  C23      1.0000 0.52070  0.92630  0.89630  Biso   1.000  C
  C24      1.0000 0.21720  0.08120  0.89000  Biso   1.000  C
  C25      1.0000 0.15060  0.88080  0.96610  Biso   1.000  C
  C26      1.0000 0.05350  0.00590  0.86050  Biso   1.000  C
  C27      1.0000 0.98460  0.91720  0.87630  Biso   1.000  C
  C28      1.0000 0.07800  0.79740  0.97680  Biso   1.000  C
  C29      1.0000 0.98170  0.42170  0.36350  Biso   1.000  C
  C30      1.0000 0.92550  0.52430  0.22560  Biso   1.000  C
  C31      1.0000 0.81020  0.72240  0.38360  Biso   1.000  C
  C32      1.0000 0.87370  0.61930  0.34480  Biso   1.000  C
  C33      1.0000 0.97900  0.42360  0.27770  Biso   1.000  C
  C34      1.0000 0.87260  0.62100  0.25940  Biso   1.000  C
  C35      1.0000 0.98660  0.14140  0.40420  Biso   1.000  C
  C36      1.0000 0.92660  0.52460  0.13350  Biso   1.000  C
  C37      1.0000 0.92630  0.52070  0.39630  Biso   1.000  C
  C38      1.0000 0.08120  0.21720  0.39000  Biso   1.000  C
  C39      1.0000 0.88080  0.15060  0.46610  Biso   1.000  C
  C40      1.0000 0.00590  0.05350  0.36050  Biso   1.000  C
  C41      1.0000 0.91720  0.98460  0.37630  Biso   1.000  C
  C42      1.0000 0.79740  0.07800  0.47680  Biso   1.000  C
  C43      1.0000 0.57830  0.01830  0.13650  Biso   1.000  C
  C44      1.0000 0.47570  0.07450  0.27440  Biso   1.000  C
  C45      1.0000 0.27760  0.18980  0.11640  Biso   1.000  C
  C46      1.0000 0.38070  0.12630  0.15520  Biso   1.000  C
  C47      1.0000 0.57640  0.02100  0.22230  Biso   1.000  C
  C48      1.0000 0.37900  0.12740  0.24060  Biso   1.000  C
  C49      1.0000 0.85860  0.01340  0.09580  Biso   1.000  C
  C50      1.0000 0.47540  0.07340  0.36650  Biso   1.000  C
  C51      1.0000 0.47930  0.07370  0.10370  Biso   1.000  C
  C52      1.0000 0.78280  0.91880  0.11000  Biso   1.000  C
  C53      1.0000 0.84940  0.11920  0.03390  Biso   1.000  C
  C54      1.0000 0.94650  0.99410  0.13950  Biso   1.000  C
  C55      1.0000 0.01540  0.08280  0.12370  Biso   1.000  C
  C56      1.0000 0.92200  0.20260  0.02320  Biso   1.000  C
  N1       1.0000 0.18630  0.00450  0.56850  Biso   1.000  N
  N2       1.0000 0.96220  0.67220  0.58510  Biso   1.000  N
  N3       1.0000 0.99550  0.81370  0.93150  Biso   1.000  N
  N4       1.0000 0.32780  0.03780  0.91490  Biso   1.000  N
  N5       1.0000 0.81370  0.99550  0.43150  Biso   1.000  N
  N6       1.0000 0.03780  0.32780  0.41490  Biso   1.000  N
  N7       1.0000 0.00450  0.18630  0.06850  Biso   1.000  N
  N8       1.0000 0.67220  0.96220  0.08510  Biso   1.000  N
  O1       1.0000 0.23750  0.18830  0.66440  Biso   1.000  O
  O2       1.0000 0.19720  0.28280  0.53690  Biso   1.000  O
  O3       1.0000 0.11440  0.38000  0.91120  Biso   1.000  O
  O4       1.0000 0.03770  0.56990  0.89140  Biso   1.000  O
  O5       1.0000 0.47570  0.23110  0.51650  Biso   1.000  O
  O6       1.0000 0.81170  0.76250  0.83560  Biso   1.000  O
  O7       1.0000 0.71720  0.80280  0.96310  Biso   1.000  O
  O8       1.0000 0.62000  0.88560  0.58880  Biso   1.000  O
  O9       1.0000 0.43010  0.96230  0.60860  Biso   1.000  O
  O10      1.0000 0.76890  0.52430  0.98350  Biso   1.000  O
  O11      1.0000 0.76250  0.81170  0.33560  Biso   1.000  O
  O12      1.0000 0.80280  0.71720  0.46310  Biso   1.000  O
  O13      1.0000 0.88560  0.62000  0.08880  Biso   1.000  O
  O14      1.0000 0.96230  0.43010  0.10860  Biso   1.000  O
  O15      1.0000 0.52430  0.76890  0.48350  Biso   1.000  O
  O16      1.0000 0.18830  0.23750  0.16440  Biso   1.000  O
  O17      1.0000 0.28280  0.19720  0.03690  Biso   1.000  O
  O18      1.0000 0.38000  0.11440  0.41120  Biso   1.000  O
  O19      1.0000 0.56990  0.03770  0.39140  Biso   1.000  O
  O20      1.0000 0.23110  0.47570  0.01650  Biso   1.000  O
