data_image0
_cell_length_a       14.918
_cell_length_b       15.596
_cell_length_c       16.442
_cell_angle_alpha    90
_cell_angle_beta     105.606
_cell_angle_gamma    90

_symmetry_space_group_name_H-M    P 1
_symmetry_int_tables_number       1

loop_
  _symmetry_equiv_pos_as_xyz
  'x, y, z'

loop_
  _atom_site_label
  _atom_site_occupancy
  _atom_site_fract_x
  _atom_site_fract_y
  _atom_site_fract_z
  _atom_site_thermal_displace_type
  _atom_site_B_iso_or_equiv
  _atom_site_type_symbol
  Mn1      1.0000 0.25391  0.93160  0.96291  Biso   1.000  Mn
  Mn2      1.0000 0.27588  0.64594  0.04599  Biso   1.000  Mn
  Mn3      1.0000 0.24609  0.43160  0.53709  Biso   1.000  Mn
  Mn4      1.0000 0.22412  0.14594  0.45401  Biso   1.000  Mn
  Mn5      1.0000 0.74609  0.06840  0.03709  Biso   1.000  Mn
  Mn6      1.0000 0.72412  0.35406  0.95401  Biso   1.000  Mn
  Mn7      1.0000 0.75391  0.56840  0.46291  Biso   1.000  Mn
  Mn8      1.0000 0.77588  0.85406  0.54599  Biso   1.000  Mn
  H1       1.0000 0.27650  0.96550  0.23510  Biso   1.000  H
  H2       1.0000 0.31560  0.90520  0.59190  Biso   1.000  H
  H3       1.0000 0.26490  0.61160  0.77440  Biso   1.000  H
  H4       1.0000 0.23840  0.68200  0.42970  Biso   1.000  H
  H5       1.0000 0.27710  0.59580  0.30400  Biso   1.000  H
  H6       1.0000 0.27150  0.55520  0.38950  Biso   1.000  H
  H7       1.0000 0.27270  0.86840  0.78000  Biso   1.000  H
  H8       1.0000 0.25180  0.83600  0.43930  Biso   1.000  H
  H9       1.0000 0.23930  0.98100  0.70030  Biso   1.000  H
  H10      1.0000 0.22670  0.01570  0.60860  Biso   1.000  H
  H11      1.0000 0.28750  0.70830  0.23980  Biso   1.000  H
  H12      1.0000 0.40680  0.47230  0.34930  Biso   1.000  H
  H13      1.0000 0.27710  0.74090  0.56680  Biso   1.000  H
  H14      1.0000 0.10560  0.90030  0.49920  Biso   1.000  H
  H15      1.0000 0.95440  0.86500  0.46840  Biso   1.000  H
  H16      1.0000 0.09450  0.96840  0.73010  Biso   1.000  H
  H17      1.0000 0.59640  0.68840  0.47910  Biso   1.000  H
  H18      1.0000 0.94240  0.92910  0.69460  Biso   1.000  H
  H19      1.0000 0.56270  0.45570  0.39040  Biso   1.000  H
  H20      1.0000 0.43940  0.70690  0.44620  Biso   1.000  H
  H21      1.0000 0.22350  0.46550  0.26490  Biso   1.000  H
  H22      1.0000 0.18440  0.40520  0.90810  Biso   1.000  H
  H23      1.0000 0.23510  0.11160  0.72560  Biso   1.000  H
  H24      1.0000 0.26160  0.18200  0.07030  Biso   1.000  H
  H25      1.0000 0.22290  0.09580  0.19600  Biso   1.000  H
  H26      1.0000 0.22850  0.05520  0.11050  Biso   1.000  H
  H27      1.0000 0.22730  0.36840  0.72000  Biso   1.000  H
  H28      1.0000 0.24820  0.33600  0.06070  Biso   1.000  H
  H29      1.0000 0.26070  0.48100  0.79970  Biso   1.000  H
  H30      1.0000 0.27330  0.51570  0.89140  Biso   1.000  H
  H31      1.0000 0.21250  0.20830  0.26020  Biso   1.000  H
  H32      1.0000 0.09320  0.97230  0.15070  Biso   1.000  H
  H33      1.0000 0.22290  0.24090  0.93320  Biso   1.000  H
  H34      1.0000 0.39440  0.40030  0.00080  Biso   1.000  H
  H35      1.0000 0.54560  0.36500  0.03160  Biso   1.000  H
  H36      1.0000 0.40550  0.46840  0.76990  Biso   1.000  H
  H37      1.0000 0.90360  0.18840  0.02090  Biso   1.000  H
  H38      1.0000 0.55760  0.42910  0.80540  Biso   1.000  H
  H39      1.0000 0.93730  0.95570  0.10960  Biso   1.000  H
  H40      1.0000 0.06060  0.20690  0.05380  Biso   1.000  H
  H41      1.0000 0.72350  0.03450  0.76490  Biso   1.000  H
  H42      1.0000 0.68440  0.09480  0.40810  Biso   1.000  H
  H43      1.0000 0.73510  0.38840  0.22560  Biso   1.000  H
  H44      1.0000 0.76160  0.31800  0.57030  Biso   1.000  H
  H45      1.0000 0.72290  0.40420  0.69600  Biso   1.000  H
  H46      1.0000 0.72850  0.44480  0.61050  Biso   1.000  H
  H47      1.0000 0.72730  0.13160  0.22000  Biso   1.000  H
  H48      1.0000 0.74820  0.16400  0.56070  Biso   1.000  H
  H49      1.0000 0.76070  0.01900  0.29970  Biso   1.000  H
  H50      1.0000 0.77330  0.98430  0.39140  Biso   1.000  H
  H51      1.0000 0.71250  0.29170  0.76020  Biso   1.000  H
  H52      1.0000 0.59320  0.52770  0.65070  Biso   1.000  H
  H53      1.0000 0.72290  0.25910  0.43320  Biso   1.000  H
  H54      1.0000 0.89440  0.09970  0.50080  Biso   1.000  H
  H55      1.0000 0.04560  0.13500  0.53160  Biso   1.000  H
  H56      1.0000 0.90550  0.03160  0.26990  Biso   1.000  H
  H57      1.0000 0.40360  0.31160  0.52090  Biso   1.000  H
  H58      1.0000 0.05760  0.07090  0.30540  Biso   1.000  H
  H59      1.0000 0.43730  0.54430  0.60960  Biso   1.000  H
  H60      1.0000 0.56060  0.29310  0.55380  Biso   1.000  H
  H61      1.0000 0.77650  0.53450  0.73510  Biso   1.000  H
  H62      1.0000 0.81560  0.59480  0.09190  Biso   1.000  H
  H63      1.0000 0.76490  0.88840  0.27440  Biso   1.000  H
  H64      1.0000 0.73840  0.81800  0.92970  Biso   1.000  H
  H65      1.0000 0.77710  0.90420  0.80400  Biso   1.000  H
  H66      1.0000 0.77150  0.94480  0.88950  Biso   1.000  H
  H67      1.0000 0.77270  0.63160  0.28000  Biso   1.000  H
  H68      1.0000 0.75180  0.66400  0.93930  Biso   1.000  H
  H69      1.0000 0.73930  0.51900  0.20030  Biso   1.000  H
  H70      1.0000 0.72670  0.48430  0.10860  Biso   1.000  H
  H71      1.0000 0.78750  0.79170  0.73980  Biso   1.000  H
  H72      1.0000 0.90680  0.02770  0.84930  Biso   1.000  H
  H73      1.0000 0.77710  0.75910  0.06680  Biso   1.000  H
  H74      1.0000 0.60560  0.59970  0.99920  Biso   1.000  H
  H75      1.0000 0.45440  0.63500  0.96840  Biso   1.000  H
  H76      1.0000 0.59450  0.53160  0.23010  Biso   1.000  H
  H77      1.0000 0.09640  0.81160  0.97910  Biso   1.000  H
  H78      1.0000 0.44240  0.57090  0.19460  Biso   1.000  H
  H79      1.0000 0.06270  0.04430  0.89040  Biso   1.000  H
  H80      1.0000 0.93940  0.79310  0.94620  Biso   1.000  H
  C1       1.0000 0.28070  0.83650  0.22330  Biso   1.000  C
  C2       1.0000 0.26140  0.91410  0.34460  Biso   1.000  C
  C3       1.0000 0.28890  0.83420  0.13330  Biso   1.000  C
  C4       1.0000 0.25060  0.99690  0.38750  Biso   1.000  C
  C5       1.0000 0.26970  0.66440  0.66310  Biso   1.000  C
  C6       1.0000 0.27340  0.91400  0.26270  Biso   1.000  C
  C7       1.0000 0.26230  0.58120  0.61470  Biso   1.000  C
  C8       1.0000 0.26770  0.66360  0.74740  Biso   1.000  C
  C9       1.0000 0.29820  0.60200  0.36490  Biso   1.000  C
  C10      1.0000 0.26990  0.73960  0.79100  Biso   1.000  C
  C11      1.0000 0.27890  0.81980  0.66620  Biso   1.000  C
  C12      1.0000 0.27360  0.81740  0.75090  Biso   1.000  C
  C13      1.0000 0.25930  0.83600  0.38500  Biso   1.000  C
  C14      1.0000 0.21980  0.96540  0.64110  Biso   1.000  C
  C15      1.0000 0.27990  0.75970  0.26590  Biso   1.000  C
  C16      1.0000 0.26810  0.75820  0.34690  Biso   1.000  C
  C17      1.0000 0.44400  0.51730  0.37640  Biso   1.000  C
  C18      1.0000 0.26380  0.73980  0.88120  Biso   1.000  C
  C19      1.0000 0.40300  0.59330  0.39200  Biso   1.000  C
  C20      1.0000 0.27540  0.74100  0.62290  Biso   1.000  C
  C21      1.0000 0.11870  0.94050  0.61860  Biso   1.000  C
  C22      1.0000 0.07340  0.90750  0.53990  Biso   1.000  C
  C23      1.0000 0.98230  0.88570  0.52230  Biso   1.000  C
  C24      1.0000 0.06710  0.94740  0.67620  Biso   1.000  C
  C25      1.0000 0.55810  0.64360  0.45330  Biso   1.000  C
  C26      1.0000 0.97530  0.92350  0.65430  Biso   1.000  C
  C27      1.0000 0.53790  0.50810  0.40050  Biso   1.000  C
  C28      1.0000 0.46310  0.65540  0.43250  Biso   1.000  C
  C29      1.0000 0.21930  0.33650  0.27670  Biso   1.000  C
  C30      1.0000 0.23860  0.41410  0.15540  Biso   1.000  C
  C31      1.0000 0.21110  0.33420  0.36670  Biso   1.000  C
  C32      1.0000 0.24940  0.49690  0.11250  Biso   1.000  C
  C33      1.0000 0.23030  0.16440  0.83690  Biso   1.000  C
  C34      1.0000 0.22660  0.41400  0.23730  Biso   1.000  C
  C35      1.0000 0.23770  0.08120  0.88530  Biso   1.000  C
  C36      1.0000 0.23230  0.16360  0.75260  Biso   1.000  C
  C37      1.0000 0.20180  0.10200  0.13510  Biso   1.000  C
  C38      1.0000 0.23010  0.23960  0.70900  Biso   1.000  C
  C39      1.0000 0.22110  0.31980  0.83380  Biso   1.000  C
  C40      1.0000 0.22640  0.31740  0.74910  Biso   1.000  C
  C41      1.0000 0.24070  0.33600  0.11500  Biso   1.000  C
  C42      1.0000 0.28020  0.46540  0.85890  Biso   1.000  C
  C43      1.0000 0.22010  0.25970  0.23410  Biso   1.000  C
  C44      1.0000 0.23190  0.25820  0.15310  Biso   1.000  C
  C45      1.0000 0.05600  0.01730  0.12360  Biso   1.000  C
  C46      1.0000 0.23620  0.23980  0.61880  Biso   1.000  C
  C47      1.0000 0.09700  0.09330  0.10800  Biso   1.000  C
  C48      1.0000 0.22460  0.24100  0.87710  Biso   1.000  C
  C49      1.0000 0.38130  0.44050  0.88140  Biso   1.000  C
  C50      1.0000 0.42660  0.40750  0.96010  Biso   1.000  C
  C51      1.0000 0.51770  0.38570  0.97770  Biso   1.000  C
  C52      1.0000 0.43290  0.44740  0.82380  Biso   1.000  C
  C53      1.0000 0.94190  0.14360  0.04670  Biso   1.000  C
  C54      1.0000 0.52470  0.42350  0.84570  Biso   1.000  C
  C55      1.0000 0.96210  0.00810  0.09950  Biso   1.000  C
  C56      1.0000 0.03690  0.15540  0.06750  Biso   1.000  C
  C57      1.0000 0.71930  0.16350  0.77670  Biso   1.000  C
  C58      1.0000 0.73860  0.08590  0.65540  Biso   1.000  C
  C59      1.0000 0.71110  0.16580  0.86670  Biso   1.000  C
  C60      1.0000 0.74940  0.00310  0.61250  Biso   1.000  C
  C61      1.0000 0.73030  0.33560  0.33690  Biso   1.000  C
  C62      1.0000 0.72660  0.08600  0.73730  Biso   1.000  C
  C63      1.0000 0.73770  0.41880  0.38530  Biso   1.000  C
  C64      1.0000 0.73230  0.33640  0.25260  Biso   1.000  C
  C65      1.0000 0.70180  0.39800  0.63510  Biso   1.000  C
  C66      1.0000 0.73010  0.26040  0.20900  Biso   1.000  C
  C67      1.0000 0.72110  0.18020  0.33380  Biso   1.000  C
  C68      1.0000 0.72640  0.18260  0.24910  Biso   1.000  C
  C69      1.0000 0.74070  0.16400  0.61500  Biso   1.000  C
  C70      1.0000 0.78020  0.03460  0.35890  Biso   1.000  C
  C71      1.0000 0.72010  0.24030  0.73410  Biso   1.000  C
  C72      1.0000 0.73190  0.24180  0.65310  Biso   1.000  C
  C73      1.0000 0.55600  0.48270  0.62360  Biso   1.000  C
  C74      1.0000 0.73620  0.26020  0.11880  Biso   1.000  C
  C75      1.0000 0.59700  0.40670  0.60800  Biso   1.000  C
  C76      1.0000 0.72460  0.25900  0.37710  Biso   1.000  C
  C77      1.0000 0.88130  0.05950  0.38140  Biso   1.000  C
  C78      1.0000 0.92660  0.09250  0.46010  Biso   1.000  C
  C79      1.0000 0.01770  0.11430  0.47770  Biso   1.000  C
  C80      1.0000 0.93290  0.05260  0.32380  Biso   1.000  C
  C81      1.0000 0.44190  0.35640  0.54670  Biso   1.000  C
  C82      1.0000 0.02470  0.07650  0.34570  Biso   1.000  C
  C83      1.0000 0.46210  0.49190  0.59950  Biso   1.000  C
  C84      1.0000 0.53690  0.34460  0.56750  Biso   1.000  C
  C85      1.0000 0.78070  0.66350  0.72330  Biso   1.000  C
  C86      1.0000 0.76140  0.58590  0.84460  Biso   1.000  C
  C87      1.0000 0.78890  0.66580  0.63330  Biso   1.000  C
  C88      1.0000 0.75060  0.50310  0.88750  Biso   1.000  C
  C89      1.0000 0.76970  0.83560  0.16310  Biso   1.000  C
  C90      1.0000 0.77340  0.58600  0.76270  Biso   1.000  C
  C91      1.0000 0.76230  0.91880  0.11470  Biso   1.000  C
  C92      1.0000 0.76770  0.83640  0.24740  Biso   1.000  C
  C93      1.0000 0.79820  0.89800  0.86490  Biso   1.000  C
  C94      1.0000 0.76990  0.76040  0.29100  Biso   1.000  C
  C95      1.0000 0.77890  0.68020  0.16620  Biso   1.000  C
  C96      1.0000 0.77360  0.68260  0.25090  Biso   1.000  C
  C97      1.0000 0.75930  0.66400  0.88500  Biso   1.000  C
  C98      1.0000 0.71980  0.53460  0.14110  Biso   1.000  C
  C99      1.0000 0.77990  0.74030  0.76590  Biso   1.000  C
  C100     1.0000 0.76810  0.74180  0.84690  Biso   1.000  C
  C101     1.0000 0.94400  0.98270  0.87640  Biso   1.000  C
  C102     1.0000 0.76380  0.76020  0.38120  Biso   1.000  C
  C103     1.0000 0.90300  0.90670  0.89200  Biso   1.000  C
  C104     1.0000 0.77540  0.75900  0.12290  Biso   1.000  C
  C105     1.0000 0.61870  0.55950  0.11860  Biso   1.000  C
  C106     1.0000 0.57340  0.59250  0.03990  Biso   1.000  C
  C107     1.0000 0.48230  0.61430  0.02230  Biso   1.000  C
  C108     1.0000 0.56710  0.55260  0.17620  Biso   1.000  C
  C109     1.0000 0.05810  0.85640  0.95330  Biso   1.000  C
  C110     1.0000 0.47530  0.57650  0.15430  Biso   1.000  C
  C111     1.0000 0.03790  0.99190  0.90050  Biso   1.000  C
  C112     1.0000 0.96310  0.84460  0.93250  Biso   1.000  C
  N1       1.0000 0.92880  0.89160  0.57640  Biso   1.000  N
  N2       1.0000 0.28230  0.89700  0.62550  Biso   1.000  N
  N3       1.0000 0.26280  0.68200  0.38810  Biso   1.000  N
  N4       1.0000 0.59760  0.57040  0.43800  Biso   1.000  N
  N5       1.0000 0.57120  0.39160  0.92360  Biso   1.000  N
  N6       1.0000 0.21770  0.39700  0.87450  Biso   1.000  N
  N7       1.0000 0.23720  0.18200  0.11190  Biso   1.000  N
  N8       1.0000 0.90240  0.07040  0.06200  Biso   1.000  N
  N9       1.0000 0.07120  0.10840  0.42360  Biso   1.000  N
  N10      1.0000 0.71770  0.10300  0.37450  Biso   1.000  N
  N11      1.0000 0.73720  0.31800  0.61190  Biso   1.000  N
  N12      1.0000 0.40240  0.42960  0.56200  Biso   1.000  N
  N13      1.0000 0.42880  0.60840  0.07640  Biso   1.000  N
  N14      1.0000 0.78230  0.60300  0.12550  Biso   1.000  N
  N15      1.0000 0.76280  0.81800  0.88810  Biso   1.000  N
  N16      1.0000 0.09760  0.92960  0.93800  Biso   1.000  N
  O1       1.0000 0.23710  0.06510  0.34570  Biso   1.000  O
  O2       1.0000 0.26210  0.51100  0.65360  Biso   1.000  O
  O3       1.0000 0.25590  0.58250  0.53670  Biso   1.000  O
  O4       1.0000 0.27470  0.66950  0.91880  Biso   1.000  O
  O5       1.0000 0.25460  0.99640  0.46490  Biso   1.000  O
  O6       1.0000 0.27760  0.90480  0.09320  Biso   1.000  O
  O7       1.0000 0.30680  0.76460  0.10520  Biso   1.000  O
  O8       1.0000 0.24500  0.80780  0.91020  Biso   1.000  O
  O9       1.0000 0.12250  0.66160  0.01730  Biso   1.000  O
  O10      1.0000 0.40080  0.94180  0.97080  Biso   1.000  O
  O11      1.0000 0.26290  0.56510  0.15430  Biso   1.000  O
  O12      1.0000 0.23790  0.01100  0.84640  Biso   1.000  O
  O13      1.0000 0.24410  0.08250  0.96330  Biso   1.000  O
  O14      1.0000 0.22530  0.16950  0.58120  Biso   1.000  O
  O15      1.0000 0.24540  0.49640  0.03510  Biso   1.000  O
  O16      1.0000 0.22240  0.40480  0.40680  Biso   1.000  O
  O17      1.0000 0.19320  0.26460  0.39480  Biso   1.000  O
  O18      1.0000 0.25500  0.30780  0.58980  Biso   1.000  O
  O19      1.0000 0.37750  0.16160  0.48270  Biso   1.000  O
  O20      1.0000 0.09920  0.44180  0.52920  Biso   1.000  O
  O21      1.0000 0.76290  0.93490  0.65430  Biso   1.000  O
  O22      1.0000 0.73790  0.48900  0.34640  Biso   1.000  O
  O23      1.0000 0.74410  0.41750  0.46330  Biso   1.000  O
  O24      1.0000 0.72530  0.33050  0.08120  Biso   1.000  O
  O25      1.0000 0.74540  0.00360  0.53510  Biso   1.000  O
  O26      1.0000 0.72240  0.09520  0.90680  Biso   1.000  O
  O27      1.0000 0.69320  0.23540  0.89480  Biso   1.000  O
  O28      1.0000 0.75500  0.19220  0.08980  Biso   1.000  O
  O29      1.0000 0.87750  0.33840  0.98270  Biso   1.000  O
  O30      1.0000 0.59920  0.05820  0.02920  Biso   1.000  O
  O31      1.0000 0.73710  0.43490  0.84570  Biso   1.000  O
  O32      1.0000 0.76210  0.98900  0.15360  Biso   1.000  O
  O33      1.0000 0.75590  0.91750  0.03670  Biso   1.000  O
  O34      1.0000 0.77470  0.83050  0.41880  Biso   1.000  O
  O35      1.0000 0.75460  0.50360  0.96490  Biso   1.000  O
  O36      1.0000 0.77760  0.59520  0.59320  Biso   1.000  O
  O37      1.0000 0.80680  0.73540  0.60520  Biso   1.000  O
  O38      1.0000 0.74500  0.69220  0.41020  Biso   1.000  O
  O39      1.0000 0.62250  0.83840  0.51730  Biso   1.000  O
  O40      1.0000 0.90080  0.55820  0.47080  Biso   1.000  O
