data_image0
_cell_length_a       11.876
_cell_length_b       11.876
_cell_length_c       16.341
_cell_angle_alpha    73.3607
_cell_angle_beta     73.3607
_cell_angle_gamma    78.3813

_symmetry_space_group_name_H-M    P 1
_symmetry_int_tables_number       1

loop_
  _symmetry_equiv_pos_as_xyz
  'x, y, z'

loop_
  _atom_site_label
  _atom_site_occupancy
  _atom_site_fract_x
  _atom_site_fract_y
  _atom_site_fract_z
  _atom_site_thermal_displace_type
  _atom_site_B_iso_or_equiv
  _atom_site_type_symbol
  Mn1      1.0000 0.83244  0.61596  0.54676  Biso   1.000  Mn
  Mn2      1.0000 0.38404  0.16756  0.95324  Biso   1.000  Mn
  Mn3      1.0000 0.16756  0.38404  0.45324  Biso   1.000  Mn
  Mn4      1.0000 0.61596  0.83244  0.04676  Biso   1.000  Mn
  H1       1.0000 0.45300  0.16700  0.53700  Biso   1.000  H
  H2       1.0000 0.66280  0.81340  0.77340  Biso   1.000  H
  H3       1.0000 0.57330  0.98210  0.54700  Biso   1.000  H
  H4       1.0000 0.48670  0.14370  0.74470  Biso   1.000  H
  H5       1.0000 0.37800  0.26700  0.67260  Biso   1.000  H
  H6       1.0000 0.36120  0.32840  0.57760  Biso   1.000  H
  H7       1.0000 0.63350  0.29350  0.50180  Biso   1.000  H
  H8       1.0000 0.42300  0.45960  0.68040  Biso   1.000  H
  H9       1.0000 0.56350  0.57830  0.65180  Biso   1.000  H
  H10      1.0000 0.77520  0.41280  0.48410  Biso   1.000  H
  H11      1.0000 0.83300  0.54700  0.96300  Biso   1.000  H
  H12      1.0000 0.18660  0.33720  0.72660  Biso   1.000  H
  H13      1.0000 0.01790  0.42670  0.95300  Biso   1.000  H
  H14      1.0000 0.85630  0.51330  0.75530  Biso   1.000  H
  H15      1.0000 0.73300  0.62200  0.82740  Biso   1.000  H
  H16      1.0000 0.67160  0.63880  0.92240  Biso   1.000  H
  H17      1.0000 0.70650  0.36650  0.99820  Biso   1.000  H
  H18      1.0000 0.54040  0.57700  0.81960  Biso   1.000  H
  H19      1.0000 0.42170  0.43650  0.84820  Biso   1.000  H
  H20      1.0000 0.58720  0.22480  0.01590  Biso   1.000  H
  H21      1.0000 0.54700  0.83300  0.46300  Biso   1.000  H
  H22      1.0000 0.33720  0.18660  0.22660  Biso   1.000  H
  H23      1.0000 0.42670  0.01790  0.45300  Biso   1.000  H
  H24      1.0000 0.51330  0.85630  0.25530  Biso   1.000  H
  H25      1.0000 0.62200  0.73300  0.32740  Biso   1.000  H
  H26      1.0000 0.63880  0.67160  0.42240  Biso   1.000  H
  H27      1.0000 0.36650  0.70650  0.49820  Biso   1.000  H
  H28      1.0000 0.57700  0.54040  0.31960  Biso   1.000  H
  H29      1.0000 0.43650  0.42170  0.34820  Biso   1.000  H
  H30      1.0000 0.22480  0.58720  0.51590  Biso   1.000  H
  H31      1.0000 0.16700  0.45300  0.03700  Biso   1.000  H
  H32      1.0000 0.81340  0.66280  0.27340  Biso   1.000  H
  H33      1.0000 0.98210  0.57330  0.04700  Biso   1.000  H
  H34      1.0000 0.14370  0.48670  0.24470  Biso   1.000  H
  H35      1.0000 0.26700  0.37800  0.17260  Biso   1.000  H
  H36      1.0000 0.32840  0.36120  0.07760  Biso   1.000  H
  H37      1.0000 0.29350  0.63350  0.00180  Biso   1.000  H
  H38      1.0000 0.45960  0.42300  0.18040  Biso   1.000  H
  H39      1.0000 0.57830  0.56350  0.15180  Biso   1.000  H
  H40      1.0000 0.41280  0.77520  0.98410  Biso   1.000  H
  C1       1.0000 0.51760  0.07920  0.63740  Biso   1.000  C
  C2       1.0000 0.57290  0.97670  0.77450  Biso   1.000  C
  C3       1.0000 0.62550  0.88150  0.65460  Biso   1.000  C
  C4       1.0000 0.62630  0.87970  0.73960  Biso   1.000  C
  C5       1.0000 0.69000  0.77820  0.61640  Biso   1.000  C
  C6       1.0000 0.57240  0.98100  0.60440  Biso   1.000  C
  C7       1.0000 0.52020  0.07740  0.72230  Biso   1.000  C
  C8       1.0000 0.51350  0.35970  0.59580  Biso   1.000  C
  C9       1.0000 0.57270  0.97570  0.86640  Biso   1.000  C
  C10      1.0000 0.41870  0.28390  0.61060  Biso   1.000  C
  C11      1.0000 0.61810  0.34870  0.53540  Biso   1.000  C
  C12      1.0000 0.49440  0.44780  0.63970  Biso   1.000  C
  C13      1.0000 0.58040  0.51740  0.62300  Biso   1.000  C
  C14      1.0000 0.70310  0.42250  0.52470  Biso   1.000  C
  C15      1.0000 0.92080  0.48240  0.86260  Biso   1.000  C
  C16      1.0000 0.02330  0.42710  0.72550  Biso   1.000  C
  C17      1.0000 0.11850  0.37450  0.84540  Biso   1.000  C
  C18      1.0000 0.12030  0.37370  0.76040  Biso   1.000  C
  C19      1.0000 0.22180  0.31000  0.88360  Biso   1.000  C
  C20      1.0000 0.01900  0.42760  0.89560  Biso   1.000  C
  C21      1.0000 0.92260  0.47980  0.77770  Biso   1.000  C
  C22      1.0000 0.64030  0.48650  0.90420  Biso   1.000  C
  C23      1.0000 0.02430  0.42730  0.63360  Biso   1.000  C
  C24      1.0000 0.71610  0.58130  0.88940  Biso   1.000  C
  C25      1.0000 0.65130  0.38190  0.96460  Biso   1.000  C
  C26      1.0000 0.55220  0.50560  0.86030  Biso   1.000  C
  C27      1.0000 0.48260  0.41960  0.87700  Biso   1.000  C
  C28      1.0000 0.57750  0.29690  0.97530  Biso   1.000  C
  C29      1.0000 0.48240  0.92080  0.36260  Biso   1.000  C
  C30      1.0000 0.42710  0.02330  0.22550  Biso   1.000  C
  C31      1.0000 0.37450  0.11850  0.34540  Biso   1.000  C
  C32      1.0000 0.37370  0.12030  0.26040  Biso   1.000  C
  C33      1.0000 0.31000  0.22180  0.38360  Biso   1.000  C
  C34      1.0000 0.42760  0.01900  0.39560  Biso   1.000  C
  C35      1.0000 0.47980  0.92260  0.27770  Biso   1.000  C
  C36      1.0000 0.48650  0.64030  0.40420  Biso   1.000  C
  C37      1.0000 0.42730  0.02430  0.13360  Biso   1.000  C
  C38      1.0000 0.58130  0.71610  0.38940  Biso   1.000  C
  C39      1.0000 0.38190  0.65130  0.46460  Biso   1.000  C
  C40      1.0000 0.50560  0.55220  0.36030  Biso   1.000  C
  C41      1.0000 0.41960  0.48260  0.37700  Biso   1.000  C
  C42      1.0000 0.29690  0.57750  0.47530  Biso   1.000  C
  C43      1.0000 0.07920  0.51760  0.13740  Biso   1.000  C
  C44      1.0000 0.97670  0.57290  0.27450  Biso   1.000  C
  C45      1.0000 0.88150  0.62550  0.15460  Biso   1.000  C
  C46      1.0000 0.87970  0.62630  0.23960  Biso   1.000  C
  C47      1.0000 0.77820  0.69000  0.11640  Biso   1.000  C
  C48      1.0000 0.98100  0.57240  0.10440  Biso   1.000  C
  C49      1.0000 0.07740  0.52020  0.22230  Biso   1.000  C
  C50      1.0000 0.35970  0.51350  0.09580  Biso   1.000  C
  C51      1.0000 0.97570  0.57270  0.36640  Biso   1.000  C
  C52      1.0000 0.28390  0.41870  0.11060  Biso   1.000  C
  C53      1.0000 0.34870  0.61810  0.03540  Biso   1.000  C
  C54      1.0000 0.44780  0.49440  0.13970  Biso   1.000  C
  C55      1.0000 0.51740  0.58040  0.12300  Biso   1.000  C
  C56      1.0000 0.42250  0.70310  0.02470  Biso   1.000  C
  N1       1.0000 0.46200  0.17400  0.58560  Biso   1.000  N
  N2       1.0000 0.68720  0.50460  0.56830  Biso   1.000  N
  N3       1.0000 0.82600  0.53800  0.91440  Biso   1.000  N
  N4       1.0000 0.49540  0.31280  0.93170  Biso   1.000  N
  N5       1.0000 0.53800  0.82600  0.41440  Biso   1.000  N
  N6       1.0000 0.31280  0.49540  0.43170  Biso   1.000  N
  N7       1.0000 0.17400  0.46200  0.08560  Biso   1.000  N
  N8       1.0000 0.50460  0.68720  0.06830  Biso   1.000  N
  O1       1.0000 0.73690  0.68930  0.66420  Biso   1.000  O
  O2       1.0000 0.69620  0.78520  0.53650  Biso   1.000  O
  O3       1.0000 0.53630  0.07010  0.89170  Biso   1.000  O
  O4       1.0000 0.61460  0.87980  0.91190  Biso   1.000  O
  O5       1.0000 0.96830  0.72750  0.52650  Biso   1.000  O
  O6       1.0000 0.31070  0.26310  0.83580  Biso   1.000  O
  O7       1.0000 0.21480  0.30380  0.96350  Biso   1.000  O
  O8       1.0000 0.92990  0.46370  0.60830  Biso   1.000  O
  O9       1.0000 0.12020  0.38540  0.58810  Biso   1.000  O
  O10      1.0000 0.27250  0.03170  0.97350  Biso   1.000  O
  O11      1.0000 0.26310  0.31070  0.33580  Biso   1.000  O
  O12      1.0000 0.30380  0.21480  0.46350  Biso   1.000  O
  O13      1.0000 0.46370  0.92990  0.10830  Biso   1.000  O
  O14      1.0000 0.38540  0.12020  0.08810  Biso   1.000  O
  O15      1.0000 0.03170  0.27250  0.47350  Biso   1.000  O
  O16      1.0000 0.68930  0.73690  0.16420  Biso   1.000  O
  O17      1.0000 0.78520  0.69620  0.03650  Biso   1.000  O
  O18      1.0000 0.07010  0.53630  0.39170  Biso   1.000  O
  O19      1.0000 0.87980  0.61460  0.41190  Biso   1.000  O
  O20      1.0000 0.72750  0.96830  0.02650  Biso   1.000  O
