data_image0
_cell_length_a       11.8326
_cell_length_b       11.8326
_cell_length_c       16.444
_cell_angle_alpha    73.1583
_cell_angle_beta     73.1583
_cell_angle_gamma    78.8684

_symmetry_space_group_name_H-M    P 1
_symmetry_int_tables_number       1

loop_
  _symmetry_equiv_pos_as_xyz
  'x, y, z'

loop_
  _atom_site_label
  _atom_site_occupancy
  _atom_site_fract_x
  _atom_site_fract_y
  _atom_site_fract_z
  _atom_site_thermal_displace_type
  _atom_site_B_iso_or_equiv
  _atom_site_type_symbol
  Mn1      1.0000 0.83611  0.61985  0.04414  Biso   1.000  Mn
  Mn2      1.0000 0.38015  0.16389  0.45586  Biso   1.000  Mn
  Mn3      1.0000 0.16389  0.38015  0.95586  Biso   1.000  Mn
  Mn4      1.0000 0.61985  0.83611  0.54414  Biso   1.000  Mn
  H1       1.0000 0.66450  0.81350  0.27310  Biso   1.000  H
  H2       1.0000 0.45190  0.16650  0.03820  Biso   1.000  H
  H3       1.0000 0.57230  0.98130  0.04780  Biso   1.000  H
  H4       1.0000 0.37420  0.26780  0.17250  Biso   1.000  H
  H5       1.0000 0.36170  0.32990  0.07700  Biso   1.000  H
  H6       1.0000 0.48460  0.14000  0.24720  Biso   1.000  H
  H7       1.0000 0.63900  0.28860  0.00980  Biso   1.000  H
  H8       1.0000 0.42180  0.46320  0.17730  Biso   1.000  H
  H9       1.0000 0.77460  0.41600  0.98420  Biso   1.000  H
  H10      1.0000 0.56490  0.58330  0.14920  Biso   1.000  H
  H11      1.0000 0.02100  0.76700  0.96800  Biso   1.000  H
  H12      1.0000 0.90700  0.79300  0.03300  Biso   1.000  H
  H13      1.0000 0.18650  0.33550  0.22690  Biso   1.000  H
  H14      1.0000 0.83350  0.54810  0.46180  Biso   1.000  H
  H15      1.0000 0.01870  0.42770  0.45220  Biso   1.000  H
  H16      1.0000 0.73220  0.62580  0.32750  Biso   1.000  H
  H17      1.0000 0.67010  0.63830  0.42300  Biso   1.000  H
  H18      1.0000 0.86000  0.51540  0.25280  Biso   1.000  H
  H19      1.0000 0.71140  0.36100  0.49020  Biso   1.000  H
  H20      1.0000 0.53680  0.57820  0.32270  Biso   1.000  H
  H21      1.0000 0.58400  0.22540  0.51580  Biso   1.000  H
  H22      1.0000 0.41670  0.43510  0.35080  Biso   1.000  H
  H23      1.0000 0.23300  0.97900  0.53200  Biso   1.000  H
  H24      1.0000 0.20700  0.09300  0.46700  Biso   1.000  H
  H25      1.0000 0.33550  0.18650  0.72690  Biso   1.000  H
  H26      1.0000 0.54810  0.83350  0.96180  Biso   1.000  H
  H27      1.0000 0.42770  0.01870  0.95220  Biso   1.000  H
  H28      1.0000 0.62580  0.73220  0.82750  Biso   1.000  H
  H29      1.0000 0.63830  0.67010  0.92300  Biso   1.000  H
  H30      1.0000 0.51540  0.86000  0.75280  Biso   1.000  H
  H31      1.0000 0.36100  0.71140  0.99020  Biso   1.000  H
  H32      1.0000 0.57820  0.53680  0.82270  Biso   1.000  H
  H33      1.0000 0.22540  0.58400  0.01580  Biso   1.000  H
  H34      1.0000 0.43510  0.41670  0.85080  Biso   1.000  H
  H35      1.0000 0.97900  0.23300  0.03200  Biso   1.000  H
  H36      1.0000 0.09300  0.20700  0.96700  Biso   1.000  H
  H37      1.0000 0.81350  0.66450  0.77310  Biso   1.000  H
  H38      1.0000 0.16650  0.45190  0.53820  Biso   1.000  H
  H39      1.0000 0.98130  0.57230  0.54780  Biso   1.000  H
  H40      1.0000 0.26780  0.37420  0.67250  Biso   1.000  H
  H41      1.0000 0.32990  0.36170  0.57700  Biso   1.000  H
  H42      1.0000 0.14000  0.48460  0.74720  Biso   1.000  H
  H43      1.0000 0.28860  0.63900  0.50980  Biso   1.000  H
  H44      1.0000 0.46320  0.42180  0.67730  Biso   1.000  H
  H45      1.0000 0.41600  0.77460  0.48420  Biso   1.000  H
  H46      1.0000 0.58330  0.56490  0.64920  Biso   1.000  H
  H47      1.0000 0.76700  0.02100  0.46800  Biso   1.000  H
  H48      1.0000 0.79300  0.90700  0.53300  Biso   1.000  H
  C1       1.0000 0.57070  0.97370  0.27460  Biso   1.000  C
  C2       1.0000 0.51570  0.07770  0.13820  Biso   1.000  C
  C3       1.0000 0.62880  0.88260  0.15340  Biso   1.000  C
  C4       1.0000 0.62720  0.87940  0.23960  Biso   1.000  C
  C5       1.0000 0.56970  0.97270  0.36670  Biso   1.000  C
  C6       1.0000 0.69350  0.78270  0.11460  Biso   1.000  C
  C7       1.0000 0.51300  0.35980  0.09830  Biso   1.000  C
  C8       1.0000 0.57240  0.98040  0.10450  Biso   1.000  C
  C9       1.0000 0.41740  0.28460  0.11120  Biso   1.000  C
  C10      1.0000 0.51820  0.07460  0.22420  Biso   1.000  C
  C11      1.0000 0.62120  0.34760  0.04010  Biso   1.000  C
  C12      1.0000 0.49450  0.44950  0.13830  Biso   1.000  C
  C13      1.0000 0.70380  0.42340  0.02660  Biso   1.000  C
  C14      1.0000 0.58260  0.52120  0.12190  Biso   1.000  C
  C15      1.0000 0.02630  0.42930  0.22540  Biso   1.000  C
  C16      1.0000 0.92230  0.48430  0.36180  Biso   1.000  C
  C17      1.0000 0.11740  0.37120  0.34660  Biso   1.000  C
  C18      1.0000 0.12060  0.37280  0.26040  Biso   1.000  C
  C19      1.0000 0.02730  0.43030  0.13330  Biso   1.000  C
  C20      1.0000 0.21730  0.30650  0.38540  Biso   1.000  C
  C21      1.0000 0.64020  0.48700  0.40170  Biso   1.000  C
  C22      1.0000 0.01960  0.42760  0.39550  Biso   1.000  C
  C23      1.0000 0.71540  0.58260  0.38880  Biso   1.000  C
  C24      1.0000 0.92540  0.48180  0.27580  Biso   1.000  C
  C25      1.0000 0.65240  0.37880  0.45990  Biso   1.000  C
  C26      1.0000 0.55050  0.50550  0.36170  Biso   1.000  C
  C27      1.0000 0.57660  0.29620  0.47340  Biso   1.000  C
  C28      1.0000 0.47880  0.41740  0.37810  Biso   1.000  C
  C29      1.0000 0.42930  0.02630  0.72540  Biso   1.000  C
  C30      1.0000 0.48430  0.92230  0.86180  Biso   1.000  C
  C31      1.0000 0.37120  0.11740  0.84660  Biso   1.000  C
  C32      1.0000 0.37280  0.12060  0.76040  Biso   1.000  C
  C33      1.0000 0.43030  0.02730  0.63330  Biso   1.000  C
  C34      1.0000 0.30650  0.21730  0.88540  Biso   1.000  C
  C35      1.0000 0.48700  0.64020  0.90170  Biso   1.000  C
  C36      1.0000 0.42760  0.01960  0.89550  Biso   1.000  C
  C37      1.0000 0.58260  0.71540  0.88880  Biso   1.000  C
  C38      1.0000 0.48180  0.92540  0.77580  Biso   1.000  C
  C39      1.0000 0.37880  0.65240  0.95990  Biso   1.000  C
  C40      1.0000 0.50550  0.55050  0.86170  Biso   1.000  C
  C41      1.0000 0.29620  0.57660  0.97340  Biso   1.000  C
  C42      1.0000 0.41740  0.47880  0.87810  Biso   1.000  C
  C43      1.0000 0.97370  0.57070  0.77460  Biso   1.000  C
  C44      1.0000 0.07770  0.51570  0.63820  Biso   1.000  C
  C45      1.0000 0.88260  0.62880  0.65340  Biso   1.000  C
  C46      1.0000 0.87940  0.62720  0.73960  Biso   1.000  C
  C47      1.0000 0.97270  0.56970  0.86670  Biso   1.000  C
  C48      1.0000 0.78270  0.69350  0.61460  Biso   1.000  C
  C49      1.0000 0.35980  0.51300  0.59830  Biso   1.000  C
  C50      1.0000 0.98040  0.57240  0.60450  Biso   1.000  C
  C51      1.0000 0.28460  0.41740  0.61120  Biso   1.000  C
  C52      1.0000 0.07460  0.51820  0.72420  Biso   1.000  C
  C53      1.0000 0.34760  0.62120  0.54010  Biso   1.000  C
  C54      1.0000 0.44950  0.49450  0.63830  Biso   1.000  C
  C55      1.0000 0.42340  0.70380  0.52660  Biso   1.000  C
  C56      1.0000 0.52120  0.58260  0.62190  Biso   1.000  C
  N1       1.0000 0.68870  0.50690  0.07050  Biso   1.000  N
  N2       1.0000 0.46070  0.17330  0.08660  Biso   1.000  N
  N3       1.0000 0.49310  0.31130  0.42950  Biso   1.000  N
  N4       1.0000 0.82670  0.53930  0.41340  Biso   1.000  N
  N5       1.0000 0.31130  0.49310  0.92950  Biso   1.000  N
  N6       1.0000 0.53930  0.82670  0.91340  Biso   1.000  N
  N7       1.0000 0.50690  0.68870  0.57050  Biso   1.000  N
  N8       1.0000 0.17330  0.46070  0.58660  Biso   1.000  N
  O1       1.0000 0.74430  0.69290  0.16070  Biso   1.000  O
  O2       1.0000 0.69950  0.78810  0.03510  Biso   1.000  O
  O3       1.0000 0.61570  0.87770  0.41090  Biso   1.000  O
  O4       1.0000 0.52910  0.06470  0.39290  Biso   1.000  O
  O5       1.0000 0.97160  0.73520  0.02010  Biso   1.000  O
  O6       1.0000 0.30710  0.25570  0.33930  Biso   1.000  O
  O7       1.0000 0.21190  0.30050  0.46490  Biso   1.000  O
  O8       1.0000 0.12230  0.38430  0.08910  Biso   1.000  O
  O9       1.0000 0.93530  0.47090  0.10710  Biso   1.000  O
  O10      1.0000 0.26480  0.02840  0.47990  Biso   1.000  O
  O11      1.0000 0.25570  0.30710  0.83930  Biso   1.000  O
  O12      1.0000 0.30050  0.21190  0.96490  Biso   1.000  O
  O13      1.0000 0.38430  0.12230  0.58910  Biso   1.000  O
  O14      1.0000 0.47090  0.93530  0.60710  Biso   1.000  O
  O15      1.0000 0.02840  0.26480  0.97990  Biso   1.000  O
  O16      1.0000 0.69290  0.74430  0.66070  Biso   1.000  O
  O17      1.0000 0.78810  0.69950  0.53510  Biso   1.000  O
  O18      1.0000 0.87770  0.61570  0.91090  Biso   1.000  O
  O19      1.0000 0.06470  0.52910  0.89290  Biso   1.000  O
  O20      1.0000 0.73520  0.97160  0.52010  Biso   1.000  O
