data_image0
_cell_length_a       7.028
_cell_length_b       7.01
_cell_length_c       6.725
_cell_angle_alpha    90
_cell_angle_beta     90
_cell_angle_gamma    90

_symmetry_space_group_name_H-M    "P 1"
_symmetry_int_tables_number       1

loop_
  _symmetry_equiv_pos_as_xyz
  'x, y, z'

loop_
  _atom_site_label
  _atom_site_occupancy
  _atom_site_fract_x
  _atom_site_fract_y
  _atom_site_fract_z
  _atom_site_thermal_displace_type
  _atom_site_B_iso_or_equiv
  _atom_site_type_symbol
  Ni1      1.0000 0.50000  0.50000  0.00000  Biso   1.000  Ni
  Fe1      1.0000 0.00000  0.00000  0.00000  Biso   1.000  Fe
  N1       1.0000 0.80490  0.19690  0.00000  Biso   1.000  N
  C1       1.0000 0.68650  0.31040  0.00000  Biso   1.000  C
  N2       1.0000 0.19510  0.80310  0.00000  Biso   1.000  N
  C2       1.0000 0.31350  0.68960  0.00000  Biso   1.000  C
  N3       1.0000 0.19510  0.19690  0.00000  Biso   1.000  N
  C3       1.0000 0.31350  0.31040  0.00000  Biso   1.000  C
  N4       1.0000 0.80490  0.80310  0.00000  Biso   1.000  N
  C4       1.0000 0.68650  0.68960  0.00000  Biso   1.000  C
  N5       1.0000 0.00000  0.00000  0.70690  Biso   1.000  N
  N6       1.0000 0.00000  0.00000  0.29310  Biso   1.000  N
  C5       1.0000 0.00000  0.16360  0.60220  Biso   1.000  C
  H1       1.0000 0.00000  0.28180  0.67110  Biso   1.000  H
  C6       1.0000 0.00000  0.83640  0.60220  Biso   1.000  C
  H2       1.0000 0.00000  0.71820  0.67110  Biso   1.000  H
  C7       1.0000 0.00000  0.16360  0.39780  Biso   1.000  C
  H3       1.0000 0.00000  0.28180  0.32890  Biso   1.000  H
  C8       1.0000 0.00000  0.83640  0.39780  Biso   1.000  C
  H4       1.0000 0.00000  0.71820  0.32890  Biso   1.000  H
