data_image0
_cell_length_a       7.2421
_cell_length_b       7.2666
_cell_length_c       7.2696
_cell_angle_alpha    90
_cell_angle_beta     90
_cell_angle_gamma    90

_symmetry_space_group_name_H-M    P 1
_symmetry_int_tables_number       1

loop_
  _symmetry_equiv_pos_as_xyz
  'x, y, z'

loop_
  _atom_site_label
  _atom_site_occupancy
  _atom_site_fract_x
  _atom_site_fract_y
  _atom_site_fract_z
  _atom_site_thermal_displace_type
  _atom_site_B_iso_or_equiv
  _atom_site_type_symbol
  Fe1      1.0000 0.00000  0.00000  0.00000  Biso   1.000  Fe
  Ni1      1.0000 0.00000  0.50000  0.50000  Biso   1.000  Ni
  H1       1.0000 0.65940  0.00000  0.73390  Biso   1.000  H
  H2       1.0000 0.65940  0.00000  0.26610  Biso   1.000  H
  H3       1.0000 0.34060  0.00000  0.73390  Biso   1.000  H
  H4       1.0000 0.34060  0.00000  0.26610  Biso   1.000  H
  C1       1.0000 0.00000  0.67570  0.68800  Biso   1.000  C
  C2       1.0000 0.00000  0.32430  0.31200  Biso   1.000  C
  C3       1.0000 0.00000  0.32430  0.68800  Biso   1.000  C
  C4       1.0000 0.00000  0.67570  0.31200  Biso   1.000  C
  C5       1.0000 0.59690  0.00000  0.84560  Biso   1.000  C
  C6       1.0000 0.59690  0.00000  0.15440  Biso   1.000  C
  C7       1.0000 0.40310  0.00000  0.84560  Biso   1.000  C
  C8       1.0000 0.40310  0.00000  0.15440  Biso   1.000  C
  N1       1.0000 0.00000  0.79490  0.79120  Biso   1.000  N
  N2       1.0000 0.00000  0.20510  0.20880  Biso   1.000  N
  N3       1.0000 0.00000  0.20510  0.79120  Biso   1.000  N
  N4       1.0000 0.00000  0.79490  0.20880  Biso   1.000  N
  N5       1.0000 0.69270  0.00000  0.00000  Biso   1.000  N
  N6       1.0000 0.30730  0.00000  0.00000  Biso   1.000  N
