data_image0
_cell_length_a       9.54
_cell_length_b       19.812
_cell_length_c       11.151
_cell_angle_alpha    90
_cell_angle_beta     113.684
_cell_angle_gamma    90

_symmetry_space_group_name_H-M    "P 1"
_symmetry_int_tables_number       1

loop_
  _symmetry_equiv_pos_as_xyz
  'x, y, z'

loop_
  _atom_site_label
  _atom_site_occupancy
  _atom_site_fract_x
  _atom_site_fract_y
  _atom_site_fract_z
  _atom_site_thermal_displace_type
  _atom_site_B_iso_or_equiv
  _atom_site_type_symbol
  O1       1.0000 0.65490  0.92740  0.00600  Biso   1.000  O
  O2       1.0000 0.74070  0.89090  0.20950  Biso   1.000  O
  O3       1.0000 0.04970  0.74950  0.33110  Biso   1.000  O
  O4       1.0000 0.06140  0.84690  0.23690  Biso   1.000  O
  H1       1.0000 0.85340  0.47160  0.76150  Biso   1.000  H
  O5       1.0000 0.15490  0.68480  0.59000  Biso   1.000  O
  H2       1.0000 0.06730  0.69760  0.59430  Biso   1.000  H
  H3       1.0000 0.20990  0.66930  0.66790  Biso   1.000  H
  O6       1.0000 0.16470  0.83350  0.55530  Biso   1.000  O
  H4       1.0000 0.16600  0.87240  0.52270  Biso   1.000  H
  H5       1.0000 0.17400  0.83820  0.63530  Biso   1.000  H
  C1       1.0000 0.63440  0.79200  0.92730  Biso   1.000  C
  H6       1.0000 0.55580  0.82090  0.87760  Biso   1.000  H
  C2       1.0000 0.74370  0.81610  0.04800  Biso   1.000  C
  C3       1.0000 0.86320  0.77130  0.12100  Biso   1.000  C
  C4       1.0000 0.71380  0.88340  0.09160  Biso   1.000  C
  C5       1.0000 0.00200  0.79220  0.23680  Biso   1.000  C
  O7       1.0000 0.15490  0.42740  0.00600  Biso   1.000  O
  O8       1.0000 0.24070  0.39090  0.20950  Biso   1.000  O
  O9       1.0000 0.54970  0.24950  0.33110  Biso   1.000  O
  O10      1.0000 0.56140  0.34690  0.23690  Biso   1.000  O
  H7       1.0000 0.35340  0.97160  0.76150  Biso   1.000  H
  O11      1.0000 0.65490  0.18480  0.59000  Biso   1.000  O
  H8       1.0000 0.56730  0.19760  0.59430  Biso   1.000  H
  H9       1.0000 0.70990  0.16930  0.66790  Biso   1.000  H
  O12      1.0000 0.66470  0.33350  0.55530  Biso   1.000  O
  H10      1.0000 0.66600  0.37240  0.52270  Biso   1.000  H
  H11      1.0000 0.67400  0.33820  0.63530  Biso   1.000  H
  C6       1.0000 0.13440  0.29200  0.92730  Biso   1.000  C
  H12      1.0000 0.05580  0.32090  0.87760  Biso   1.000  H
  C7       1.0000 0.24370  0.31610  0.04800  Biso   1.000  C
  C8       1.0000 0.36320  0.27130  0.12100  Biso   1.000  C
  C9       1.0000 0.21380  0.38340  0.09160  Biso   1.000  C
  C10      1.0000 0.50200  0.29220  0.23680  Biso   1.000  C
  O13      1.0000 0.34510  0.92740  0.99400  Biso   1.000  O
  O14      1.0000 0.25930  0.89090  0.79050  Biso   1.000  O
  O15      1.0000 0.95030  0.74950  0.66890  Biso   1.000  O
  O16      1.0000 0.93860  0.84690  0.76310  Biso   1.000  O
  H13      1.0000 0.14660  0.47160  0.23850  Biso   1.000  H
  O17      1.0000 0.84510  0.68480  0.41000  Biso   1.000  O
  H14      1.0000 0.93270  0.69760  0.40570  Biso   1.000  H
  H15      1.0000 0.79010  0.66930  0.33210  Biso   1.000  H
  O18      1.0000 0.83530  0.83350  0.44470  Biso   1.000  O
  H16      1.0000 0.83400  0.87240  0.47730  Biso   1.000  H
  H17      1.0000 0.82600  0.83820  0.36470  Biso   1.000  H
  C11      1.0000 0.36560  0.79200  0.07270  Biso   1.000  C
  H18      1.0000 0.44420  0.82090  0.12240  Biso   1.000  H
  C12      1.0000 0.25630  0.81610  0.95200  Biso   1.000  C
  C13      1.0000 0.13680  0.77130  0.87900  Biso   1.000  C
  C14      1.0000 0.28620  0.88340  0.90840  Biso   1.000  C
  C15      1.0000 0.99800  0.79220  0.76320  Biso   1.000  C
  O19      1.0000 0.84510  0.42740  0.99400  Biso   1.000  O
  O20      1.0000 0.75930  0.39090  0.79050  Biso   1.000  O
  O21      1.0000 0.45030  0.24950  0.66890  Biso   1.000  O
  O22      1.0000 0.43860  0.34690  0.76310  Biso   1.000  O
  H19      1.0000 0.64660  0.97160  0.23850  Biso   1.000  H
  O23      1.0000 0.34510  0.18480  0.41000  Biso   1.000  O
  H20      1.0000 0.43270  0.19760  0.40570  Biso   1.000  H
  H21      1.0000 0.29010  0.16930  0.33210  Biso   1.000  H
  O24      1.0000 0.33530  0.33350  0.44470  Biso   1.000  O
  H22      1.0000 0.33400  0.37240  0.47730  Biso   1.000  H
  H23      1.0000 0.32600  0.33820  0.36470  Biso   1.000  H
  C16      1.0000 0.86560  0.29200  0.07270  Biso   1.000  C
  H24      1.0000 0.94420  0.32090  0.12240  Biso   1.000  H
  C17      1.0000 0.75630  0.31610  0.95200  Biso   1.000  C
  C18      1.0000 0.63680  0.27130  0.87900  Biso   1.000  C
  C19      1.0000 0.78620  0.38340  0.90840  Biso   1.000  C
  C20      1.0000 0.49800  0.29220  0.76320  Biso   1.000  C
  O25      1.0000 0.34510  0.07260  0.99400  Biso   1.000  O
  O26      1.0000 0.25930  0.10910  0.79050  Biso   1.000  O
  O27      1.0000 0.95030  0.25050  0.66890  Biso   1.000  O
  O28      1.0000 0.93860  0.15310  0.76310  Biso   1.000  O
  H25      1.0000 0.14660  0.52840  0.23850  Biso   1.000  H
  O29      1.0000 0.84510  0.31520  0.41000  Biso   1.000  O
  H26      1.0000 0.93270  0.30240  0.40570  Biso   1.000  H
  H27      1.0000 0.79010  0.33070  0.33210  Biso   1.000  H
  O30      1.0000 0.83530  0.16650  0.44470  Biso   1.000  O
  H28      1.0000 0.83400  0.12760  0.47730  Biso   1.000  H
  H29      1.0000 0.82600  0.16180  0.36470  Biso   1.000  H
  C21      1.0000 0.36560  0.20800  0.07270  Biso   1.000  C
  H30      1.0000 0.44420  0.17910  0.12240  Biso   1.000  H
  C22      1.0000 0.25630  0.18390  0.95200  Biso   1.000  C
  C23      1.0000 0.13680  0.22870  0.87900  Biso   1.000  C
  C24      1.0000 0.28620  0.11660  0.90840  Biso   1.000  C
  C25      1.0000 0.99800  0.20780  0.76320  Biso   1.000  C
  O31      1.0000 0.84510  0.57260  0.99400  Biso   1.000  O
  O32      1.0000 0.75930  0.60910  0.79050  Biso   1.000  O
  O33      1.0000 0.45030  0.75050  0.66890  Biso   1.000  O
  O34      1.0000 0.43860  0.65310  0.76310  Biso   1.000  O
  H31      1.0000 0.64660  0.02840  0.23850  Biso   1.000  H
  O35      1.0000 0.34510  0.81520  0.41000  Biso   1.000  O
  H32      1.0000 0.43270  0.80240  0.40570  Biso   1.000  H
  H33      1.0000 0.29010  0.83070  0.33210  Biso   1.000  H
  O36      1.0000 0.33530  0.66650  0.44470  Biso   1.000  O
  H34      1.0000 0.33400  0.62760  0.47730  Biso   1.000  H
  H35      1.0000 0.32600  0.66180  0.36470  Biso   1.000  H
  C26      1.0000 0.86560  0.70800  0.07270  Biso   1.000  C
  H36      1.0000 0.94420  0.67910  0.12240  Biso   1.000  H
  C27      1.0000 0.75630  0.68390  0.95200  Biso   1.000  C
  C28      1.0000 0.63680  0.72870  0.87900  Biso   1.000  C
  C29      1.0000 0.78620  0.61660  0.90840  Biso   1.000  C
  C30      1.0000 0.49800  0.70780  0.76320  Biso   1.000  C
  O37      1.0000 0.65490  0.07260  0.00600  Biso   1.000  O
  O38      1.0000 0.74070  0.10910  0.20950  Biso   1.000  O
  O39      1.0000 0.04970  0.25050  0.33110  Biso   1.000  O
  O40      1.0000 0.06140  0.15310  0.23690  Biso   1.000  O
  H37      1.0000 0.85340  0.52840  0.76150  Biso   1.000  H
  O41      1.0000 0.15490  0.31520  0.59000  Biso   1.000  O
  H38      1.0000 0.06730  0.30240  0.59430  Biso   1.000  H
  H39      1.0000 0.20990  0.33070  0.66790  Biso   1.000  H
  O42      1.0000 0.16470  0.16650  0.55530  Biso   1.000  O
  H40      1.0000 0.16600  0.12760  0.52270  Biso   1.000  H
  H41      1.0000 0.17400  0.16180  0.63530  Biso   1.000  H
  C31      1.0000 0.63440  0.20800  0.92730  Biso   1.000  C
  H42      1.0000 0.55580  0.17910  0.87760  Biso   1.000  H
  C32      1.0000 0.74370  0.18390  0.04800  Biso   1.000  C
  C33      1.0000 0.86320  0.22870  0.12100  Biso   1.000  C
  C34      1.0000 0.71380  0.11660  0.09160  Biso   1.000  C
  C35      1.0000 0.00200  0.20780  0.23680  Biso   1.000  C
  O43      1.0000 0.15490  0.57260  0.00600  Biso   1.000  O
  O44      1.0000 0.24070  0.60910  0.20950  Biso   1.000  O
  O45      1.0000 0.54970  0.75050  0.33110  Biso   1.000  O
  O46      1.0000 0.56140  0.65310  0.23690  Biso   1.000  O
  H43      1.0000 0.35340  0.02840  0.76150  Biso   1.000  H
  O47      1.0000 0.65490  0.81520  0.59000  Biso   1.000  O
  H44      1.0000 0.56730  0.80240  0.59430  Biso   1.000  H
  H45      1.0000 0.70990  0.83070  0.66790  Biso   1.000  H
  O48      1.0000 0.66470  0.66650  0.55530  Biso   1.000  O
  H46      1.0000 0.66600  0.62760  0.52270  Biso   1.000  H
  H47      1.0000 0.67400  0.66180  0.63530  Biso   1.000  H
  C36      1.0000 0.13440  0.70800  0.92730  Biso   1.000  C
  H48      1.0000 0.05580  0.67910  0.87760  Biso   1.000  H
  C37      1.0000 0.24370  0.68390  0.04800  Biso   1.000  C
  C38      1.0000 0.36320  0.72870  0.12100  Biso   1.000  C
  C39      1.0000 0.21380  0.61660  0.09160  Biso   1.000  C
  C40      1.0000 0.50200  0.70780  0.23680  Biso   1.000  C
  Ni1      1.0000 0.00000  0.50000  0.00000  Biso   1.000  Ni
  Ni2      1.0000 0.50000  0.00000  0.00000  Biso   1.000  Ni
  Ni3      1.0000 0.25000  0.75000  0.50000  Biso   1.000  Ni
  Ni4      1.0000 0.75000  0.75000  0.50000  Biso   1.000  Ni
  Ni5      1.0000 0.75000  0.25000  0.50000  Biso   1.000  Ni
  Ni6      1.0000 0.25000  0.25000  0.50000  Biso   1.000  Ni
  O49      1.0000 0.93240  0.50000  0.79930  Biso   1.000  O
  O50      1.0000 0.43240  0.00000  0.79930  Biso   1.000  O
  O51      1.0000 0.06760  0.50000  0.20070  Biso   1.000  O
  O52      1.0000 0.56760  0.00000  0.20070  Biso   1.000  O
