data_image0
_cell_length_a       12.3428
_cell_length_b       14.963
_cell_length_c       16.137
_cell_angle_alpha    116.589
_cell_angle_beta     90
_cell_angle_gamma    90

_symmetry_space_group_name_H-M    P 1
_symmetry_int_tables_number       1

loop_
  _symmetry_equiv_pos_as_xyz
  'x, y, z'

loop_
  _atom_site_label
  _atom_site_occupancy
  _atom_site_fract_x
  _atom_site_fract_y
  _atom_site_fract_z
  _atom_site_thermal_displace_type
  _atom_site_B_iso_or_equiv
  _atom_site_type_symbol
  Co1      1.0000 0.17757  0.74925  0.02502  Biso   1.000  Co
  Co2      1.0000 0.54833  0.52142  0.99389  Biso   1.000  Co
  Co3      1.0000 0.67757  0.25075  0.97498  Biso   1.000  Co
  Co4      1.0000 0.04833  0.47858  0.00611  Biso   1.000  Co
  P1       1.0000 0.18590  0.64064  0.16028  Biso   1.000  P
  P2       1.0000 0.39190  0.63237  0.91124  Biso   1.000  P
  P3       1.0000 0.51096  0.43012  0.12070  Biso   1.000  P
  P4       1.0000 0.24760  0.32009  0.91663  Biso   1.000  P
  P5       1.0000 0.68590  0.35936  0.83972  Biso   1.000  P
  P6       1.0000 0.89190  0.36763  0.08876  Biso   1.000  P
  P7       1.0000 0.01096  0.56988  0.87930  Biso   1.000  P
  P8       1.0000 0.74760  0.67991  0.08337  Biso   1.000  P
  H1       1.0000 0.78020  0.56800  0.75630  Biso   1.000  H
  H2       1.0000 0.87470  0.57490  0.63530  Biso   1.000  H
  H3       1.0000 0.61260  0.59360  0.84550  Biso   1.000  H
  H4       1.0000 0.33700  0.67460  0.75750  Biso   1.000  H
  H5       1.0000 0.42830  0.78690  0.39250  Biso   1.000  H
  H6       1.0000 0.09110  0.83280  0.28200  Biso   1.000  H
  H7       1.0000 0.43060  0.68200  0.63920  Biso   1.000  H
  H8       1.0000 0.20120  0.69430  0.62660  Biso   1.000  H
  H9       1.0000 0.24200  0.61230  0.31640  Biso   1.000  H
  H10      1.0000 0.78820  0.05400  0.63130  Biso   1.000  H
  H11      1.0000 0.90340  0.51690  0.47110  Biso   1.000  H
  H12      1.0000 0.95830  0.62360  0.53380  Biso   1.000  H
  H13      1.0000 0.86950  0.18900  0.75280  Biso   1.000  H
  H14      1.0000 0.25280  0.62150  0.47340  Biso   1.000  H
  H15      1.0000 0.03030  0.27270  0.84380  Biso   1.000  H
  H16      1.0000 0.46120  0.88630  0.54890  Biso   1.000  H
  H17      1.0000 0.99670  0.74160  0.70260  Biso   1.000  H
  H18      1.0000 0.98850  0.83560  0.80100  Biso   1.000  H
  H19      1.0000 0.81380  0.78370  0.35730  Biso   1.000  H
  H20      1.0000 0.68610  0.79980  0.37420  Biso   1.000  H
  H21      1.0000 0.75200  0.73820  0.41710  Biso   1.000  H
  H22      1.0000 0.05250  0.91660  0.43760  Biso   1.000  H
  H23      1.0000 0.63370  0.49100  0.42510  Biso   1.000  H
  H24      1.0000 0.23650  0.98370  0.67560  Biso   1.000  H
  H25      1.0000 0.87490  0.56700  0.35220  Biso   1.000  H
  H26      1.0000 0.00130  0.56670  0.37440  Biso   1.000  H
  H27      1.0000 0.93590  0.67000  0.41410  Biso   1.000  H
  H28      1.0000 0.56250  0.98850  0.72790  Biso   1.000  H
  H29      1.0000 0.45650  0.93250  0.67270  Biso   1.000  H
  H30      1.0000 0.77760  0.94850  0.47510  Biso   1.000  H
  H31      1.0000 0.71820  0.90180  0.53550  Biso   1.000  H
  H32      1.0000 0.31680  0.12440  0.78690  Biso   1.000  H
  H33      1.0000 0.61530  0.39770  0.26770  Biso   1.000  H
  H34      1.0000 0.45380  0.62580  0.25230  Biso   1.000  H
  H35      1.0000 0.39740  0.93290  0.77510  Biso   1.000  H
  H36      1.0000 0.49530  0.00390  0.83230  Biso   1.000  H
  H37      1.0000 0.50350  0.88570  0.79680  Biso   1.000  H
  H38      1.0000 0.83610  0.79980  0.73020  Biso   1.000  H
  H39      1.0000 0.88610  0.81340  0.64510  Biso   1.000  H
  H40      1.0000 0.87700  0.90740  0.74500  Biso   1.000  H
  H41      1.0000 0.28020  0.43200  0.24370  Biso   1.000  H
  H42      1.0000 0.37470  0.42510  0.36470  Biso   1.000  H
  H43      1.0000 0.11260  0.40640  0.15450  Biso   1.000  H
  H44      1.0000 0.83700  0.32540  0.24250  Biso   1.000  H
  H45      1.0000 0.92830  0.21310  0.60750  Biso   1.000  H
  H46      1.0000 0.59110  0.16720  0.71800  Biso   1.000  H
  H47      1.0000 0.93060  0.31800  0.36080  Biso   1.000  H
  H48      1.0000 0.70120  0.30570  0.37340  Biso   1.000  H
  H49      1.0000 0.74200  0.38770  0.68360  Biso   1.000  H
  H50      1.0000 0.28820  0.94600  0.36870  Biso   1.000  H
  H51      1.0000 0.40340  0.48310  0.52890  Biso   1.000  H
  H52      1.0000 0.45830  0.37640  0.46620  Biso   1.000  H
  H53      1.0000 0.36950  0.81100  0.24720  Biso   1.000  H
  H54      1.0000 0.75280  0.37850  0.52660  Biso   1.000  H
  H55      1.0000 0.53030  0.72730  0.15620  Biso   1.000  H
  H56      1.0000 0.96120  0.11370  0.45110  Biso   1.000  H
  H57      1.0000 0.49670  0.25840  0.29740  Biso   1.000  H
  H58      1.0000 0.48850  0.16440  0.19900  Biso   1.000  H
  H59      1.0000 0.31380  0.21630  0.64270  Biso   1.000  H
  H60      1.0000 0.18610  0.20020  0.62580  Biso   1.000  H
  H61      1.0000 0.25200  0.26180  0.58290  Biso   1.000  H
  H62      1.0000 0.55250  0.08340  0.56240  Biso   1.000  H
  H63      1.0000 0.13370  0.50900  0.57490  Biso   1.000  H
  H64      1.0000 0.73650  0.01630  0.32440  Biso   1.000  H
  H65      1.0000 0.37490  0.43300  0.64780  Biso   1.000  H
  H66      1.0000 0.50130  0.43330  0.62560  Biso   1.000  H
  H67      1.0000 0.43590  0.33000  0.58590  Biso   1.000  H
  H68      1.0000 0.06250  0.01150  0.27210  Biso   1.000  H
  H69      1.0000 0.95650  0.06750  0.32730  Biso   1.000  H
  H70      1.0000 0.27760  0.05150  0.52490  Biso   1.000  H
  H71      1.0000 0.21820  0.09820  0.46450  Biso   1.000  H
  H72      1.0000 0.81680  0.87560  0.21310  Biso   1.000  H
  H73      1.0000 0.11530  0.60230  0.73230  Biso   1.000  H
  H74      1.0000 0.95380  0.37420  0.74770  Biso   1.000  H
  H75      1.0000 0.89740  0.06710  0.22490  Biso   1.000  H
  H76      1.0000 0.99530  0.99610  0.16770  Biso   1.000  H
  H77      1.0000 0.00350  0.11430  0.20320  Biso   1.000  H
  H78      1.0000 0.33610  0.20020  0.26980  Biso   1.000  H
  H79      1.0000 0.38610  0.18660  0.35490  Biso   1.000  H
  H80      1.0000 0.37700  0.09260  0.25500  Biso   1.000  H
  C1       1.0000 0.17060  0.71220  0.28380  Biso   1.000  C
  C2       1.0000 0.57820  0.63980  0.66540  Biso   1.000  C
  C3       1.0000 0.56230  0.62100  0.43590  Biso   1.000  C
  C4       1.0000 0.46360  0.63270  0.81540  Biso   1.000  C
  C5       1.0000 0.54850  0.78070  0.56880  Biso   1.000  C
  C6       1.0000 0.74400  0.58750  0.71510  Biso   1.000  C
  C7       1.0000 0.08140  0.04160  0.68670  Biso   1.000  C
  C8       1.0000 0.74610  0.61990  0.58250  Biso   1.000  C
  C9       1.0000 0.02170  0.13040  0.73870  Biso   1.000  C
  C10      1.0000 0.18290  0.72360  0.43840  Biso   1.000  C
  C11      1.0000 0.63220  0.61250  0.72800  Biso   1.000  C
  C12      1.0000 0.11970  0.81050  0.62220  Biso   1.000  C
  C13      1.0000 0.03060  0.95680  0.61670  Biso   1.000  C
  C14      1.0000 0.79980  0.59140  0.64360  Biso   1.000  C
  C15      1.0000 0.92410  0.96310  0.59540  Biso   1.000  C
  C16      1.0000 0.57530  0.61030  0.80280  Biso   1.000  C
  C17      1.0000 0.41220  0.65920  0.75090  Biso   1.000  C
  C18      1.0000 0.46760  0.76040  0.42710  Biso   1.000  C
  C19      1.0000 0.58300  0.68330  0.53210  Biso   1.000  C
  C20      1.0000 0.11350  0.80500  0.32180  Biso   1.000  C
  C21      1.0000 0.46790  0.66290  0.68030  Biso   1.000  C
  C22      1.0000 0.63730  0.64580  0.59300  Biso   1.000  C
  C23      1.0000 0.09030  0.85950  0.56950  Biso   1.000  C
  C24      1.0000 0.18090  0.72370  0.58760  Biso   1.000  C
  C25      1.0000 0.20380  0.67400  0.34140  Biso   1.000  C
  C26      1.0000 0.86210  0.05080  0.64610  Biso   1.000  C
  C27      1.0000 0.90430  0.58820  0.48450  Biso   1.000  C
  C28      1.0000 0.50480  0.65880  0.38220  Biso   1.000  C
  C29      1.0000 0.91140  0.13110  0.71720  Biso   1.000  C
  C30      1.0000 0.12100  0.81700  0.47610  Biso   1.000  C
  C31      1.0000 0.21130  0.68130  0.49730  Biso   1.000  C
  C32      1.0000 0.07170  0.21440  0.80860  Biso   1.000  C
  C33      1.0000 0.48780  0.81980  0.51920  Biso   1.000  C
  C34      1.0000 0.98970  0.81530  0.73360  Biso   1.000  C
  C35      1.0000 0.75510  0.79460  0.40170  Biso   1.000  C
  C36      1.0000 0.09030  0.85480  0.41460  Biso   1.000  C
  C37      1.0000 0.59940  0.51970  0.39000  Biso   1.000  C
  C38      1.0000 0.19430  0.04220  0.70830  Biso   1.000  C
  C39      1.0000 0.93150  0.59890  0.39890  Biso   1.000  C
  C40      1.0000 0.51540  0.92980  0.71320  Biso   1.000  C
  C41      1.0000 0.77590  0.89070  0.48930  Biso   1.000  C
  C42      1.0000 0.17950  0.21270  0.82620  Biso   1.000  C
  C43      1.0000 0.24160  0.12490  0.77460  Biso   1.000  C
  C44      1.0000 0.58660  0.46360  0.29690  Biso   1.000  C
  C45      1.0000 0.49140  0.59920  0.28770  Biso   1.000  C
  C46      1.0000 0.53090  0.50240  0.24300  Biso   1.000  C
  C47      1.0000 0.47600  0.93840  0.78210  Biso   1.000  C
  C48      1.0000 0.89060  0.83530  0.71200  Biso   1.000  C
  C49      1.0000 0.67060  0.28780  0.71620  Biso   1.000  C
  C50      1.0000 0.07820  0.36020  0.33460  Biso   1.000  C
  C51      1.0000 0.06230  0.37900  0.56410  Biso   1.000  C
  C52      1.0000 0.96360  0.36730  0.18460  Biso   1.000  C
  C53      1.0000 0.04850  0.21930  0.43120  Biso   1.000  C
  C54      1.0000 0.24400  0.41250  0.28490  Biso   1.000  C
  C55      1.0000 0.58140  0.95840  0.31330  Biso   1.000  C
  C56      1.0000 0.24610  0.38010  0.41750  Biso   1.000  C
  C57      1.0000 0.52170  0.86960  0.26130  Biso   1.000  C
  C58      1.0000 0.68290  0.27640  0.56160  Biso   1.000  C
  C59      1.0000 0.13220  0.38750  0.27200  Biso   1.000  C
  C60      1.0000 0.61970  0.18950  0.37780  Biso   1.000  C
  C61      1.0000 0.53060  0.04320  0.38330  Biso   1.000  C
  C62      1.0000 0.29980  0.40860  0.35640  Biso   1.000  C
  C63      1.0000 0.42410  0.03690  0.40460  Biso   1.000  C
  C64      1.0000 0.07530  0.38970  0.19720  Biso   1.000  C
  C65      1.0000 0.91220  0.34080  0.24910  Biso   1.000  C
  C66      1.0000 0.96760  0.23960  0.57290  Biso   1.000  C
  C67      1.0000 0.08300  0.31670  0.46790  Biso   1.000  C
  C68      1.0000 0.61350  0.19500  0.67820  Biso   1.000  C
  C69      1.0000 0.96790  0.33710  0.31970  Biso   1.000  C
  C70      1.0000 0.13730  0.35420  0.40700  Biso   1.000  C
  C71      1.0000 0.59030  0.14050  0.43050  Biso   1.000  C
  C72      1.0000 0.68090  0.27630  0.41240  Biso   1.000  C
  C73      1.0000 0.70380  0.32600  0.65860  Biso   1.000  C
  C74      1.0000 0.36210  0.94920  0.35390  Biso   1.000  C
  C75      1.0000 0.40430  0.41180  0.51550  Biso   1.000  C
  C76      1.0000 0.00480  0.34120  0.61780  Biso   1.000  C
  C77      1.0000 0.41140  0.86890  0.28280  Biso   1.000  C
  C78      1.0000 0.62100  0.18300  0.52390  Biso   1.000  C
  C79      1.0000 0.71130  0.31870  0.50270  Biso   1.000  C
  C80      1.0000 0.57170  0.78560  0.19140  Biso   1.000  C
  C81      1.0000 0.98780  0.18020  0.48080  Biso   1.000  C
  C82      1.0000 0.48970  0.18470  0.26640  Biso   1.000  C
  C83      1.0000 0.25510  0.20540  0.59830  Biso   1.000  C
  C84      1.0000 0.59030  0.14520  0.58540  Biso   1.000  C
  C85      1.0000 0.09940  0.48030  0.61000  Biso   1.000  C
  C86      1.0000 0.69430  0.95780  0.29170  Biso   1.000  C
  C87      1.0000 0.43150  0.40110  0.60110  Biso   1.000  C
  C88      1.0000 0.01540  0.07020  0.28680  Biso   1.000  C
  C89      1.0000 0.27590  0.10930  0.51070  Biso   1.000  C
  C90      1.0000 0.67950  0.78730  0.17380  Biso   1.000  C
  C91      1.0000 0.74160  0.87510  0.22540  Biso   1.000  C
  C92      1.0000 0.08660  0.53640  0.70310  Biso   1.000  C
  C93      1.0000 0.99140  0.40080  0.71230  Biso   1.000  C
  C94      1.0000 0.03090  0.49760  0.75700  Biso   1.000  C
  C95      1.0000 0.97600  0.06160  0.21790  Biso   1.000  C
  C96      1.0000 0.39060  0.16470  0.28800  Biso   1.000  C
  O1       1.0000 0.32000  0.72230  0.95030  Biso   1.000  O
  O2       1.0000 0.47120  0.62470  0.97720  Biso   1.000  O
  O3       1.0000 0.79940  0.63160  0.51290  Biso   1.000  O
  O4       1.0000 0.26230  0.55260  0.15150  Biso   1.000  O
  O5       1.0000 0.02550  0.78220  0.10060  Biso   1.000  O
  O6       1.0000 0.57940  0.83980  0.65990  Biso   1.000  O
  O7       1.0000 0.07550  0.59690  0.12110  Biso   1.000  O
  O8       1.0000 0.87840  0.87890  0.52440  Biso   1.000  O
  O9       1.0000 0.31850  0.53250  0.86870  Biso   1.000  O
  O10      1.0000 0.08790  0.85290  0.71630  Biso   1.000  O
  O11      1.0000 0.24940  0.89310  0.11930  Biso   1.000  O
  O12      1.0000 0.23520  0.70340  0.11960  Biso   1.000  O
  O13      1.0000 0.10950  0.82210  0.95290  Biso   1.000  O
  O14      1.0000 0.43200  0.34300  0.10960  Biso   1.000  O
  O15      1.0000 0.62110  0.38990  0.07610  Biso   1.000  O
  O16      1.0000 0.28210  0.29020  0.98890  Biso   1.000  O
  O17      1.0000 0.35390  0.33700  0.86940  Biso   1.000  O
  O18      1.0000 0.45820  0.49610  0.08230  Biso   1.000  O
  O19      1.0000 0.18070  0.41060  0.94350  Biso   1.000  O
  O20      1.0000 0.82000  0.27770  0.04970  Biso   1.000  O
  O21      1.0000 0.97120  0.37530  0.02280  Biso   1.000  O
  O22      1.0000 0.29940  0.36840  0.48710  Biso   1.000  O
  O23      1.0000 0.76230  0.44740  0.84850  Biso   1.000  O
  O24      1.0000 0.52550  0.21780  0.89940  Biso   1.000  O
  O25      1.0000 0.07940  0.16020  0.34010  Biso   1.000  O
  O26      1.0000 0.57550  0.40310  0.87890  Biso   1.000  O
  O27      1.0000 0.37840  0.12110  0.47560  Biso   1.000  O
  O28      1.0000 0.81850  0.46750  0.13130  Biso   1.000  O
  O29      1.0000 0.58790  0.14710  0.28370  Biso   1.000  O
  O30      1.0000 0.74940  0.10690  0.88070  Biso   1.000  O
  O31      1.0000 0.73520  0.29660  0.88040  Biso   1.000  O
  O32      1.0000 0.60950  0.17790  0.04710  Biso   1.000  O
  O33      1.0000 0.93200  0.65700  0.89040  Biso   1.000  O
  O34      1.0000 0.12110  0.61010  0.92390  Biso   1.000  O
  O35      1.0000 0.78210  0.70980  0.01110  Biso   1.000  O
  O36      1.0000 0.85390  0.66300  0.13060  Biso   1.000  O
  O37      1.0000 0.95820  0.50390  0.91770  Biso   1.000  O
  O38      1.0000 0.68070  0.58940  0.05650  Biso   1.000  O
