data_image0
_cell_length_a       17.4682
_cell_length_b       17.4682
_cell_length_c       17.4682
_cell_angle_alpha    97.4701
_cell_angle_beta     115.785
_cell_angle_gamma    115.785

_symmetry_space_group_name_H-M    P 1
_symmetry_int_tables_number       1

loop_
  _symmetry_equiv_pos_as_xyz
  'x, y, z'

loop_
  _atom_site_label
  _atom_site_occupancy
  _atom_site_fract_x
  _atom_site_fract_y
  _atom_site_fract_z
  _atom_site_thermal_displace_type
  _atom_site_B_iso_or_equiv
  _atom_site_type_symbol
  Cd1      1.0000 0.45521  0.04939  0.16342  Biso   1.000  Cd
  Cd2      1.0000 0.95521  0.79179  0.40582  Biso   1.000  Cd
  H1       1.0000 0.64900  0.03410  0.32510  Biso   1.000  H
  H2       1.0000 0.45300  0.88480  0.06520  Biso   1.000  H
  H3       1.0000 0.75520  0.94740  0.36840  Biso   1.000  H
  H4       1.0000 0.69430  0.82080  0.20970  Biso   1.000  H
  H5       1.0000 0.59400  0.28410  0.28450  Biso   1.000  H
  H6       1.0000 0.61460  0.16050  0.10070  Biso   1.000  H
  H7       1.0000 0.70840  0.46220  0.30980  Biso   1.000  H
  H8       1.0000 0.81400  0.48660  0.22720  Biso   1.000  H
  H9       1.0000 0.56010  0.82890  0.12240  Biso   1.000  H
  H10      1.0000 0.71500  0.32190  0.14210  Biso   1.000  H
  H11      1.0000 0.14900  0.82390  0.61490  Biso   1.000  H
  H12      1.0000 0.95300  0.88780  0.56820  Biso   1.000  H
  H13      1.0000 0.25520  0.88680  0.80780  Biso   1.000  H
  H14      1.0000 0.19430  0.98460  0.87350  Biso   1.000  H
  H15      1.0000 0.09400  0.80950  0.30990  Biso   1.000  H
  H16      1.0000 0.11460  0.01390  0.45410  Biso   1.000  H
  H17      1.0000 0.20840  0.89860  0.24620  Biso   1.000  H
  H18      1.0000 0.31400  0.08680  0.32740  Biso   1.000  H
  H19      1.0000 0.06010  0.93770  0.73120  Biso   1.000  H
  H20      1.0000 0.21500  0.07290  0.39310  Biso   1.000  H
  C1       1.0000 0.63280  0.92480  0.24720  Biso   1.000  C
  C2       1.0000 0.61260  0.98780  0.26720  Biso   1.000  C
  C3       1.0000 0.50630  0.90780  0.12630  Biso   1.000  C
  C4       1.0000 0.71480  0.91260  0.30500  Biso   1.000  C
  C5       1.0000 0.73490  0.85600  0.27290  Biso   1.000  C
  C6       1.0000 0.81730  0.84540  0.33110  Biso   1.000  C
  C7       1.0000 0.67260  0.34160  0.22940  Biso   1.000  C
  C8       1.0000 0.61200  0.27440  0.24300  Biso   1.000  C
  C9       1.0000 0.62270  0.20610  0.14320  Biso   1.000  C
  C10      1.0000 0.72610  0.44070  0.27280  Biso   1.000  C
  C11      1.0000 0.79700  0.50490  0.26650  Biso   1.000  C
  C12      1.0000 0.85080  0.60560  0.32040  Biso   1.000  C
  C13      1.0000 0.13280  0.88560  0.70800  Biso   1.000  C
  C14      1.0000 0.11260  0.84540  0.62480  Biso   1.000  C
  C15      1.0000 0.00630  0.88000  0.59850  Biso   1.000  C
  C16      1.0000 0.21480  0.90980  0.80220  Biso   1.000  C
  C17      1.0000 0.23490  0.96200  0.87890  Biso   1.000  C
  C18      1.0000 0.31730  0.98620  0.97190  Biso   1.000  C
  C19      1.0000 0.17260  0.94320  0.33100  Biso   1.000  C
  C20      1.0000 0.11200  0.86900  0.33760  Biso   1.000  C
  C21      1.0000 0.12270  0.97950  0.41660  Biso   1.000  C
  C22      1.0000 0.22610  0.95330  0.28540  Biso   1.000  C
  C23      1.0000 0.29700  0.03050  0.29210  Biso   1.000  C
  C24      1.0000 0.35080  0.03040  0.24520  Biso   1.000  C
  N1       1.0000 0.56500  0.87390  0.15550  Biso   1.000  N
  N2       1.0000 0.53110  0.97350  0.19000  Biso   1.000  N
  N3       1.0000 0.68010  0.29660  0.16450  Biso   1.000  N
  N4       1.0000 0.57950  0.18960  0.18890  Biso   1.000  N
  N5       1.0000 0.06500  0.90950  0.69110  Biso   1.000  N
  N6       1.0000 0.03110  0.84110  0.55760  Biso   1.000  N
  N7       1.0000 0.18010  0.01560  0.38350  Biso   1.000  N
  N8       1.0000 0.07950  0.89060  0.38990  Biso   1.000  N
  O1       1.0000 0.92940  0.66040  0.32240  Biso   1.000  O
  O2       1.0000 0.82060  0.63280  0.36440  Biso   1.000  O
  O3       1.0000 0.83220  0.79480  0.28920  Biso   1.000  O
  O4       1.0000 0.86910  0.88240  0.41590  Biso   1.000  O
  O5       1.0000 0.42940  0.10700  0.26900  Biso   1.000  O
  O6       1.0000 0.32060  0.95620  0.18780  Biso   1.000  O
  O7       1.0000 0.33220  0.04300  0.03740  Biso   1.000  O
  O8       1.0000 0.36910  0.95320  0.98670  Biso   1.000  O
  Cd3      1.0000 0.04479  0.20821  0.59418  Biso   1.000  Cd
  Cd4      1.0000 0.54479  0.95061  0.83658  Biso   1.000  Cd
  H21      1.0000 0.85100  0.17610  0.38510  Biso   1.000  H
  H22      1.0000 0.04700  0.11220  0.43180  Biso   1.000  H
  H23      1.0000 0.74480  0.11320  0.19220  Biso   1.000  H
  H24      1.0000 0.80570  0.01540  0.12650  Biso   1.000  H
  H25      1.0000 0.90600  0.19050  0.69010  Biso   1.000  H
  H26      1.0000 0.88540  0.98610  0.54590  Biso   1.000  H
  H27      1.0000 0.79160  0.10140  0.75380  Biso   1.000  H
  H28      1.0000 0.68600  0.91320  0.67260  Biso   1.000  H
  H29      1.0000 0.93990  0.06230  0.26880  Biso   1.000  H
  H30      1.0000 0.78500  0.92710  0.60690  Biso   1.000  H
  H31      1.0000 0.35100  0.96590  0.67490  Biso   1.000  H
  H32      1.0000 0.54700  0.11520  0.93480  Biso   1.000  H
  H33      1.0000 0.24480  0.05260  0.63160  Biso   1.000  H
  H34      1.0000 0.30570  0.17920  0.79030  Biso   1.000  H
  H35      1.0000 0.40600  0.71590  0.71550  Biso   1.000  H
  H36      1.0000 0.38540  0.83950  0.89930  Biso   1.000  H
  H37      1.0000 0.29160  0.53780  0.69020  Biso   1.000  H
  H38      1.0000 0.18600  0.51340  0.77280  Biso   1.000  H
  H39      1.0000 0.43990  0.17110  0.87760  Biso   1.000  H
  H40      1.0000 0.28500  0.67810  0.85790  Biso   1.000  H
  C25      1.0000 0.86720  0.11440  0.29200  Biso   1.000  C
  C26      1.0000 0.88740  0.15460  0.37520  Biso   1.000  C
  C27      1.0000 0.99370  0.12000  0.40150  Biso   1.000  C
  C28      1.0000 0.78520  0.09020  0.19780  Biso   1.000  C
  C29      1.0000 0.76510  0.03800  0.12110  Biso   1.000  C
  C30      1.0000 0.68270  0.01380  0.02810  Biso   1.000  C
  C31      1.0000 0.82740  0.05680  0.66900  Biso   1.000  C
  C32      1.0000 0.88800  0.13100  0.66240  Biso   1.000  C
  C33      1.0000 0.87730  0.02050  0.58340  Biso   1.000  C
  C34      1.0000 0.77390  0.04670  0.71460  Biso   1.000  C
  C35      1.0000 0.70300  0.96950  0.70790  Biso   1.000  C
  C36      1.0000 0.64920  0.96960  0.75480  Biso   1.000  C
  C37      1.0000 0.36720  0.07520  0.75280  Biso   1.000  C
  C38      1.0000 0.38740  0.01220  0.73280  Biso   1.000  C
  C39      1.0000 0.49370  0.09220  0.87370  Biso   1.000  C
  C40      1.0000 0.28520  0.08740  0.69500  Biso   1.000  C
  C41      1.0000 0.26510  0.14400  0.72710  Biso   1.000  C
  C42      1.0000 0.18270  0.15460  0.66890  Biso   1.000  C
  C43      1.0000 0.32740  0.65840  0.77060  Biso   1.000  C
  C44      1.0000 0.38800  0.72560  0.75700  Biso   1.000  C
  C45      1.0000 0.37730  0.79390  0.85680  Biso   1.000  C
  C46      1.0000 0.27390  0.55930  0.72720  Biso   1.000  C
  C47      1.0000 0.20300  0.49510  0.73350  Biso   1.000  C
  C48      1.0000 0.14920  0.39440  0.67960  Biso   1.000  C
  N9       1.0000 0.93500  0.09050  0.30890  Biso   1.000  N
  N10      1.0000 0.96890  0.15890  0.44240  Biso   1.000  N
  N11      1.0000 0.81990  0.98440  0.61650  Biso   1.000  N
  N12      1.0000 0.92050  0.10940  0.61010  Biso   1.000  N
  N13      1.0000 0.43500  0.12610  0.84450  Biso   1.000  N
  N14      1.0000 0.46890  0.02650  0.81000  Biso   1.000  N
  N15      1.0000 0.31990  0.70340  0.83550  Biso   1.000  N
  N16      1.0000 0.42050  0.81040  0.81110  Biso   1.000  N
  O9       1.0000 0.57060  0.89300  0.73100  Biso   1.000  O
  O10      1.0000 0.67940  0.04380  0.81220  Biso   1.000  O
  O11      1.0000 0.66780  0.95700  0.96260  Biso   1.000  O
  O12      1.0000 0.63090  0.04680  0.01330  Biso   1.000  O
  O13      1.0000 0.07060  0.33960  0.67760  Biso   1.000  O
  O14      1.0000 0.17940  0.36720  0.63560  Biso   1.000  O
  O15      1.0000 0.16780  0.20520  0.71080  Biso   1.000  O
  O16      1.0000 0.13090  0.11760  0.58410  Biso   1.000  O
  Cd5      1.0000 0.11403  0.16342  0.20821  Biso   1.000  Cd
  Cd6      1.0000 0.61403  0.40582  0.95061  Biso   1.000  Cd
  H41      1.0000 0.29100  0.32510  0.17610  Biso   1.000  H
  H42      1.0000 0.18040  0.06520  0.11220  Biso   1.000  H
  H43      1.0000 0.42100  0.36840  0.11320  Biso   1.000  H
  H44      1.0000 0.38890  0.20970  0.01540  Biso   1.000  H
  H45      1.0000 0.00040  0.28450  0.19050  Biso   1.000  H
  H46      1.0000 0.94020  0.10070  0.98610  Biso   1.000  H
  H47      1.0000 0.84760  0.30980  0.10140  Biso   1.000  H
  H48      1.0000 0.74060  0.22720  0.91320  Biso   1.000  H
  H49      1.0000 0.29350  0.12240  0.06230  Biso   1.000  H
  H50      1.0000 0.82020  0.14210  0.92710  Biso   1.000  H
  H51      1.0000 0.79100  0.61490  0.96590  Biso   1.000  H
  H52      1.0000 0.68040  0.56820  0.11520  Biso   1.000  H
  H53      1.0000 0.92100  0.80780  0.05260  Biso   1.000  H
  H54      1.0000 0.88890  0.87350  0.17920  Biso   1.000  H
  H55      1.0000 0.50040  0.30990  0.71590  Biso   1.000  H
  H56      1.0000 0.44020  0.45410  0.83950  Biso   1.000  H
  H57      1.0000 0.34760  0.24620  0.53780  Biso   1.000  H
  H58      1.0000 0.24060  0.32740  0.51340  Biso   1.000  H
  H59      1.0000 0.79350  0.73120  0.17110  Biso   1.000  H
  H60      1.0000 0.32020  0.39310  0.67810  Biso   1.000  H
  C49      1.0000 0.32240  0.24720  0.11440  Biso   1.000  C
  C50      1.0000 0.27940  0.26720  0.15460  Biso   1.000  C
  C51      1.0000 0.21850  0.12630  0.12000  Biso   1.000  C
  C52      1.0000 0.39240  0.30500  0.09020  Biso   1.000  C
  C53      1.0000 0.41690  0.27290  0.03800  Biso   1.000  C
  C54      1.0000 0.48570  0.33110  0.01380  Biso   1.000  C
  C55      1.0000 0.88780  0.22940  0.05680  Biso   1.000  C
  C56      1.0000 0.96860  0.24300  0.13100  Biso   1.000  C
  C57      1.0000 0.93710  0.14320  0.02050  Biso   1.000  C
  C58      1.0000 0.83210  0.27280  0.04670  Biso   1.000  C
  C59      1.0000 0.76160  0.26650  0.96950  Biso   1.000  C
  C60      1.0000 0.71480  0.32040  0.96960  Biso   1.000  C
  C61      1.0000 0.82240  0.70800  0.07520  Biso   1.000  C
  C62      1.0000 0.77940  0.62480  0.01220  Biso   1.000  C
  C63      1.0000 0.71850  0.59850  0.09220  Biso   1.000  C
  C64      1.0000 0.89240  0.80220  0.08740  Biso   1.000  C
  C65      1.0000 0.91690  0.87890  0.14400  Biso   1.000  C
  C66      1.0000 0.98570  0.97190  0.15460  Biso   1.000  C
  C67      1.0000 0.38780  0.33100  0.65840  Biso   1.000  C
  C68      1.0000 0.46860  0.33760  0.72560  Biso   1.000  C
  C69      1.0000 0.43710  0.41660  0.79390  Biso   1.000  C
  C70      1.0000 0.33210  0.28540  0.55930  Biso   1.000  C
  C71      1.0000 0.26160  0.29210  0.49510  Biso   1.000  C
  C72      1.0000 0.21480  0.24520  0.39440  Biso   1.000  C
  N17      1.0000 0.28160  0.15550  0.09050  Biso   1.000  N
  N18      1.0000 0.21650  0.19000  0.15890  Biso   1.000  N
  N19      1.0000 0.86790  0.16450  0.98440  Biso   1.000  N
  N20      1.0000 0.99930  0.18890  0.10940  Biso   1.000  N
  N21      1.0000 0.78160  0.69110  0.12610  Biso   1.000  N
  N22      1.0000 0.71650  0.55760  0.02650  Biso   1.000  N
  N23      1.0000 0.36790  0.38350  0.70340  Biso   1.000  N
  N24      1.0000 0.49930  0.38990  0.81040  Biso   1.000  N
  O17      1.0000 0.66200  0.32240  0.89300  Biso   1.000  O
  O18      1.0000 0.73160  0.36440  0.04380  Biso   1.000  O
  O19      1.0000 0.49440  0.28920  0.95700  Biso   1.000  O
  O20      1.0000 0.53350  0.41590  0.04680  Biso   1.000  O
  O21      1.0000 0.16200  0.26900  0.33960  Biso   1.000  O
  O22      1.0000 0.23160  0.18780  0.36720  Biso   1.000  O
  O23      1.0000 0.99440  0.03740  0.20520  Biso   1.000  O
  O24      1.0000 0.03350  0.98670  0.11760  Biso   1.000  O
  Cd7      1.0000 0.38597  0.59418  0.04939  Biso   1.000  Cd
  Cd8      1.0000 0.88597  0.83658  0.79179  Biso   1.000  Cd
  H61      1.0000 0.20900  0.38510  0.03410  Biso   1.000  H
  H62      1.0000 0.31960  0.43180  0.88480  Biso   1.000  H
  H63      1.0000 0.07900  0.19220  0.94740  Biso   1.000  H
  H64      1.0000 0.11110  0.12650  0.82080  Biso   1.000  H
  H65      1.0000 0.49960  0.69010  0.28410  Biso   1.000  H
  H66      1.0000 0.55980  0.54590  0.16050  Biso   1.000  H
  H67      1.0000 0.65240  0.75380  0.46220  Biso   1.000  H
  H68      1.0000 0.75940  0.67260  0.48660  Biso   1.000  H
  H69      1.0000 0.20650  0.26880  0.82890  Biso   1.000  H
  H70      1.0000 0.67980  0.60690  0.32190  Biso   1.000  H
  H71      1.0000 0.70900  0.67490  0.82390  Biso   1.000  H
  H72      1.0000 0.81960  0.93480  0.88780  Biso   1.000  H
  H73      1.0000 0.57900  0.63160  0.88680  Biso   1.000  H
  H74      1.0000 0.61110  0.79030  0.98460  Biso   1.000  H
  H75      1.0000 0.99960  0.71550  0.80950  Biso   1.000  H
  H76      1.0000 0.05980  0.89930  0.01390  Biso   1.000  H
  H77      1.0000 0.15240  0.69020  0.89860  Biso   1.000  H
  H78      1.0000 0.25940  0.77280  0.08680  Biso   1.000  H
  H79      1.0000 0.70650  0.87760  0.93770  Biso   1.000  H
  H80      1.0000 0.17980  0.85790  0.07290  Biso   1.000  H
  C73      1.0000 0.17760  0.29200  0.92480  Biso   1.000  C
  C74      1.0000 0.22060  0.37520  0.98780  Biso   1.000  C
  C75      1.0000 0.28150  0.40150  0.90780  Biso   1.000  C
  C76      1.0000 0.10760  0.19780  0.91260  Biso   1.000  C
  C77      1.0000 0.08310  0.12110  0.85600  Biso   1.000  C
  C78      1.0000 0.01430  0.02810  0.84540  Biso   1.000  C
  C79      1.0000 0.61220  0.66900  0.34160  Biso   1.000  C
  C80      1.0000 0.53140  0.66240  0.27440  Biso   1.000  C
  C81      1.0000 0.56290  0.58340  0.20610  Biso   1.000  C
  C82      1.0000 0.66790  0.71460  0.44070  Biso   1.000  C
  C83      1.0000 0.73840  0.70790  0.50490  Biso   1.000  C
  C84      1.0000 0.78520  0.75480  0.60560  Biso   1.000  C
  C85      1.0000 0.67760  0.75280  0.88560  Biso   1.000  C
  C86      1.0000 0.72060  0.73280  0.84540  Biso   1.000  C
  C87      1.0000 0.78150  0.87370  0.88000  Biso   1.000  C
  C88      1.0000 0.60760  0.69500  0.90980  Biso   1.000  C
  C89      1.0000 0.58310  0.72710  0.96200  Biso   1.000  C
  C90      1.0000 0.51430  0.66890  0.98620  Biso   1.000  C
  C91      1.0000 0.11220  0.77060  0.94320  Biso   1.000  C
  C92      1.0000 0.03140  0.75700  0.86900  Biso   1.000  C
  C93      1.0000 0.06290  0.85680  0.97950  Biso   1.000  C
  C94      1.0000 0.16790  0.72720  0.95330  Biso   1.000  C
  C95      1.0000 0.23840  0.73350  0.03050  Biso   1.000  C
  C96      1.0000 0.28520  0.67960  0.03040  Biso   1.000  C
  N25      1.0000 0.21840  0.30890  0.87390  Biso   1.000  N
  N26      1.0000 0.28350  0.44240  0.97350  Biso   1.000  N
  N27      1.0000 0.63210  0.61650  0.29660  Biso   1.000  N
  N28      1.0000 0.50070  0.61010  0.18960  Biso   1.000  N
  N29      1.0000 0.71840  0.84450  0.90950  Biso   1.000  N
  N30      1.0000 0.78350  0.81000  0.84110  Biso   1.000  N
  N31      1.0000 0.13210  0.83550  0.01560  Biso   1.000  N
  N32      1.0000 0.00070  0.81110  0.89060  Biso   1.000  N
  O25      1.0000 0.83800  0.73100  0.66040  Biso   1.000  O
  O26      1.0000 0.76840  0.81220  0.63280  Biso   1.000  O
  O27      1.0000 0.00560  0.96260  0.79480  Biso   1.000  O
  O28      1.0000 0.96650  0.01330  0.88240  Biso   1.000  O
  O29      1.0000 0.33800  0.67760  0.10700  Biso   1.000  O
  O30      1.0000 0.26840  0.63560  0.95620  Biso   1.000  O
  O31      1.0000 0.50560  0.71080  0.04300  Biso   1.000  O
  O32      1.0000 0.46650  0.58410  0.95320  Biso   1.000  O
