data_image0
_cell_length_a       24.225
_cell_length_b       9.6254
_cell_length_c       16.37
_cell_angle_alpha    90
_cell_angle_beta     118.54
_cell_angle_gamma    90

_symmetry_space_group_name_H-M    "P 1"
_symmetry_int_tables_number       1

loop_
  _symmetry_equiv_pos_as_xyz
  'x, y, z'

loop_
  _atom_site_label
  _atom_site_occupancy
  _atom_site_fract_x
  _atom_site_fract_y
  _atom_site_fract_z
  _atom_site_thermal_displace_type
  _atom_site_B_iso_or_equiv
  _atom_site_type_symbol
  Cu1      1.0000 0.04177  0.38001  0.37793  Biso   1.000  Cu
  Cu2      1.0000 0.04178  0.18003  0.03391  Biso   1.000  Cu
  N1       1.0000 0.13637  0.01550  0.52550  Biso   1.000  N
  N2       1.0000 0.07839  0.00270  0.51740  Biso   1.000  N
  N3       1.0000 0.04587  0.11610  0.48080  Biso   1.000  N
  N4       1.0000 0.08105  0.20620  0.46320  Biso   1.000  N
  N5       1.0000 0.14096  0.21420  0.24400  Biso   1.000  N
  N6       1.0000 0.08322  0.23750  0.17440  Biso   1.000  N
  N7       1.0000 0.04843  0.29560  0.20620  Biso   1.000  N
  N8       1.0000 0.08235  0.30990  0.29870  Biso   1.000  N
  N9       1.0000 0.04060  0.43880  0.92510  Biso   1.000  N
  C1       1.0000 0.25130  0.30180  0.42260  Biso   1.000  C
  H1       1.0000 0.25210  0.33660  0.37010  Biso   1.000  H
  C2       1.0000 0.19460  0.25440  0.41430  Biso   1.000  C
  C3       1.0000 0.19280  0.20100  0.49280  Biso   1.000  C
  C4       1.0000 0.13630  0.14170  0.49140  Biso   1.000  C
  C5       1.0000 0.13890  0.25810  0.32010  Biso   1.000  C
  C6       1.0000 0.03940  0.33610  0.95790  Biso   1.000  C
  Cu3      1.0000 0.54177  0.88001  0.37793  Biso   1.000  Cu
  Cu4      1.0000 0.54178  0.68003  0.03391  Biso   1.000  Cu
  N10      1.0000 0.63637  0.51550  0.52550  Biso   1.000  N
  N11      1.0000 0.57839  0.50270  0.51740  Biso   1.000  N
  N12      1.0000 0.54587  0.61610  0.48080  Biso   1.000  N
  N13      1.0000 0.58105  0.70620  0.46320  Biso   1.000  N
  N14      1.0000 0.64096  0.71420  0.24400  Biso   1.000  N
  N15      1.0000 0.58322  0.73750  0.17440  Biso   1.000  N
  N16      1.0000 0.54843  0.79560  0.20620  Biso   1.000  N
  N17      1.0000 0.58235  0.80990  0.29870  Biso   1.000  N
  N18      1.0000 0.54060  0.93880  0.92510  Biso   1.000  N
  C7       1.0000 0.75130  0.80180  0.42260  Biso   1.000  C
  H2       1.0000 0.75210  0.83660  0.37010  Biso   1.000  H
  C8       1.0000 0.69460  0.75440  0.41430  Biso   1.000  C
  C9       1.0000 0.69280  0.70100  0.49280  Biso   1.000  C
  C10      1.0000 0.63630  0.64170  0.49140  Biso   1.000  C
  C11      1.0000 0.63890  0.75810  0.32010  Biso   1.000  C
  C12      1.0000 0.53940  0.83610  0.95790  Biso   1.000  C
  Cu5      1.0000 0.95823  0.38001  0.12207  Biso   1.000  Cu
  Cu6      1.0000 0.95822  0.18003  0.46609  Biso   1.000  Cu
  N19      1.0000 0.86363  0.01550  0.97450  Biso   1.000  N
  N20      1.0000 0.92161  0.00270  0.98260  Biso   1.000  N
  N21      1.0000 0.95413  0.11610  0.01920  Biso   1.000  N
  N22      1.0000 0.91895  0.20620  0.03680  Biso   1.000  N
  N23      1.0000 0.85904  0.21420  0.25600  Biso   1.000  N
  N24      1.0000 0.91678  0.23750  0.32560  Biso   1.000  N
  N25      1.0000 0.95157  0.29560  0.29380  Biso   1.000  N
  N26      1.0000 0.91765  0.30990  0.20130  Biso   1.000  N
  N27      1.0000 0.95940  0.43880  0.57490  Biso   1.000  N
  C13      1.0000 0.74870  0.30180  0.07740  Biso   1.000  C
  H3       1.0000 0.74790  0.33660  0.12990  Biso   1.000  H
  C14      1.0000 0.80540  0.25440  0.08570  Biso   1.000  C
  C15      1.0000 0.80720  0.20100  0.00720  Biso   1.000  C
  C16      1.0000 0.86370  0.14170  0.00860  Biso   1.000  C
  C17      1.0000 0.86110  0.25810  0.17990  Biso   1.000  C
  C18      1.0000 0.96060  0.33610  0.54210  Biso   1.000  C
  Cu7      1.0000 0.45823  0.88001  0.12207  Biso   1.000  Cu
  Cu8      1.0000 0.45822  0.68003  0.46609  Biso   1.000  Cu
  N28      1.0000 0.36363  0.51550  0.97450  Biso   1.000  N
  N29      1.0000 0.42161  0.50270  0.98260  Biso   1.000  N
  N30      1.0000 0.45413  0.61610  0.01920  Biso   1.000  N
  N31      1.0000 0.41895  0.70620  0.03680  Biso   1.000  N
  N32      1.0000 0.35904  0.71420  0.25600  Biso   1.000  N
  N33      1.0000 0.41678  0.73750  0.32560  Biso   1.000  N
  N34      1.0000 0.45157  0.79560  0.29380  Biso   1.000  N
  N35      1.0000 0.41765  0.80990  0.20130  Biso   1.000  N
  N36      1.0000 0.45940  0.93880  0.57490  Biso   1.000  N
  C19      1.0000 0.24870  0.80180  0.07740  Biso   1.000  C
  H4       1.0000 0.24790  0.83660  0.12990  Biso   1.000  H
  C20      1.0000 0.30540  0.75440  0.08570  Biso   1.000  C
  C21      1.0000 0.30720  0.70100  0.00720  Biso   1.000  C
  C22      1.0000 0.36370  0.64170  0.00860  Biso   1.000  C
  C23      1.0000 0.36110  0.75810  0.17990  Biso   1.000  C
  C24      1.0000 0.46060  0.83610  0.54210  Biso   1.000  C
  Cu9      1.0000 0.95823  0.61999  0.62207  Biso   1.000  Cu
  Cu10     1.0000 0.95822  0.81997  0.96609  Biso   1.000  Cu
  N37      1.0000 0.86363  0.98450  0.47450  Biso   1.000  N
  N38      1.0000 0.92161  0.99730  0.48260  Biso   1.000  N
  N39      1.0000 0.95413  0.88390  0.51920  Biso   1.000  N
  N40      1.0000 0.91895  0.79380  0.53680  Biso   1.000  N
  N41      1.0000 0.85904  0.78580  0.75600  Biso   1.000  N
  N42      1.0000 0.91678  0.76250  0.82560  Biso   1.000  N
  N43      1.0000 0.95157  0.70440  0.79380  Biso   1.000  N
  N44      1.0000 0.91765  0.69010  0.70130  Biso   1.000  N
  N45      1.0000 0.95940  0.56120  0.07490  Biso   1.000  N
  C25      1.0000 0.74870  0.69820  0.57740  Biso   1.000  C
  H5       1.0000 0.74790  0.66340  0.62990  Biso   1.000  H
  C26      1.0000 0.80540  0.74560  0.58570  Biso   1.000  C
  C27      1.0000 0.80720  0.79900  0.50720  Biso   1.000  C
  C28      1.0000 0.86370  0.85830  0.50860  Biso   1.000  C
  C29      1.0000 0.86110  0.74190  0.67990  Biso   1.000  C
  C30      1.0000 0.96060  0.66390  0.04210  Biso   1.000  C
  Cu11     1.0000 0.45823  0.11999  0.62207  Biso   1.000  Cu
  Cu12     1.0000 0.45822  0.31997  0.96609  Biso   1.000  Cu
  N46      1.0000 0.36363  0.48450  0.47450  Biso   1.000  N
  N47      1.0000 0.42161  0.49730  0.48260  Biso   1.000  N
  N48      1.0000 0.45413  0.38390  0.51920  Biso   1.000  N
  N49      1.0000 0.41895  0.29380  0.53680  Biso   1.000  N
  N50      1.0000 0.35904  0.28580  0.75600  Biso   1.000  N
  N51      1.0000 0.41678  0.26250  0.82560  Biso   1.000  N
  N52      1.0000 0.45157  0.20440  0.79380  Biso   1.000  N
  N53      1.0000 0.41765  0.19010  0.70130  Biso   1.000  N
  N54      1.0000 0.45940  0.06120  0.07490  Biso   1.000  N
  C31      1.0000 0.24870  0.19820  0.57740  Biso   1.000  C
  H6       1.0000 0.24790  0.16340  0.62990  Biso   1.000  H
  C32      1.0000 0.30540  0.24560  0.58570  Biso   1.000  C
  C33      1.0000 0.30720  0.29900  0.50720  Biso   1.000  C
  C34      1.0000 0.36370  0.35830  0.50860  Biso   1.000  C
  C35      1.0000 0.36110  0.24190  0.67990  Biso   1.000  C
  C36      1.0000 0.46060  0.16390  0.04210  Biso   1.000  C
  Cu13     1.0000 0.04177  0.61999  0.87793  Biso   1.000  Cu
  Cu14     1.0000 0.04178  0.81997  0.53391  Biso   1.000  Cu
  N55      1.0000 0.13637  0.98450  0.02550  Biso   1.000  N
  N56      1.0000 0.07839  0.99730  0.01740  Biso   1.000  N
  N57      1.0000 0.04587  0.88390  0.98080  Biso   1.000  N
  N58      1.0000 0.08105  0.79380  0.96320  Biso   1.000  N
  N59      1.0000 0.14096  0.78580  0.74400  Biso   1.000  N
  N60      1.0000 0.08322  0.76250  0.67440  Biso   1.000  N
  N61      1.0000 0.04843  0.70440  0.70620  Biso   1.000  N
  N62      1.0000 0.08235  0.69010  0.79870  Biso   1.000  N
  N63      1.0000 0.04060  0.56120  0.42510  Biso   1.000  N
  C37      1.0000 0.25130  0.69820  0.92260  Biso   1.000  C
  H7       1.0000 0.25210  0.66340  0.87010  Biso   1.000  H
  C38      1.0000 0.19460  0.74560  0.91430  Biso   1.000  C
  C39      1.0000 0.19280  0.79900  0.99280  Biso   1.000  C
  C40      1.0000 0.13630  0.85830  0.99140  Biso   1.000  C
  C41      1.0000 0.13890  0.74190  0.82010  Biso   1.000  C
  C42      1.0000 0.03940  0.66390  0.45790  Biso   1.000  C
  Cu15     1.0000 0.54177  0.11999  0.87793  Biso   1.000  Cu
  Cu16     1.0000 0.54178  0.31997  0.53391  Biso   1.000  Cu
  N64      1.0000 0.63637  0.48450  0.02550  Biso   1.000  N
  N65      1.0000 0.57839  0.49730  0.01740  Biso   1.000  N
  N66      1.0000 0.54587  0.38390  0.98080  Biso   1.000  N
  N67      1.0000 0.58105  0.29380  0.96320  Biso   1.000  N
  N68      1.0000 0.64096  0.28580  0.74400  Biso   1.000  N
  N69      1.0000 0.58322  0.26250  0.67440  Biso   1.000  N
  N70      1.0000 0.54843  0.20440  0.70620  Biso   1.000  N
  N71      1.0000 0.58235  0.19010  0.79870  Biso   1.000  N
  N72      1.0000 0.54060  0.06120  0.42510  Biso   1.000  N
  C43      1.0000 0.75130  0.19820  0.92260  Biso   1.000  C
  H8       1.0000 0.75210  0.16340  0.87010  Biso   1.000  H
  C44      1.0000 0.69460  0.24560  0.91430  Biso   1.000  C
  C45      1.0000 0.69280  0.29900  0.99280  Biso   1.000  C
  C46      1.0000 0.63630  0.35830  0.99140  Biso   1.000  C
  C47      1.0000 0.63890  0.24190  0.82010  Biso   1.000  C
  C48      1.0000 0.53940  0.16390  0.45790  Biso   1.000  C
