data_image0
_cell_length_a       13.2501
_cell_length_b       13.2501
_cell_length_c       18.4989
_cell_angle_alpha    92.5559
_cell_angle_beta     92.5559
_cell_angle_gamma    112.732

_symmetry_space_group_name_H-M    P 1
_symmetry_int_tables_number       1

loop_
  _symmetry_equiv_pos_as_xyz
  'x, y, z'

loop_
  _atom_site_label
  _atom_site_occupancy
  _atom_site_fract_x
  _atom_site_fract_y
  _atom_site_fract_z
  _atom_site_thermal_displace_type
  _atom_site_B_iso_or_equiv
  _atom_site_type_symbol
  Mn1      1.0000 0.78757  0.70699  0.30304  Biso   1.000  Mn
  Mn2      1.0000 0.29301  0.21243  0.19696  Biso   1.000  Mn
  Mn3      1.0000 0.21243  0.29301  0.69696  Biso   1.000  Mn
  Mn4      1.0000 0.70699  0.78757  0.80304  Biso   1.000  Mn
  Mn5      1.0000 0.50000  0.00000  0.00000  Biso   1.000  Mn
  Mn6      1.0000 0.00000  0.50000  0.50000  Biso   1.000  Mn
  W1       1.0000 0.96509  0.55047  0.08918  Biso   1.000  W
  W2       1.0000 0.07931  0.43035  0.05098  Biso   1.000  W
  W3       1.0000 0.12851  0.62889  0.00120  Biso   1.000  W
  W4       1.0000 0.44953  0.03491  0.41082  Biso   1.000  W
  W5       1.0000 0.56965  0.92069  0.44902  Biso   1.000  W
  W6       1.0000 0.37111  0.87149  0.49880  Biso   1.000  W
  W7       1.0000 0.03491  0.44953  0.91082  Biso   1.000  W
  W8       1.0000 0.92069  0.56965  0.94902  Biso   1.000  W
  W9       1.0000 0.87149  0.37111  0.99880  Biso   1.000  W
  W10      1.0000 0.55047  0.96509  0.58918  Biso   1.000  W
  W11      1.0000 0.43035  0.07931  0.55098  Biso   1.000  W
  W12      1.0000 0.62889  0.12851  0.50120  Biso   1.000  W
  C1       1.0000 0.91790  0.61130  0.18790  Biso   1.000  C
  C2       1.0000 0.17000  0.34740  0.10410  Biso   1.000  C
  C3       1.0000 0.27650  0.77630  0.00310  Biso   1.000  C
  C4       1.0000 0.38870  0.08210  0.31210  Biso   1.000  C
  C5       1.0000 0.65260  0.83000  0.39590  Biso   1.000  C
  C6       1.0000 0.22370  0.72350  0.49690  Biso   1.000  C
  C7       1.0000 0.08210  0.38870  0.81210  Biso   1.000  C
  C8       1.0000 0.83000  0.65260  0.89590  Biso   1.000  C
  C9       1.0000 0.72350  0.22370  0.99690  Biso   1.000  C
  C10      1.0000 0.61130  0.91790  0.68790  Biso   1.000  C
  C11      1.0000 0.34740  0.17000  0.60410  Biso   1.000  C
  C12      1.0000 0.77630  0.27650  0.50310  Biso   1.000  C
  S1       1.0000 0.15870  0.60030  0.12997  Biso   1.000  S
  S2       1.0000 0.22278  0.50842  0.96591  Biso   1.000  S
  S3       1.0000 0.92268  0.36432  0.12767  Biso   1.000  S
  S4       1.0000 0.01355  0.72905  0.03523  Biso   1.000  S
  S5       1.0000 0.39970  0.84130  0.37003  Biso   1.000  S
  S6       1.0000 0.49158  0.77722  0.53409  Biso   1.000  S
  S7       1.0000 0.63568  0.07732  0.37233  Biso   1.000  S
  S8       1.0000 0.27095  0.98645  0.46477  Biso   1.000  S
  S9       1.0000 0.84130  0.39970  0.87003  Biso   1.000  S
  S10      1.0000 0.77722  0.49158  0.03409  Biso   1.000  S
  S11      1.0000 0.07732  0.63568  0.87233  Biso   1.000  S
  S12      1.0000 0.98645  0.27095  0.96477  Biso   1.000  S
  S13      1.0000 0.60030  0.15870  0.62997  Biso   1.000  S
  S14      1.0000 0.50842  0.22278  0.46591  Biso   1.000  S
  S15      1.0000 0.36432  0.92268  0.62767  Biso   1.000  S
  S16      1.0000 0.72905  0.01355  0.53523  Biso   1.000  S
  N1       1.0000 0.88210  0.64230  0.23570  Biso   1.000  N
  N2       1.0000 0.21940  0.30220  0.13380  Biso   1.000  N
  N3       1.0000 0.35450  0.85430  0.00590  Biso   1.000  N
  N4       1.0000 0.35770  0.11790  0.26430  Biso   1.000  N
  N5       1.0000 0.69780  0.78060  0.36620  Biso   1.000  N
  N6       1.0000 0.14570  0.64550  0.49410  Biso   1.000  N
  N7       1.0000 0.11790  0.35770  0.76430  Biso   1.000  N
  N8       1.0000 0.78060  0.69780  0.86620  Biso   1.000  N
  N9       1.0000 0.64550  0.14570  0.99410  Biso   1.000  N
  N10      1.0000 0.64230  0.88210  0.73570  Biso   1.000  N
  N11      1.0000 0.30220  0.21940  0.63380  Biso   1.000  N
  N12      1.0000 0.85430  0.35450  0.50590  Biso   1.000  N
  O1       1.0000 0.93470  0.81910  0.36590  Biso   1.000  O
  O2       1.0000 0.80210  0.82890  0.22230  Biso   1.000  O
  O3       1.0000 0.63460  0.60060  0.24380  Biso   1.000  O
  O4       1.0000 0.76220  0.57420  0.37950  Biso   1.000  O
  O5       1.0000 0.51310  0.94410  0.88630  Biso   1.000  O
  O6       1.0000 0.39780  0.08100  0.94860  Biso   1.000  O
  O7       1.0000 0.18090  0.06530  0.13410  Biso   1.000  O
  O8       1.0000 0.17110  0.19790  0.27770  Biso   1.000  O
  O9       1.0000 0.39940  0.36540  0.25620  Biso   1.000  O
  O10      1.0000 0.42580  0.23780  0.12050  Biso   1.000  O
  O11      1.0000 0.05590  0.48690  0.61370  Biso   1.000  O
  O12      1.0000 0.91900  0.60220  0.55140  Biso   1.000  O
  O13      1.0000 0.06530  0.18090  0.63410  Biso   1.000  O
  O14      1.0000 0.19790  0.17110  0.77770  Biso   1.000  O
  O15      1.0000 0.36540  0.39940  0.75620  Biso   1.000  O
  O16      1.0000 0.23780  0.42580  0.62050  Biso   1.000  O
  O17      1.0000 0.48690  0.05590  0.11370  Biso   1.000  O
  O18      1.0000 0.60220  0.91900  0.05140  Biso   1.000  O
  O19      1.0000 0.81910  0.93470  0.86590  Biso   1.000  O
  O20      1.0000 0.82890  0.80210  0.72230  Biso   1.000  O
  O21      1.0000 0.60060  0.63460  0.74380  Biso   1.000  O
  O22      1.0000 0.57420  0.76220  0.87950  Biso   1.000  O
  O23      1.0000 0.94410  0.51310  0.38630  Biso   1.000  O
  O24      1.0000 0.08100  0.39780  0.44860  Biso   1.000  O
