data_image0
_cell_length_a       13.112
_cell_length_b       13.112
_cell_length_c       18.03
_cell_angle_alpha    92.6858
_cell_angle_beta     92.6858
_cell_angle_gamma    113.136

_symmetry_space_group_name_H-M    P 1
_symmetry_int_tables_number       1

loop_
  _symmetry_equiv_pos_as_xyz
  'x, y, z'

loop_
  _atom_site_label
  _atom_site_occupancy
  _atom_site_fract_x
  _atom_site_fract_y
  _atom_site_fract_z
  _atom_site_thermal_displace_type
  _atom_site_B_iso_or_equiv
  _atom_site_type_symbol
  Co1      1.0000 0.79551  0.71529  0.69440  Biso   1.000  Co
  Co2      1.0000 0.28471  0.20449  0.80560  Biso   1.000  Co
  Co3      1.0000 0.20449  0.28471  0.30560  Biso   1.000  Co
  Co4      1.0000 0.71529  0.79551  0.19440  Biso   1.000  Co
  Co5      1.0000 0.50000  0.00000  0.00000  Biso   1.000  Co
  Co6      1.0000 0.00000  0.50000  0.50000  Biso   1.000  Co
  W1       1.0000 0.95188  0.53864  0.90875  Biso   1.000  W
  W2       1.0000 0.06707  0.41733  0.94755  Biso   1.000  W
  W3       1.0000 0.13340  0.62738  0.00202  Biso   1.000  W
  W4       1.0000 0.46136  0.04812  0.59125  Biso   1.000  W
  W5       1.0000 0.58267  0.93293  0.55245  Biso   1.000  W
  W6       1.0000 0.37262  0.86660  0.49798  Biso   1.000  W
  W7       1.0000 0.04812  0.46136  0.09125  Biso   1.000  W
  W8       1.0000 0.93293  0.58267  0.05245  Biso   1.000  W
  W9       1.0000 0.86660  0.37262  0.99798  Biso   1.000  W
  W10      1.0000 0.53864  0.95188  0.40875  Biso   1.000  W
  W11      1.0000 0.41733  0.06707  0.44755  Biso   1.000  W
  W12      1.0000 0.62738  0.13340  0.50202  Biso   1.000  W
  C1       1.0000 0.89510  0.59330  0.80920  Biso   1.000  C
  C2       1.0000 0.14300  0.32180  0.89240  Biso   1.000  C
  C3       1.0000 0.28240  0.77220  0.00690  Biso   1.000  C
  C4       1.0000 0.40670  0.10490  0.69080  Biso   1.000  C
  C5       1.0000 0.67820  0.85700  0.60760  Biso   1.000  C
  C6       1.0000 0.22780  0.71760  0.49310  Biso   1.000  C
  C7       1.0000 0.10490  0.40670  0.19080  Biso   1.000  C
  C8       1.0000 0.85700  0.67820  0.10760  Biso   1.000  C
  C9       1.0000 0.71760  0.22780  0.99310  Biso   1.000  C
  C10      1.0000 0.59330  0.89510  0.30920  Biso   1.000  C
  C11      1.0000 0.32180  0.14300  0.39240  Biso   1.000  C
  C12      1.0000 0.77220  0.28240  0.50690  Biso   1.000  C
  S1       1.0000 0.13960  0.57660  0.86960  Biso   1.000  S
  S2       1.0000 0.01840  0.72900  0.96650  Biso   1.000  S
  S3       1.0000 0.89560  0.34240  0.86550  Biso   1.000  S
  S4       1.0000 0.22820  0.50720  0.03640  Biso   1.000  S
  S5       1.0000 0.42340  0.86040  0.63040  Biso   1.000  S
  S6       1.0000 0.27100  0.98160  0.53350  Biso   1.000  S
  S7       1.0000 0.65760  0.10440  0.63450  Biso   1.000  S
  S8       1.0000 0.49280  0.77180  0.46360  Biso   1.000  S
  S9       1.0000 0.86040  0.42340  0.13040  Biso   1.000  S
  S10      1.0000 0.98160  0.27100  0.03350  Biso   1.000  S
  S11      1.0000 0.10440  0.65760  0.13450  Biso   1.000  S
  S12      1.0000 0.77180  0.49280  0.96360  Biso   1.000  S
  S13      1.0000 0.57660  0.13960  0.36960  Biso   1.000  S
  S14      1.0000 0.72900  0.01840  0.46650  Biso   1.000  S
  S15      1.0000 0.34240  0.89560  0.36550  Biso   1.000  S
  S16      1.0000 0.50720  0.22820  0.53640  Biso   1.000  S
  N1       1.0000 0.85910  0.62410  0.76010  Biso   1.000  N
  N2       1.0000 0.18820  0.27120  0.86350  Biso   1.000  N
  N3       1.0000 0.36410  0.84830  0.00310  Biso   1.000  N
  N4       1.0000 0.37590  0.14090  0.73990  Biso   1.000  N
  N5       1.0000 0.72880  0.81180  0.63650  Biso   1.000  N
  N6       1.0000 0.15170  0.63590  0.49690  Biso   1.000  N
  N7       1.0000 0.14090  0.37590  0.23990  Biso   1.000  N
  N8       1.0000 0.81180  0.72880  0.13650  Biso   1.000  N
  N9       1.0000 0.63590  0.15170  0.99690  Biso   1.000  N
  N10      1.0000 0.62410  0.85910  0.26010  Biso   1.000  N
  N11      1.0000 0.27120  0.18820  0.36350  Biso   1.000  N
  N12      1.0000 0.84830  0.36410  0.50310  Biso   1.000  N
  O1       1.0000 0.67500  0.69660  0.77390  Biso   1.000  O
  O2       1.0000 0.90390  0.86050  0.75570  Biso   1.000  O
  O3       1.0000 0.92030  0.74050  0.61630  Biso   1.000  O
  O4       1.0000 0.68640  0.57120  0.63080  Biso   1.000  O
  O5       1.0000 0.59270  0.91830  0.95280  Biso   1.000  O
  O6       1.0000 0.44440  0.01380  0.88890  Biso   1.000  O
  O7       1.0000 0.30340  0.32500  0.72610  Biso   1.000  O
  O8       1.0000 0.13950  0.09610  0.74430  Biso   1.000  O
  O9       1.0000 0.25950  0.07970  0.88370  Biso   1.000  O
  O10      1.0000 0.42880  0.31360  0.86920  Biso   1.000  O
  O11      1.0000 0.08170  0.40730  0.54720  Biso   1.000  O
  O12      1.0000 0.98620  0.55560  0.61110  Biso   1.000  O
  O13      1.0000 0.32500  0.30340  0.22610  Biso   1.000  O
  O14      1.0000 0.09610  0.13950  0.24430  Biso   1.000  O
  O15      1.0000 0.07970  0.25950  0.38370  Biso   1.000  O
  O16      1.0000 0.31360  0.42880  0.36920  Biso   1.000  O
  O17      1.0000 0.40730  0.08170  0.04720  Biso   1.000  O
  O18      1.0000 0.55560  0.98620  0.11110  Biso   1.000  O
  O19      1.0000 0.69660  0.67500  0.27390  Biso   1.000  O
  O20      1.0000 0.86050  0.90390  0.25570  Biso   1.000  O
  O21      1.0000 0.74050  0.92030  0.11630  Biso   1.000  O
  O22      1.0000 0.57120  0.68640  0.13080  Biso   1.000  O
  O23      1.0000 0.91830  0.59270  0.45280  Biso   1.000  O
  O24      1.0000 0.01380  0.44440  0.38890  Biso   1.000  O
