data_image0
_cell_length_a       13.1888
_cell_length_b       13.1888
_cell_length_c       18.286
_cell_angle_alpha    92.7321
_cell_angle_beta     92.7321
_cell_angle_gamma    112.781

_symmetry_space_group_name_H-M    P 1
_symmetry_int_tables_number       1

loop_
  _symmetry_equiv_pos_as_xyz
  'x, y, z'

loop_
  _atom_site_label
  _atom_site_occupancy
  _atom_site_fract_x
  _atom_site_fract_y
  _atom_site_fract_z
  _atom_site_thermal_displace_type
  _atom_site_B_iso_or_equiv
  _atom_site_type_symbol
  Fe1      1.0000 0.21521  0.29533  0.69598  Biso   1.000  Fe
  Fe2      1.0000 0.70467  0.78479  0.80402  Biso   1.000  Fe
  Fe3      1.0000 0.78479  0.70467  0.30402  Biso   1.000  Fe
  Fe4      1.0000 0.29533  0.21521  0.19598  Biso   1.000  Fe
  Fe5      1.0000 0.50000  0.00000  0.00000  Biso   1.000  Fe
  Fe6      1.0000 0.00000  0.50000  0.50000  Biso   1.000  Fe
  W1       1.0000 0.03780  0.45066  0.91031  Biso   1.000  W
  W2       1.0000 0.91851  0.56731  0.94759  Biso   1.000  W
  W3       1.0000 0.12740  0.63184  0.00214  Biso   1.000  W
  W4       1.0000 0.54934  0.96220  0.58969  Biso   1.000  W
  W5       1.0000 0.43269  0.08149  0.55241  Biso   1.000  W
  W6       1.0000 0.36816  0.87260  0.49786  Biso   1.000  W
  W7       1.0000 0.96220  0.54934  0.08969  Biso   1.000  W
  W8       1.0000 0.08149  0.43269  0.05241  Biso   1.000  W
  W9       1.0000 0.87260  0.36816  0.99786  Biso   1.000  W
  W10      1.0000 0.45066  0.03780  0.41031  Biso   1.000  W
  W11      1.0000 0.56731  0.91851  0.44759  Biso   1.000  W
  W12      1.0000 0.63184  0.12740  0.50214  Biso   1.000  W
  C1       1.0000 0.08940  0.39060  0.81150  Biso   1.000  C
  C2       1.0000 0.82610  0.64890  0.89220  Biso   1.000  C
  C3       1.0000 0.27220  0.78320  0.00470  Biso   1.000  C
  C4       1.0000 0.60940  0.91060  0.68850  Biso   1.000  C
  C5       1.0000 0.35110  0.17390  0.60780  Biso   1.000  C
  C6       1.0000 0.21680  0.72780  0.49530  Biso   1.000  C
  C7       1.0000 0.91060  0.60940  0.18850  Biso   1.000  C
  C8       1.0000 0.17390  0.35110  0.10780  Biso   1.000  C
  C9       1.0000 0.72780  0.21680  0.99530  Biso   1.000  C
  C10      1.0000 0.39060  0.08940  0.31150  Biso   1.000  C
  C11      1.0000 0.64890  0.82610  0.39220  Biso   1.000  C
  C12      1.0000 0.78320  0.27220  0.50470  Biso   1.000  C
  S1       1.0000 0.07610  0.63650  0.87140  Biso   1.000  S
  S2       1.0000 0.84220  0.39600  0.86750  Biso   1.000  S
  S3       1.0000 0.22590  0.51510  0.96810  Biso   1.000  S
  S4       1.0000 0.00803  0.72757  0.03520  Biso   1.000  S
  S5       1.0000 0.36350  0.92390  0.62860  Biso   1.000  S
  S6       1.0000 0.60400  0.15780  0.63250  Biso   1.000  S
  S7       1.0000 0.48490  0.77410  0.53190  Biso   1.000  S
  S8       1.0000 0.27243  0.99197  0.46480  Biso   1.000  S
  S9       1.0000 0.92390  0.36350  0.12860  Biso   1.000  S
  S10      1.0000 0.15780  0.60400  0.13250  Biso   1.000  S
  S11      1.0000 0.77410  0.48490  0.03190  Biso   1.000  S
  S12      1.0000 0.99197  0.27243  0.96480  Biso   1.000  S
  S13      1.0000 0.63650  0.07610  0.37140  Biso   1.000  S
  S14      1.0000 0.39600  0.84220  0.36750  Biso   1.000  S
  S15      1.0000 0.51510  0.22590  0.46810  Biso   1.000  S
  S16      1.0000 0.72757  0.00803  0.53520  Biso   1.000  S
  N1       1.0000 0.12210  0.35770  0.76210  Biso   1.000  N
  N2       1.0000 0.77350  0.68970  0.86440  Biso   1.000  N
  N3       1.0000 0.35160  0.86280  0.00550  Biso   1.000  N
  N4       1.0000 0.64230  0.87790  0.73790  Biso   1.000  N
  N5       1.0000 0.31030  0.22650  0.63560  Biso   1.000  N
  N6       1.0000 0.13720  0.64840  0.49450  Biso   1.000  N
  N7       1.0000 0.87790  0.64230  0.23790  Biso   1.000  N
  N8       1.0000 0.22650  0.31030  0.13560  Biso   1.000  N
  N9       1.0000 0.64840  0.13720  0.99450  Biso   1.000  N
  N10      1.0000 0.35770  0.12210  0.26210  Biso   1.000  N
  N11      1.0000 0.68970  0.77350  0.36440  Biso   1.000  N
  N12      1.0000 0.86280  0.35160  0.50550  Biso   1.000  N
  O1       1.0000 0.23820  0.42040  0.61820  Biso   1.000  O
  O2       1.0000 0.36240  0.39940  0.75590  Biso   1.000  O
  O3       1.0000 0.06850  0.18170  0.63180  Biso   1.000  O
  O4       1.0000 0.19790  0.17310  0.77650  Biso   1.000  O
  O5       1.0000 0.40950  0.08890  0.95490  Biso   1.000  O
  O6       1.0000 0.51080  0.93920  0.88820  Biso   1.000  O
  O7       1.0000 0.57960  0.76180  0.88180  Biso   1.000  O
  O8       1.0000 0.60060  0.63760  0.74410  Biso   1.000  O
  O9       1.0000 0.81830  0.93150  0.86820  Biso   1.000  O
  O10      1.0000 0.82690  0.80210  0.72350  Biso   1.000  O
  O11      1.0000 0.91110  0.59050  0.54510  Biso   1.000  O
  O12      1.0000 0.06080  0.48920  0.61180  Biso   1.000  O
  O13      1.0000 0.76180  0.57960  0.38180  Biso   1.000  O
  O14      1.0000 0.63760  0.60060  0.24410  Biso   1.000  O
  O15      1.0000 0.93150  0.81830  0.36820  Biso   1.000  O
  O16      1.0000 0.80210  0.82690  0.22350  Biso   1.000  O
  O17      1.0000 0.59050  0.91110  0.04510  Biso   1.000  O
  O18      1.0000 0.48920  0.06080  0.11180  Biso   1.000  O
  O19      1.0000 0.42040  0.23820  0.11820  Biso   1.000  O
  O20      1.0000 0.39940  0.36240  0.25590  Biso   1.000  O
  O21      1.0000 0.18170  0.06850  0.13180  Biso   1.000  O
  O22      1.0000 0.17310  0.19790  0.27650  Biso   1.000  O
  O23      1.0000 0.08890  0.40950  0.45490  Biso   1.000  O
  O24      1.0000 0.93920  0.51080  0.38820  Biso   1.000  O
