data_image0
_cell_length_a       12.3416
_cell_length_b       20.7246
_cell_length_c       23.2306
_cell_angle_alpha    113.603
_cell_angle_beta     105.405
_cell_angle_gamma    90

_symmetry_space_group_name_H-M    P 1
_symmetry_int_tables_number       1

loop_
  _symmetry_equiv_pos_as_xyz
  'x, y, z'

loop_
  _atom_site_label
  _atom_site_occupancy
  _atom_site_fract_x
  _atom_site_fract_y
  _atom_site_fract_z
  _atom_site_thermal_displace_type
  _atom_site_B_iso_or_equiv
  _atom_site_type_symbol
  Zn1      1.0000 0.25922  0.80651  0.77026  Biso   1.000  Zn
  Zn2      1.0000 0.00885  0.85999  0.74534  Biso   1.000  Zn
  Zn3      1.0000 0.65331  0.18475  0.67546  Biso   1.000  Zn
  Zn4      1.0000 0.48896  0.69349  0.22974  Biso   1.000  Zn
  Zn5      1.0000 0.26351  0.64001  0.25466  Biso   1.000  Zn
  Zn6      1.0000 0.97785  0.31525  0.32454  Biso   1.000  Zn
  Zn7      1.0000 0.74078  0.19349  0.22974  Biso   1.000  Zn
  Zn8      1.0000 0.99115  0.14001  0.25466  Biso   1.000  Zn
  Zn9      1.0000 0.34669  0.81525  0.32454  Biso   1.000  Zn
  Zn10     1.0000 0.51104  0.30651  0.77026  Biso   1.000  Zn
  Zn11     1.0000 0.73649  0.35999  0.74534  Biso   1.000  Zn
  Zn12     1.0000 0.02215  0.68475  0.67546  Biso   1.000  Zn
  H1       1.0000 0.40920  0.95750  0.77580  Biso   1.000  H
  H2       1.0000 0.25470  0.13010  0.71000  Biso   1.000  H
  H3       1.0000 0.04180  0.67690  0.50620  Biso   1.000  H
  H4       1.0000 0.31150  0.80990  0.48520  Biso   1.000  H
  H5       1.0000 0.93910  0.97730  0.07640  Biso   1.000  H
  H6       1.0000 0.07650  0.77620  0.79240  Biso   1.000  H
  H7       1.0000 0.63340  0.54250  0.22420  Biso   1.000  H
  H8       1.0000 0.54470  0.36990  0.29000  Biso   1.000  H
  H9       1.0000 0.53560  0.82310  0.49380  Biso   1.000  H
  H10      1.0000 0.82630  0.69010  0.51480  Biso   1.000  H
  H11      1.0000 0.86270  0.52270  0.92360  Biso   1.000  H
  H12      1.0000 0.28410  0.72380  0.20760  Biso   1.000  H
  H13      1.0000 0.59080  0.04250  0.22420  Biso   1.000  H
  H14      1.0000 0.74530  0.86990  0.29000  Biso   1.000  H
  H15      1.0000 0.95820  0.32310  0.49380  Biso   1.000  H
  H16      1.0000 0.68850  0.19010  0.51480  Biso   1.000  H
  H17      1.0000 0.06090  0.02270  0.92360  Biso   1.000  H
  H18      1.0000 0.92350  0.22380  0.20760  Biso   1.000  H
  H19      1.0000 0.36660  0.45750  0.77580  Biso   1.000  H
  H20      1.0000 0.45530  0.63010  0.71000  Biso   1.000  H
  H21      1.0000 0.46440  0.17690  0.50620  Biso   1.000  H
  H22      1.0000 0.17370  0.30990  0.48520  Biso   1.000  H
  H23      1.0000 0.13730  0.47730  0.07640  Biso   1.000  H
  H24      1.0000 0.71590  0.27620  0.79240  Biso   1.000  H
  C1       1.0000 0.19330  0.94480  0.76000  Biso   1.000  C
  C2       1.0000 0.26340  0.99680  0.74920  Biso   1.000  C
  C3       1.0000 0.37760  0.99230  0.76240  Biso   1.000  C
  C4       1.0000 0.44630  0.04170  0.75540  Biso   1.000  C
  C5       1.0000 0.40203  0.09320  0.73546  Biso   1.000  C
  C6       1.0000 0.28690  0.09520  0.72300  Biso   1.000  C
  C7       1.0000 0.22020  0.04950  0.72880  Biso   1.000  C
  C8       1.0000 0.47445  0.14820  0.72890  Biso   1.000  C
  C9       1.0000 0.20910  0.72450  0.37000  Biso   1.000  C
  C10      1.0000 0.19010  0.73160  0.43440  Biso   1.000  C
  C11      1.0000 0.11190  0.69070  0.44200  Biso   1.000  C
  C12      1.0000 0.10210  0.70230  0.50360  Biso   1.000  C
  C13      1.0000 0.17430  0.74770  0.55820  Biso   1.000  C
  C14      1.0000 0.26000  0.78460  0.54960  Biso   1.000  C
  C15      1.0000 0.26000  0.77890  0.48840  Biso   1.000  C
  C16      1.0000 0.16440  0.74980  0.62000  Biso   1.000  C
  C17      1.0000 0.98930  0.88810  0.87040  Biso   1.000  C
  C18      1.0000 0.99218  0.94550  0.93756  Biso   1.000  C
  C19      1.0000 0.96520  0.98710  0.04600  Biso   1.000  C
  C20      1.0000 0.95880  0.93210  0.98560  Biso   1.000  C
  C21      1.0000 0.43330  0.55520  0.24000  Biso   1.000  C
  C22      1.0000 0.51420  0.50320  0.25080  Biso   1.000  C
  C23      1.0000 0.61520  0.50770  0.23760  Biso   1.000  C
  C24      1.0000 0.69090  0.45830  0.24460  Biso   1.000  C
  C25      1.0000 0.66657  0.40680  0.26454  Biso   1.000  C
  C26      1.0000 0.56390  0.40480  0.27700  Biso   1.000  C
  C27      1.0000 0.49140  0.45050  0.27120  Biso   1.000  C
  C28      1.0000 0.74555  0.35180  0.27110  Biso   1.000  C
  C29      1.0000 0.83910  0.77550  0.63000  Biso   1.000  C
  C30      1.0000 0.75570  0.76840  0.56560  Biso   1.000  C
  C31      1.0000 0.66990  0.80930  0.55800  Biso   1.000  C
  C32      1.0000 0.59850  0.79770  0.49640  Biso   1.000  C
  C33      1.0000 0.61610  0.75230  0.44180  Biso   1.000  C
  C34      1.0000 0.71040  0.71540  0.45040  Biso   1.000  C
  C35      1.0000 0.77160  0.72110  0.51160  Biso   1.000  C
  C36      1.0000 0.54440  0.75020  0.38000  Biso   1.000  C
  C37      1.0000 0.11890  0.61190  0.12960  Biso   1.000  C
  C38      1.0000 0.05462  0.55450  0.06244  Biso   1.000  C
  C39      1.0000 0.91920  0.51290  0.95400  Biso   1.000  C
  C40      1.0000 0.97320  0.56790  0.01440  Biso   1.000  C
  C41      1.0000 0.80670  0.05520  0.24000  Biso   1.000  C
  C42      1.0000 0.73660  0.00320  0.25080  Biso   1.000  C
  C43      1.0000 0.62240  0.00770  0.23760  Biso   1.000  C
  C44      1.0000 0.55370  0.95830  0.24460  Biso   1.000  C
  C45      1.0000 0.59797  0.90680  0.26454  Biso   1.000  C
  C46      1.0000 0.71310  0.90480  0.27700  Biso   1.000  C
  C47      1.0000 0.77980  0.95050  0.27120  Biso   1.000  C
  C48      1.0000 0.52555  0.85180  0.27110  Biso   1.000  C
  C49      1.0000 0.79090  0.27550  0.63000  Biso   1.000  C
  C50      1.0000 0.80990  0.26840  0.56560  Biso   1.000  C
  C51      1.0000 0.88810  0.30930  0.55800  Biso   1.000  C
  C52      1.0000 0.89790  0.29770  0.49640  Biso   1.000  C
  C53      1.0000 0.82570  0.25230  0.44180  Biso   1.000  C
  C54      1.0000 0.74000  0.21540  0.45040  Biso   1.000  C
  C55      1.0000 0.74000  0.22110  0.51160  Biso   1.000  C
  C56      1.0000 0.83560  0.25020  0.38000  Biso   1.000  C
  C57      1.0000 0.01070  0.11190  0.12960  Biso   1.000  C
  C58      1.0000 0.00782  0.05450  0.06244  Biso   1.000  C
  C59      1.0000 0.03480  0.01290  0.95400  Biso   1.000  C
  C60      1.0000 0.04120  0.06790  0.01440  Biso   1.000  C
  C61      1.0000 0.56670  0.44480  0.76000  Biso   1.000  C
  C62      1.0000 0.48580  0.49680  0.74920  Biso   1.000  C
  C63      1.0000 0.38480  0.49230  0.76240  Biso   1.000  C
  C64      1.0000 0.30910  0.54170  0.75540  Biso   1.000  C
  C65      1.0000 0.33343  0.59320  0.73546  Biso   1.000  C
  C66      1.0000 0.43610  0.59520  0.72300  Biso   1.000  C
  C67      1.0000 0.50860  0.54950  0.72880  Biso   1.000  C
  C68      1.0000 0.25445  0.64820  0.72890  Biso   1.000  C
  C69      1.0000 0.16090  0.22450  0.37000  Biso   1.000  C
  C70      1.0000 0.24430  0.23160  0.43440  Biso   1.000  C
  C71      1.0000 0.33010  0.19070  0.44200  Biso   1.000  C
  C72      1.0000 0.40150  0.20230  0.50360  Biso   1.000  C
  C73      1.0000 0.38390  0.24770  0.55820  Biso   1.000  C
  C74      1.0000 0.28960  0.28460  0.54960  Biso   1.000  C
  C75      1.0000 0.22840  0.27890  0.48840  Biso   1.000  C
  C76      1.0000 0.45560  0.24980  0.62000  Biso   1.000  C
  C77      1.0000 0.88110  0.38810  0.87040  Biso   1.000  C
  C78      1.0000 0.94538  0.44550  0.93756  Biso   1.000  C
  C79      1.0000 0.08080  0.48710  0.04600  Biso   1.000  C
  C80      1.0000 0.02680  0.43210  0.98560  Biso   1.000  C
  Cl1      1.0000 0.58810  0.03110  0.77000  Biso   1.000  Cl
  Cl2      1.0000 0.08120  0.06700  0.72260  Biso   1.000  Cl
  Cl3      1.0000 0.98385  0.64630  0.36890  Biso   1.000  Cl
  Cl4      1.0000 0.32070  0.87710  0.62060  Biso   1.000  Cl
  Cl5      1.0000 0.90073  0.84822  0.97126  Biso   1.000  Cl
  Cl6      1.0000 0.81810  0.46890  0.23000  Biso   1.000  Cl
  Cl7      1.0000 0.35860  0.43300  0.27740  Biso   1.000  Cl
  Cl8      1.0000 0.61495  0.85370  0.63110  Biso   1.000  Cl
  Cl9      1.0000 0.70010  0.62290  0.37940  Biso   1.000  Cl
  Cl10     1.0000 0.92947  0.65178  0.02874  Biso   1.000  Cl
  Cl11     1.0000 0.41190  0.96890  0.23000  Biso   1.000  Cl
  Cl12     1.0000 0.91880  0.93300  0.27740  Biso   1.000  Cl
  Cl13     1.0000 0.01615  0.35370  0.63110  Biso   1.000  Cl
  Cl14     1.0000 0.67930  0.12290  0.37940  Biso   1.000  Cl
  Cl15     1.0000 0.09927  0.15178  0.02874  Biso   1.000  Cl
  Cl16     1.0000 0.18190  0.53110  0.77000  Biso   1.000  Cl
  Cl17     1.0000 0.64140  0.56700  0.72260  Biso   1.000  Cl
  Cl18     1.0000 0.38505  0.14630  0.36890  Biso   1.000  Cl
  Cl19     1.0000 0.29990  0.37710  0.62060  Biso   1.000  Cl
  Cl20     1.0000 0.07053  0.34822  0.97126  Biso   1.000  Cl
  O1       1.0000 0.24327  0.91660  0.79614  Biso   1.000  O
  O2       1.0000 0.08893  0.92920  0.72846  Biso   1.000  O
  O3       1.0000 0.45339  0.20840  0.75638  Biso   1.000  O
  O4       1.0000 0.54901  0.12930  0.70102  Biso   1.000  O
  O5       1.0000 0.19932  0.66030  0.32744  Biso   1.000  O
  O6       1.0000 0.22832  0.77880  0.36284  Biso   1.000  O
  O7       1.0000 0.23272  0.79130  0.67404  Biso   1.000  O
  O8       1.0000 0.08290  0.70670  0.61460  Biso   1.000  O
  O9       1.0000 0.00681  0.82840  0.86362  Biso   1.000  O
  O10      1.0000 0.97269  0.91270  0.82818  Biso   1.000  O
  O11      1.0000 0.08577  0.78010  0.75274  Biso   1.000  O
  O12      1.0000 0.43498  0.83960  0.78916  Biso   1.000  O
  O13      1.0000 0.79342  0.16120  0.73544  Biso   1.000  O
  O14      1.0000 0.28502  0.82910  0.86984  Biso   1.000  O
  O15      1.0000 0.65960  0.08390  0.59920  Biso   1.000  O
  O16      1.0000 0.44713  0.58340  0.20386  Biso   1.000  O
  O17      1.0000 0.36047  0.57080  0.27154  Biso   1.000  O
  O18      1.0000 0.69701  0.29160  0.24362  Biso   1.000  O
  O19      1.0000 0.84799  0.37070  0.29898  Biso   1.000  O
  O20      1.0000 0.87188  0.83970  0.67256  Biso   1.000  O
  O21      1.0000 0.86548  0.72120  0.63716  Biso   1.000  O
  O22      1.0000 0.55868  0.70870  0.32596  Biso   1.000  O
  O23      1.0000 0.46830  0.79330  0.38540  Biso   1.000  O
  O24      1.0000 0.14319  0.67160  0.13638  Biso   1.000  O
  O25      1.0000 0.14451  0.58730  0.17182  Biso   1.000  O
  O26      1.0000 0.33303  0.71990  0.24726  Biso   1.000  O
  O27      1.0000 0.64582  0.66040  0.21084  Biso   1.000  O
  O28      1.0000 0.05798  0.33880  0.26456  Biso   1.000  O
  O29      1.0000 0.41518  0.67090  0.13016  Biso   1.000  O
  O30      1.0000 0.06040  0.41610  0.40080  Biso   1.000  O
  O31      1.0000 0.75673  0.08340  0.20386  Biso   1.000  O
  O32      1.0000 0.91107  0.07080  0.27154  Biso   1.000  O
  O33      1.0000 0.54661  0.79160  0.24362  Biso   1.000  O
  O34      1.0000 0.45099  0.87070  0.29898  Biso   1.000  O
  O35      1.0000 0.80068  0.33970  0.67256  Biso   1.000  O
  O36      1.0000 0.77168  0.22120  0.63716  Biso   1.000  O
  O37      1.0000 0.76728  0.20870  0.32596  Biso   1.000  O
  O38      1.0000 0.91710  0.29330  0.38540  Biso   1.000  O
  O39      1.0000 0.99319  0.17160  0.13638  Biso   1.000  O
  O40      1.0000 0.02731  0.08730  0.17182  Biso   1.000  O
  O41      1.0000 0.91423  0.21990  0.24726  Biso   1.000  O
  O42      1.0000 0.56502  0.16040  0.21084  Biso   1.000  O
  O43      1.0000 0.20658  0.83880  0.26456  Biso   1.000  O
  O44      1.0000 0.71498  0.17090  0.13016  Biso   1.000  O
  O45      1.0000 0.34040  0.91610  0.40080  Biso   1.000  O
  O46      1.0000 0.55287  0.41660  0.79614  Biso   1.000  O
  O47      1.0000 0.63953  0.42920  0.72846  Biso   1.000  O
  O48      1.0000 0.30299  0.70840  0.75638  Biso   1.000  O
  O49      1.0000 0.15201  0.62930  0.70102  Biso   1.000  O
  O50      1.0000 0.12812  0.16030  0.32744  Biso   1.000  O
  O51      1.0000 0.13452  0.27880  0.36284  Biso   1.000  O
  O52      1.0000 0.44132  0.29130  0.67404  Biso   1.000  O
  O53      1.0000 0.53170  0.20670  0.61460  Biso   1.000  O
  O54      1.0000 0.85681  0.32840  0.86362  Biso   1.000  O
  O55      1.0000 0.85549  0.41270  0.82818  Biso   1.000  O
  O56      1.0000 0.66697  0.28010  0.75274  Biso   1.000  O
  O57      1.0000 0.35418  0.33960  0.78916  Biso   1.000  O
  O58      1.0000 0.94202  0.66120  0.73544  Biso   1.000  O
  O59      1.0000 0.58482  0.32910  0.86984  Biso   1.000  O
  O60      1.0000 0.93960  0.58390  0.59920  Biso   1.000  O
