data_image0
_cell_length_a       12.458
_cell_length_b       17.3145
_cell_length_c       17.3145
_cell_angle_alpha    82.5637
_cell_angle_beta     68.9148
_cell_angle_gamma    68.9148

_symmetry_space_group_name_H-M    P 1
_symmetry_int_tables_number       1

loop_
  _symmetry_equiv_pos_as_xyz
  'x, y, z'

loop_
  _atom_site_label
  _atom_site_occupancy
  _atom_site_fract_x
  _atom_site_fract_y
  _atom_site_fract_z
  _atom_site_thermal_displace_type
  _atom_site_B_iso_or_equiv
  _atom_site_type_symbol
  Co1      1.0000 0.16159  0.17682  0.75000  Biso   1.000  Co
  Co2      1.0000 0.58841  0.32318  0.75000  Biso   1.000  Co
  Co3      1.0000 0.41159  0.25000  0.67682  Biso   1.000  Co
  Co4      1.0000 0.83841  0.25000  0.82318  Biso   1.000  Co
  Co5      1.0000 0.83841  0.82318  0.25000  Biso   1.000  Co
  Co6      1.0000 0.41159  0.67682  0.25000  Biso   1.000  Co
  Co7      1.0000 0.58841  0.75000  0.32318  Biso   1.000  Co
  Co8      1.0000 0.16159  0.75000  0.17682  Biso   1.000  Co
  H1       1.0000 0.18120  0.01690  0.66150  Biso   1.000  H
  H2       1.0000 0.82100  0.10570  0.73810  Biso   1.000  H
  H3       1.0000 0.80640  0.01590  0.65990  Biso   1.000  H
  H4       1.0000 0.35960  0.48310  0.83850  Biso   1.000  H
  H5       1.0000 0.16480  0.39430  0.76190  Biso   1.000  H
  H6       1.0000 0.98220  0.48410  0.84010  Biso   1.000  H
  H7       1.0000 0.34270  0.33850  0.51690  Biso   1.000  H
  H8       1.0000 0.05910  0.26190  0.60570  Biso   1.000  H
  H9       1.0000 0.96630  0.34010  0.51590  Biso   1.000  H
  H10      1.0000 0.69810  0.16150  0.98310  Biso   1.000  H
  H11      1.0000 0.42670  0.23810  0.89430  Biso   1.000  H
  H12      1.0000 0.32230  0.15990  0.98410  Biso   1.000  H
  H13      1.0000 0.64040  0.16150  0.51690  Biso   1.000  H
  H14      1.0000 0.83520  0.23810  0.60570  Biso   1.000  H
  H15      1.0000 0.01780  0.15990  0.51590  Biso   1.000  H
  H16      1.0000 0.81880  0.33850  0.98310  Biso   1.000  H
  H17      1.0000 0.17900  0.26190  0.89430  Biso   1.000  H
  H18      1.0000 0.19360  0.34010  0.98410  Biso   1.000  H
  H19      1.0000 0.30190  0.01690  0.83850  Biso   1.000  H
  H20      1.0000 0.57330  0.10570  0.76190  Biso   1.000  H
  H21      1.0000 0.67770  0.01590  0.84010  Biso   1.000  H
  H22      1.0000 0.65730  0.48310  0.66150  Biso   1.000  H
  H23      1.0000 0.94090  0.39430  0.73810  Biso   1.000  H
  H24      1.0000 0.03370  0.48410  0.65990  Biso   1.000  H
  H25      1.0000 0.81880  0.98310  0.33850  Biso   1.000  H
  H26      1.0000 0.17900  0.89430  0.26190  Biso   1.000  H
  H27      1.0000 0.19360  0.98410  0.34010  Biso   1.000  H
  H28      1.0000 0.64040  0.51690  0.16150  Biso   1.000  H
  H29      1.0000 0.83520  0.60570  0.23810  Biso   1.000  H
  H30      1.0000 0.01780  0.51590  0.15990  Biso   1.000  H
  H31      1.0000 0.65730  0.66150  0.48310  Biso   1.000  H
  H32      1.0000 0.94090  0.73810  0.39430  Biso   1.000  H
  H33      1.0000 0.03370  0.65990  0.48410  Biso   1.000  H
  H34      1.0000 0.30190  0.83850  0.01690  Biso   1.000  H
  H35      1.0000 0.57330  0.76190  0.10570  Biso   1.000  H
  H36      1.0000 0.67770  0.84010  0.01590  Biso   1.000  H
  H37      1.0000 0.35960  0.83850  0.48310  Biso   1.000  H
  H38      1.0000 0.16480  0.76190  0.39430  Biso   1.000  H
  H39      1.0000 0.98220  0.84010  0.48410  Biso   1.000  H
  H40      1.0000 0.18120  0.66150  0.01690  Biso   1.000  H
  H41      1.0000 0.82100  0.73810  0.10570  Biso   1.000  H
  H42      1.0000 0.80640  0.65990  0.01590  Biso   1.000  H
  H43      1.0000 0.69810  0.98310  0.16150  Biso   1.000  H
  H44      1.0000 0.42670  0.89430  0.23810  Biso   1.000  H
  H45      1.0000 0.32230  0.98410  0.15990  Biso   1.000  H
  H46      1.0000 0.34270  0.51690  0.33850  Biso   1.000  H
  H47      1.0000 0.05910  0.60570  0.26190  Biso   1.000  H
  H48      1.0000 0.96630  0.51590  0.34010  Biso   1.000  H
  H49      1.0000 0.15120  0.95290  0.54710  Biso   1.000  H
  H50      1.0000 0.79810  0.92700  0.57300  Biso   1.000  H
  H51      1.0000 0.15120  0.54710  0.95290  Biso   1.000  H
  H52      1.0000 0.79810  0.57300  0.92700  Biso   1.000  H
  H53      1.0000 0.19830  0.45290  0.45290  Biso   1.000  H
  H54      1.0000 0.87110  0.42700  0.42700  Biso   1.000  H
  H55      1.0000 0.60410  0.04710  0.04710  Biso   1.000  H
  H56      1.0000 0.22510  0.07300  0.07300  Biso   1.000  H
  H57      1.0000 0.84880  0.04710  0.45290  Biso   1.000  H
  H58      1.0000 0.20190  0.07300  0.42700  Biso   1.000  H
  H59      1.0000 0.84880  0.45290  0.04710  Biso   1.000  H
  H60      1.0000 0.20190  0.42700  0.07300  Biso   1.000  H
  H61      1.0000 0.39590  0.95290  0.95290  Biso   1.000  H
  H62      1.0000 0.77490  0.92700  0.92700  Biso   1.000  H
  H63      1.0000 0.80170  0.54710  0.54710  Biso   1.000  H
  H64      1.0000 0.12890  0.57300  0.57300  Biso   1.000  H
  C1       1.0000 0.10010  0.04930  0.68710  Biso   1.000  C
  C2       1.0000 0.99950  0.03440  0.68200  Biso   1.000  C
  C3       1.0000 0.90260  0.09740  0.72900  Biso   1.000  C
  C4       1.0000 0.98980  0.98450  0.62150  Biso   1.000  C
  C5       1.0000 0.87860  0.98160  0.62340  Biso   1.000  C
  C6       1.0000 0.33650  0.45070  0.81290  Biso   1.000  C
  C7       1.0000 0.21590  0.46560  0.81800  Biso   1.000  C
  C8       1.0000 0.22900  0.40260  0.77100  Biso   1.000  C
  C9       1.0000 0.09580  0.51550  0.87850  Biso   1.000  C
  C10      1.0000 0.98360  0.51840  0.87660  Biso   1.000  C
  C11      1.0000 0.28720  0.31290  0.54930  Biso   1.000  C
  C12      1.0000 0.18150  0.31800  0.53440  Biso   1.000  C
  C13      1.0000 0.13160  0.27100  0.59740  Biso   1.000  C
  C14      1.0000 0.11130  0.37850  0.48450  Biso   1.000  C
  C15      1.0000 0.00200  0.37660  0.48160  Biso   1.000  C
  C16      1.0000 0.64940  0.18710  0.95070  Biso   1.000  C
  C17      1.0000 0.53390  0.18200  0.96560  Biso   1.000  C
  C18      1.0000 0.50000  0.22900  0.90260  Biso   1.000  C
  C19      1.0000 0.47430  0.12150  0.01550  Biso   1.000  C
  C20      1.0000 0.36020  0.12340  0.01840  Biso   1.000  C
  C21      1.0000 0.66350  0.18710  0.54930  Biso   1.000  C
  C22      1.0000 0.78410  0.18200  0.53440  Biso   1.000  C
  C23      1.0000 0.77100  0.22900  0.59740  Biso   1.000  C
  C24      1.0000 0.90420  0.12150  0.48450  Biso   1.000  C
  C25      1.0000 0.01640  0.12340  0.48160  Biso   1.000  C
  C26      1.0000 0.89990  0.31290  0.95070  Biso   1.000  C
  C27      1.0000 0.00050  0.31800  0.96560  Biso   1.000  C
  C28      1.0000 0.09740  0.27100  0.90260  Biso   1.000  C
  C29      1.0000 0.01020  0.37850  0.01550  Biso   1.000  C
  C30      1.0000 0.12140  0.37660  0.01840  Biso   1.000  C
  C31      1.0000 0.35060  0.04930  0.81290  Biso   1.000  C
  C32      1.0000 0.46610  0.03440  0.81800  Biso   1.000  C
  C33      1.0000 0.50000  0.09740  0.77100  Biso   1.000  C
  C34      1.0000 0.52570  0.98450  0.87850  Biso   1.000  C
  C35      1.0000 0.63980  0.98160  0.87660  Biso   1.000  C
  C36      1.0000 0.71280  0.45070  0.68710  Biso   1.000  C
  C37      1.0000 0.81850  0.46560  0.68200  Biso   1.000  C
  C38      1.0000 0.86840  0.40260  0.72900  Biso   1.000  C
  C39      1.0000 0.88870  0.51550  0.62150  Biso   1.000  C
  C40      1.0000 0.99800  0.51840  0.62340  Biso   1.000  C
  C41      1.0000 0.89990  0.95070  0.31290  Biso   1.000  C
  C42      1.0000 0.00050  0.96560  0.31800  Biso   1.000  C
  C43      1.0000 0.09740  0.90260  0.27100  Biso   1.000  C
  C44      1.0000 0.01020  0.01550  0.37850  Biso   1.000  C
  C45      1.0000 0.12140  0.01840  0.37660  Biso   1.000  C
  C46      1.0000 0.66350  0.54930  0.18710  Biso   1.000  C
  C47      1.0000 0.78410  0.53440  0.18200  Biso   1.000  C
  C48      1.0000 0.77100  0.59740  0.22900  Biso   1.000  C
  C49      1.0000 0.90420  0.48450  0.12150  Biso   1.000  C
  C50      1.0000 0.01640  0.48160  0.12340  Biso   1.000  C
  C51      1.0000 0.71280  0.68710  0.45070  Biso   1.000  C
  C52      1.0000 0.81850  0.68200  0.46560  Biso   1.000  C
  C53      1.0000 0.86840  0.72900  0.40260  Biso   1.000  C
  C54      1.0000 0.88870  0.62150  0.51550  Biso   1.000  C
  C55      1.0000 0.99800  0.62340  0.51840  Biso   1.000  C
  C56      1.0000 0.35060  0.81290  0.04930  Biso   1.000  C
  C57      1.0000 0.46610  0.81800  0.03440  Biso   1.000  C
  C58      1.0000 0.50000  0.77100  0.09740  Biso   1.000  C
  C59      1.0000 0.52570  0.87850  0.98450  Biso   1.000  C
  C60      1.0000 0.63980  0.87660  0.98160  Biso   1.000  C
  C61      1.0000 0.33650  0.81290  0.45070  Biso   1.000  C
  C62      1.0000 0.21590  0.81800  0.46560  Biso   1.000  C
  C63      1.0000 0.22900  0.77100  0.40260  Biso   1.000  C
  C64      1.0000 0.09580  0.87850  0.51550  Biso   1.000  C
  C65      1.0000 0.98360  0.87660  0.51840  Biso   1.000  C
  C66      1.0000 0.10010  0.68710  0.04930  Biso   1.000  C
  C67      1.0000 0.99950  0.68200  0.03440  Biso   1.000  C
  C68      1.0000 0.90260  0.72900  0.09740  Biso   1.000  C
  C69      1.0000 0.98980  0.62150  0.98450  Biso   1.000  C
  C70      1.0000 0.87860  0.62340  0.98160  Biso   1.000  C
  C71      1.0000 0.64940  0.95070  0.18710  Biso   1.000  C
  C72      1.0000 0.53390  0.96560  0.18200  Biso   1.000  C
  C73      1.0000 0.50000  0.90260  0.22900  Biso   1.000  C
  C74      1.0000 0.47430  0.01550  0.12150  Biso   1.000  C
  C75      1.0000 0.36020  0.01840  0.12340  Biso   1.000  C
  C76      1.0000 0.28720  0.54930  0.31290  Biso   1.000  C
  C77      1.0000 0.18150  0.53440  0.31800  Biso   1.000  C
  C78      1.0000 0.13160  0.59740  0.27100  Biso   1.000  C
  C79      1.0000 0.11130  0.48450  0.37850  Biso   1.000  C
  C80      1.0000 0.00200  0.48160  0.37660  Biso   1.000  C
  C81      1.0000 0.10470  0.92110  0.57890  Biso   1.000  C
  C82      1.0000 0.87300  0.92810  0.57190  Biso   1.000  C
  C83      1.0000 0.10470  0.57890  0.92110  Biso   1.000  C
  C84      1.0000 0.87300  0.57190  0.92810  Biso   1.000  C
  C85      1.0000 0.18360  0.42110  0.42110  Biso   1.000  C
  C86      1.0000 0.94490  0.42810  0.42810  Biso   1.000  C
  C87      1.0000 0.52580  0.07890  0.07890  Biso   1.000  C
  C88      1.0000 0.30110  0.07190  0.07190  Biso   1.000  C
  C89      1.0000 0.89530  0.07890  0.42110  Biso   1.000  C
  C90      1.0000 0.12700  0.07190  0.42810  Biso   1.000  C
  C91      1.0000 0.89530  0.42110  0.07890  Biso   1.000  C
  C92      1.0000 0.12700  0.42810  0.07190  Biso   1.000  C
  C93      1.0000 0.47420  0.92110  0.92110  Biso   1.000  C
  C94      1.0000 0.69890  0.92810  0.92810  Biso   1.000  C
  C95      1.0000 0.81640  0.57890  0.57890  Biso   1.000  C
  C96      1.0000 0.05510  0.57190  0.57190  Biso   1.000  C
  N1       1.0000 0.06480  0.11580  0.73320  Biso   1.000  N
  N2       1.0000 0.94090  0.14540  0.76000  Biso   1.000  N
  N3       1.0000 0.41380  0.38420  0.76680  Biso   1.000  N
  N4       1.0000 0.34630  0.35460  0.74000  Biso   1.000  N
  N5       1.0000 0.29800  0.26680  0.61580  Biso   1.000  N
  N6       1.0000 0.20090  0.24000  0.64540  Biso   1.000  N
  N7       1.0000 0.68060  0.23320  0.88420  Biso   1.000  N
  N8       1.0000 0.58630  0.26000  0.85460  Biso   1.000  N
  N9       1.0000 0.58620  0.23320  0.61580  Biso   1.000  N
  N10      1.0000 0.65370  0.26000  0.64540  Biso   1.000  N
  N11      1.0000 0.93520  0.26680  0.88420  Biso   1.000  N
  N12      1.0000 0.05910  0.24000  0.85460  Biso   1.000  N
  N13      1.0000 0.31940  0.11580  0.76680  Biso   1.000  N
  N14      1.0000 0.41370  0.14540  0.74000  Biso   1.000  N
  N15      1.0000 0.70200  0.38420  0.73320  Biso   1.000  N
  N16      1.0000 0.79910  0.35460  0.76000  Biso   1.000  N
  N17      1.0000 0.93520  0.88420  0.26680  Biso   1.000  N
  N18      1.0000 0.05910  0.85460  0.24000  Biso   1.000  N
  N19      1.0000 0.58620  0.61580  0.23320  Biso   1.000  N
  N20      1.0000 0.65370  0.64540  0.26000  Biso   1.000  N
  N21      1.0000 0.70200  0.73320  0.38420  Biso   1.000  N
  N22      1.0000 0.79910  0.76000  0.35460  Biso   1.000  N
  N23      1.0000 0.31940  0.76680  0.11580  Biso   1.000  N
  N24      1.0000 0.41370  0.74000  0.14540  Biso   1.000  N
  N25      1.0000 0.41380  0.76680  0.38420  Biso   1.000  N
  N26      1.0000 0.34630  0.74000  0.35460  Biso   1.000  N
  N27      1.0000 0.06480  0.73320  0.11580  Biso   1.000  N
  N28      1.0000 0.94090  0.76000  0.14540  Biso   1.000  N
  N29      1.0000 0.68060  0.88420  0.23320  Biso   1.000  N
  N30      1.0000 0.58630  0.85460  0.26000  Biso   1.000  N
  N31      1.0000 0.29800  0.61580  0.26680  Biso   1.000  N
  N32      1.0000 0.20090  0.64540  0.24000  Biso   1.000  N
