data_image0
_cell_length_a       16.4276
_cell_length_b       13.6108
_cell_length_c       6.863
_cell_angle_alpha    90
_cell_angle_beta     90
_cell_angle_gamma    90

_symmetry_space_group_name_H-M    "P 1"
_symmetry_int_tables_number       1

loop_
  _symmetry_equiv_pos_as_xyz
  'x, y, z'

loop_
  _atom_site_label
  _atom_site_occupancy
  _atom_site_fract_x
  _atom_site_fract_y
  _atom_site_fract_z
  _atom_site_thermal_displace_type
  _atom_site_B_iso_or_equiv
  _atom_site_type_symbol
  O1       1.0000 0.16479  0.83993  0.12879  Biso   1.000  O
  C1       1.0000 0.03733  0.97102  0.82240  Biso   1.000  C
  H1       1.0000 0.06342  0.93404  0.68297  Biso   1.000  H
  O2       1.0000 0.66479  0.33993  0.62879  Biso   1.000  O
  C2       1.0000 0.53733  0.47102  0.32240  Biso   1.000  C
  H2       1.0000 0.56342  0.43404  0.18297  Biso   1.000  H
  O3       1.0000 0.33521  0.83993  0.87121  Biso   1.000  O
  C3       1.0000 0.46267  0.97102  0.17760  Biso   1.000  C
  H3       1.0000 0.43658  0.93404  0.31703  Biso   1.000  H
  O4       1.0000 0.83521  0.33993  0.37121  Biso   1.000  O
  C4       1.0000 0.96267  0.47102  0.67760  Biso   1.000  C
  H4       1.0000 0.93658  0.43404  0.81703  Biso   1.000  H
  O5       1.0000 0.66479  0.16007  0.87121  Biso   1.000  O
  C5       1.0000 0.53733  0.02898  0.17760  Biso   1.000  C
  H5       1.0000 0.56342  0.06596  0.31703  Biso   1.000  H
  O6       1.0000 0.16479  0.66007  0.37121  Biso   1.000  O
  C6       1.0000 0.03733  0.52898  0.67760  Biso   1.000  C
  H6       1.0000 0.06342  0.56596  0.81703  Biso   1.000  H
  O7       1.0000 0.83521  0.16007  0.12879  Biso   1.000  O
  C7       1.0000 0.96267  0.02898  0.82240  Biso   1.000  C
  H7       1.0000 0.93658  0.06596  0.68297  Biso   1.000  H
  O8       1.0000 0.33521  0.66007  0.62879  Biso   1.000  O
  C8       1.0000 0.46267  0.52898  0.32240  Biso   1.000  C
  H8       1.0000 0.43658  0.56596  0.18297  Biso   1.000  H
  O9       1.0000 0.83521  0.16007  0.87121  Biso   1.000  O
  C9       1.0000 0.96267  0.02898  0.17760  Biso   1.000  C
  H9       1.0000 0.93658  0.06596  0.31703  Biso   1.000  H
  O10      1.0000 0.33521  0.66007  0.37121  Biso   1.000  O
  C10      1.0000 0.46267  0.52898  0.67760  Biso   1.000  C
  H10      1.0000 0.43658  0.56596  0.81703  Biso   1.000  H
  O11      1.0000 0.66479  0.16007  0.12879  Biso   1.000  O
  C11      1.0000 0.53733  0.02898  0.82240  Biso   1.000  C
  H11      1.0000 0.56342  0.06596  0.68297  Biso   1.000  H
  O12      1.0000 0.16479  0.66007  0.62879  Biso   1.000  O
  C12      1.0000 0.03733  0.52898  0.32240  Biso   1.000  C
  H12      1.0000 0.06342  0.56596  0.18297  Biso   1.000  H
  O13      1.0000 0.33521  0.83993  0.12879  Biso   1.000  O
  C13      1.0000 0.46267  0.97102  0.82240  Biso   1.000  C
  H13      1.0000 0.43658  0.93404  0.68297  Biso   1.000  H
  O14      1.0000 0.83521  0.33993  0.62879  Biso   1.000  O
  C14      1.0000 0.96267  0.47102  0.32240  Biso   1.000  C
  H14      1.0000 0.93658  0.43404  0.18297  Biso   1.000  H
  O15      1.0000 0.16479  0.83993  0.87121  Biso   1.000  O
  C15      1.0000 0.03733  0.97102  0.17760  Biso   1.000  C
  H15      1.0000 0.06342  0.93404  0.31703  Biso   1.000  H
  O16      1.0000 0.66479  0.33993  0.37121  Biso   1.000  O
  C16      1.0000 0.53733  0.47102  0.67760  Biso   1.000  C
  H16      1.0000 0.56342  0.43404  0.81703  Biso   1.000  H
  C17      1.0000 0.06831  0.94703  0.00000  Biso   1.000  C
  C18      1.0000 0.12760  0.86979  0.00000  Biso   1.000  C
  C19      1.0000 0.56831  0.44703  0.50000  Biso   1.000  C
  C20      1.0000 0.62760  0.36979  0.50000  Biso   1.000  C
  C21      1.0000 0.43169  0.94703  0.00000  Biso   1.000  C
  C22      1.0000 0.37240  0.86979  0.00000  Biso   1.000  C
  C23      1.0000 0.93169  0.44703  0.50000  Biso   1.000  C
  C24      1.0000 0.87240  0.36979  0.50000  Biso   1.000  C
  C25      1.0000 0.56831  0.05297  0.00000  Biso   1.000  C
  C26      1.0000 0.62760  0.13021  0.00000  Biso   1.000  C
  C27      1.0000 0.06831  0.55297  0.50000  Biso   1.000  C
  C28      1.0000 0.12760  0.63021  0.50000  Biso   1.000  C
  C29      1.0000 0.93169  0.05297  0.00000  Biso   1.000  C
  C30      1.0000 0.87240  0.13021  0.00000  Biso   1.000  C
  C31      1.0000 0.43169  0.55297  0.50000  Biso   1.000  C
  C32      1.0000 0.37240  0.63021  0.50000  Biso   1.000  C
  Cr1      1.0000 0.25000  0.75000  0.25000  Biso   1.000  Cr
  Cr2      1.0000 0.25000  0.75000  0.75000  Biso   1.000  Cr
  Cr3      1.0000 0.75000  0.25000  0.75000  Biso   1.000  Cr
  Cr4      1.0000 0.75000  0.25000  0.25000  Biso   1.000  Cr
  O17      1.0000 0.25000  0.72457  0.00000  Biso   1.000  O
  O18      1.0000 0.75000  0.22457  0.50000  Biso   1.000  O
  O19      1.0000 0.75000  0.27543  0.00000  Biso   1.000  O
  O20      1.0000 0.25000  0.77543  0.50000  Biso   1.000  O
