data_image0
_cell_length_a       12.6992
_cell_length_b       12.6992
_cell_length_c       13.3781
_cell_angle_alpha    63.5325
_cell_angle_beta     63.5325
_cell_angle_gamma    88.3975

_symmetry_space_group_name_H-M    P 1
_symmetry_int_tables_number       1

loop_
  _symmetry_equiv_pos_as_xyz
  'x, y, z'

loop_
  _atom_site_label
  _atom_site_occupancy
  _atom_site_fract_x
  _atom_site_fract_y
  _atom_site_fract_z
  _atom_site_thermal_displace_type
  _atom_site_B_iso_or_equiv
  _atom_site_type_symbol
  Mn1      1.0000 0.50000  0.00000  0.00000  Biso   1.000  Mn
  Mn2      1.0000 0.00000  0.50000  0.50000  Biso   1.000  Mn
  Mn3      1.0000 0.30516  0.69484  0.25000  Biso   1.000  Mn
  Mn4      1.0000 0.69484  0.30516  0.75000  Biso   1.000  Mn
  H1       1.0000 0.74850  0.83650  0.77030  Biso   1.000  H
  H2       1.0000 0.85610  0.72830  0.67460  Biso   1.000  H
  H3       1.0000 0.65130  0.42130  0.99310  Biso   1.000  H
  H4       1.0000 0.54640  0.52960  0.09070  Biso   1.000  H
  H5       1.0000 0.23770  0.80470  0.00630  Biso   1.000  H
  H6       1.0000 0.08750  0.85930  0.95470  Biso   1.000  H
  H7       1.0000 0.04650  0.09010  0.09120  Biso   1.000  H
  H8       1.0000 0.20110  0.03530  0.13450  Biso   1.000  H
  H9       1.0000 0.16350  0.25150  0.72970  Biso   1.000  H
  H10      1.0000 0.27170  0.14390  0.82540  Biso   1.000  H
  H11      1.0000 0.57870  0.34870  0.50690  Biso   1.000  H
  H12      1.0000 0.47040  0.45360  0.40930  Biso   1.000  H
  H13      1.0000 0.19530  0.76230  0.49370  Biso   1.000  H
  H14      1.0000 0.14070  0.91250  0.54530  Biso   1.000  H
  H15      1.0000 0.90990  0.95350  0.40880  Biso   1.000  H
  H16      1.0000 0.96470  0.79890  0.36550  Biso   1.000  H
  H17      1.0000 0.25150  0.16350  0.22970  Biso   1.000  H
  H18      1.0000 0.14390  0.27170  0.32540  Biso   1.000  H
  H19      1.0000 0.34870  0.57870  0.00690  Biso   1.000  H
  H20      1.0000 0.45360  0.47040  0.90930  Biso   1.000  H
  H21      1.0000 0.76230  0.19530  0.99370  Biso   1.000  H
  H22      1.0000 0.91250  0.14070  0.04530  Biso   1.000  H
  H23      1.0000 0.95350  0.90990  0.90880  Biso   1.000  H
  H24      1.0000 0.79890  0.96470  0.86550  Biso   1.000  H
  H25      1.0000 0.83650  0.74850  0.27030  Biso   1.000  H
  H26      1.0000 0.72830  0.85610  0.17460  Biso   1.000  H
  H27      1.0000 0.42130  0.65130  0.49310  Biso   1.000  H
  H28      1.0000 0.52960  0.54640  0.59070  Biso   1.000  H
  H29      1.0000 0.80470  0.23770  0.50630  Biso   1.000  H
  H30      1.0000 0.85930  0.08750  0.45470  Biso   1.000  H
  H31      1.0000 0.09010  0.04650  0.59120  Biso   1.000  H
  H32      1.0000 0.03530  0.20110  0.63450  Biso   1.000  H
  C1       1.0000 0.55947  0.76433  0.00110  Biso   1.000  C
  C2       1.0000 0.63465  0.69495  0.93950  Biso   1.000  C
  C3       1.0000 0.72840  0.75280  0.81550  Biso   1.000  C
  C4       1.0000 0.79280  0.68800  0.75780  Biso   1.000  C
  C5       1.0000 0.76351  0.56309  0.82310  Biso   1.000  C
  C6       1.0000 0.67100  0.50500  0.94790  Biso   1.000  C
  C7       1.0000 0.60753  0.56987  0.00630  Biso   1.000  C
  C8       1.0000 0.82628  0.49312  0.75610  Biso   1.000  C
  C9       1.0000 0.19840  0.86240  0.02330  Biso   1.000  C
  C10      1.0000 0.10850  0.89530  0.99240  Biso   1.000  C
  C11      1.0000 0.04841  0.98159  0.01670  Biso   1.000  C
  C12      1.0000 0.08460  0.03260  0.07250  Biso   1.000  C
  C13      1.0000 0.17590  0.99850  0.10000  Biso   1.000  C
  C14      1.0000 0.23567  0.44053  0.49890  Biso   1.000  C
  C15      1.0000 0.30505  0.36535  0.56050  Biso   1.000  C
  C16      1.0000 0.24720  0.27160  0.68450  Biso   1.000  C
  C17      1.0000 0.31200  0.20720  0.74220  Biso   1.000  C
  C18      1.0000 0.43691  0.23649  0.67690  Biso   1.000  C
  C19      1.0000 0.49500  0.32900  0.55210  Biso   1.000  C
  C20      1.0000 0.43013  0.39247  0.49370  Biso   1.000  C
  C21      1.0000 0.50688  0.17372  0.74390  Biso   1.000  C
  C22      1.0000 0.13760  0.80160  0.47670  Biso   1.000  C
  C23      1.0000 0.10470  0.89150  0.50760  Biso   1.000  C
  C24      1.0000 0.01841  0.95159  0.48330  Biso   1.000  C
  C25      1.0000 0.96740  0.91540  0.42750  Biso   1.000  C
  C26      1.0000 0.00150  0.82410  0.40000  Biso   1.000  C
  C27      1.0000 0.44053  0.23567  0.99890  Biso   1.000  C
  C28      1.0000 0.36535  0.30505  0.06050  Biso   1.000  C
  C29      1.0000 0.27160  0.24720  0.18450  Biso   1.000  C
  C30      1.0000 0.20720  0.31200  0.24220  Biso   1.000  C
  C31      1.0000 0.23649  0.43691  0.17690  Biso   1.000  C
  C32      1.0000 0.32900  0.49500  0.05210  Biso   1.000  C
  C33      1.0000 0.39247  0.43013  0.99370  Biso   1.000  C
  C34      1.0000 0.17372  0.50688  0.24390  Biso   1.000  C
  C35      1.0000 0.80160  0.13760  0.97670  Biso   1.000  C
  C36      1.0000 0.89150  0.10470  0.00760  Biso   1.000  C
  C37      1.0000 0.95159  0.01841  0.98330  Biso   1.000  C
  C38      1.0000 0.91540  0.96740  0.92750  Biso   1.000  C
  C39      1.0000 0.82410  0.00150  0.90000  Biso   1.000  C
  C40      1.0000 0.76433  0.55947  0.50110  Biso   1.000  C
  C41      1.0000 0.69495  0.63465  0.43950  Biso   1.000  C
  C42      1.0000 0.75280  0.72840  0.31550  Biso   1.000  C
  C43      1.0000 0.68800  0.79280  0.25780  Biso   1.000  C
  C44      1.0000 0.56309  0.76351  0.32310  Biso   1.000  C
  C45      1.0000 0.50500  0.67100  0.44790  Biso   1.000  C
  C46      1.0000 0.56987  0.60753  0.50630  Biso   1.000  C
  C47      1.0000 0.49312  0.82628  0.25610  Biso   1.000  C
  C48      1.0000 0.86240  0.19840  0.52330  Biso   1.000  C
  C49      1.0000 0.89530  0.10850  0.49240  Biso   1.000  C
  C50      1.0000 0.98159  0.04841  0.51670  Biso   1.000  C
  C51      1.0000 0.03260  0.08460  0.57250  Biso   1.000  C
  C52      1.0000 0.99850  0.17590  0.60000  Biso   1.000  C
  N1       1.0000 0.22936  0.91312  0.07780  Biso   1.000  N
  N2       1.0000 0.08688  0.77064  0.42220  Biso   1.000  N
  N3       1.0000 0.77064  0.08688  0.92220  Biso   1.000  N
  N4       1.0000 0.91312  0.22936  0.57780  Biso   1.000  N
  O1       1.0000 0.47979  0.70301  0.11560  Biso   1.000  O
  O2       1.0000 0.58230  0.87634  0.93460  Biso   1.000  O
  O3       1.0000 0.78235  0.38185  0.81380  Biso   1.000  O
  O4       1.0000 0.91663  0.54941  0.64790  Biso   1.000  O
  O5       1.0000 0.31551  0.87947  0.10960  Biso   1.000  O
  O6       1.0000 0.29699  0.52021  0.38440  Biso   1.000  O
  O7       1.0000 0.12366  0.41770  0.56540  Biso   1.000  O
  O8       1.0000 0.61815  0.21765  0.68620  Biso   1.000  O
  O9       1.0000 0.45059  0.08337  0.85210  Biso   1.000  O
  O10      1.0000 0.12053  0.68449  0.39040  Biso   1.000  O
  O11      1.0000 0.52021  0.29699  0.88440  Biso   1.000  O
  O12      1.0000 0.41770  0.12366  0.06540  Biso   1.000  O
  O13      1.0000 0.21765  0.61815  0.18620  Biso   1.000  O
  O14      1.0000 0.08337  0.45059  0.35210  Biso   1.000  O
  O15      1.0000 0.68449  0.12053  0.89040  Biso   1.000  O
  O16      1.0000 0.70301  0.47979  0.61560  Biso   1.000  O
  O17      1.0000 0.87634  0.58230  0.43460  Biso   1.000  O
  O18      1.0000 0.38185  0.78235  0.31380  Biso   1.000  O
  O19      1.0000 0.54941  0.91663  0.14790  Biso   1.000  O
  O20      1.0000 0.87947  0.31551  0.60960  Biso   1.000  O
