data_image0
_cell_length_a       12.564
_cell_length_b       12.6461
_cell_length_c       12.6461
_cell_angle_alpha    91.6371
_cell_angle_beta     113.87
_cell_angle_gamma    113.87

_symmetry_space_group_name_H-M    P 1
_symmetry_int_tables_number       1

loop_
  _symmetry_equiv_pos_as_xyz
  'x, y, z'

loop_
  _atom_site_label
  _atom_site_occupancy
  _atom_site_fract_x
  _atom_site_fract_y
  _atom_site_fract_z
  _atom_site_thermal_displace_type
  _atom_site_B_iso_or_equiv
  _atom_site_type_symbol
  Mn1      1.0000 0.25000  0.69610  0.30390  Biso   1.000  Mn
  Mn2      1.0000 0.75000  0.30390  0.69610  Biso   1.000  Mn
  Mn3      1.0000 0.00000  0.50000  0.00000  Biso   1.000  Mn
  Mn4      1.0000 0.50000  0.00000  0.50000  Biso   1.000  Mn
  H1       1.0000 0.50480  0.57720  0.34540  Biso   1.000  H
  H2       1.0000 0.60060  0.46710  0.45090  Biso   1.000  H
  H3       1.0000 0.27690  0.16760  0.24600  Biso   1.000  H
  H4       1.0000 0.18760  0.27710  0.13430  Biso   1.000  H
  H5       1.0000 0.13660  0.78510  0.96430  Biso   1.000  H
  H6       1.0000 0.09130  0.93910  0.90730  Biso   1.000  H
  H7       1.0000 0.95340  0.92620  0.14340  Biso   1.000  H
  H8       1.0000 0.00450  0.77460  0.19900  Biso   1.000  H
  H9       1.0000 0.99520  0.65460  0.42280  Biso   1.000  H
  H10      1.0000 0.89940  0.54910  0.53290  Biso   1.000  H
  H11      1.0000 0.22310  0.75400  0.83240  Biso   1.000  H
  H12      1.0000 0.31240  0.86570  0.72290  Biso   1.000  H
  H13      1.0000 0.36340  0.03570  0.21490  Biso   1.000  H
  H14      1.0000 0.40870  0.09270  0.06090  Biso   1.000  H
  H15      1.0000 0.54660  0.85660  0.07380  Biso   1.000  H
  H16      1.0000 0.49550  0.80100  0.22540  Biso   1.000  H
  H17      1.0000 0.49520  0.42280  0.65460  Biso   1.000  H
  H18      1.0000 0.39940  0.53290  0.54910  Biso   1.000  H
  H19      1.0000 0.72310  0.83240  0.75400  Biso   1.000  H
  H20      1.0000 0.81240  0.72290  0.86570  Biso   1.000  H
  H21      1.0000 0.86340  0.21490  0.03570  Biso   1.000  H
  H22      1.0000 0.90870  0.06090  0.09270  Biso   1.000  H
  H23      1.0000 0.04660  0.07380  0.85660  Biso   1.000  H
  H24      1.0000 0.99550  0.22540  0.80100  Biso   1.000  H
  H25      1.0000 0.00480  0.34540  0.57720  Biso   1.000  H
  H26      1.0000 0.10060  0.45090  0.46710  Biso   1.000  H
  H27      1.0000 0.77690  0.24600  0.16760  Biso   1.000  H
  H28      1.0000 0.68760  0.13430  0.27710  Biso   1.000  H
  H29      1.0000 0.63660  0.96430  0.78510  Biso   1.000  H
  H30      1.0000 0.59130  0.90730  0.93910  Biso   1.000  H
  H31      1.0000 0.45340  0.14340  0.92620  Biso   1.000  H
  H32      1.0000 0.50450  0.19900  0.77460  Biso   1.000  H
  C1       1.0000 0.26840  0.51040  0.16720  Biso   1.000  C
  C2       1.0000 0.33390  0.43895  0.22965  Biso   1.000  C
  C3       1.0000 0.45890  0.49470  0.32490  Biso   1.000  C
  C4       1.0000 0.51580  0.42870  0.38950  Biso   1.000  C
  C5       1.0000 0.44670  0.30550  0.36290  Biso   1.000  C
  C6       1.0000 0.32340  0.25010  0.26630  Biso   1.000  C
  C7       1.0000 0.26930  0.31590  0.20010  Biso   1.000  C
  C8       1.0000 0.50630  0.23640  0.44100  Biso   1.000  C
  C9       1.0000 0.10090  0.81520  0.00140  Biso   1.000  C
  C10      1.0000 0.07270  0.90690  0.96650  Biso   1.000  C
  C11      1.0000 0.01660  0.95190  0.01890  Biso   1.000  C
  C12      1.0000 0.99160  0.89950  0.10650  Biso   1.000  C
  C13      1.0000 0.02220  0.80850  0.14010  Biso   1.000  C
  C14      1.0000 0.23160  0.83280  0.48960  Biso   1.000  C
  C15      1.0000 0.16610  0.77035  0.56105  Biso   1.000  C
  C16      1.0000 0.04110  0.67510  0.50530  Biso   1.000  C
  C17      1.0000 0.98420  0.61050  0.57130  Biso   1.000  C
  C18      1.0000 0.05330  0.63710  0.69450  Biso   1.000  C
  C19      1.0000 0.17660  0.73370  0.74990  Biso   1.000  C
  C20      1.0000 0.23070  0.79990  0.68410  Biso   1.000  C
  C21      1.0000 0.99370  0.55900  0.76360  Biso   1.000  C
  C22      1.0000 0.39910  0.99860  0.18480  Biso   1.000  C
  C23      1.0000 0.42730  0.03350  0.09310  Biso   1.000  C
  C24      1.0000 0.48340  0.98110  0.04810  Biso   1.000  C
  C25      1.0000 0.50840  0.89350  0.10050  Biso   1.000  C
  C26      1.0000 0.47780  0.85990  0.19150  Biso   1.000  C
  C27      1.0000 0.73160  0.48960  0.83280  Biso   1.000  C
  C28      1.0000 0.66610  0.56105  0.77035  Biso   1.000  C
  C29      1.0000 0.54110  0.50530  0.67510  Biso   1.000  C
  C30      1.0000 0.48420  0.57130  0.61050  Biso   1.000  C
  C31      1.0000 0.55330  0.69450  0.63710  Biso   1.000  C
  C32      1.0000 0.67660  0.74990  0.73370  Biso   1.000  C
  C33      1.0000 0.73070  0.68410  0.79990  Biso   1.000  C
  C34      1.0000 0.49370  0.76360  0.55900  Biso   1.000  C
  C35      1.0000 0.89910  0.18480  0.99860  Biso   1.000  C
  C36      1.0000 0.92730  0.09310  0.03350  Biso   1.000  C
  C37      1.0000 0.98340  0.04810  0.98110  Biso   1.000  C
  C38      1.0000 0.00840  0.10050  0.89350  Biso   1.000  C
  C39      1.0000 0.97780  0.19150  0.85990  Biso   1.000  C
  C40      1.0000 0.76840  0.16720  0.51040  Biso   1.000  C
  C41      1.0000 0.83390  0.22965  0.43895  Biso   1.000  C
  C42      1.0000 0.95890  0.32490  0.49470  Biso   1.000  C
  C43      1.0000 0.01580  0.38950  0.42870  Biso   1.000  C
  C44      1.0000 0.94670  0.36290  0.30550  Biso   1.000  C
  C45      1.0000 0.82340  0.26630  0.25010  Biso   1.000  C
  C46      1.0000 0.76930  0.20010  0.31590  Biso   1.000  C
  C47      1.0000 0.00630  0.44100  0.23640  Biso   1.000  C
  C48      1.0000 0.60090  0.00140  0.81520  Biso   1.000  C
  C49      1.0000 0.57270  0.96650  0.90690  Biso   1.000  C
  C50      1.0000 0.51660  0.01890  0.95190  Biso   1.000  C
  C51      1.0000 0.49160  0.10650  0.89950  Biso   1.000  C
  C52      1.0000 0.52220  0.14010  0.80850  Biso   1.000  C
  N1       1.0000 0.07730  0.76938  0.08802  Biso   1.000  N
  N2       1.0000 0.42270  0.91198  0.23062  Biso   1.000  N
  N3       1.0000 0.92270  0.23062  0.91198  Biso   1.000  N
  N4       1.0000 0.57730  0.08802  0.76938  Biso   1.000  N
  O1       1.0000 0.32300  0.62002  0.21322  Biso   1.000  O
  O2       1.0000 0.16260  0.45760  0.07248  Biso   1.000  O
  O3       1.0000 0.61870  0.29552  0.52406  Biso   1.000  O
  O4       1.0000 0.43690  0.12459  0.41729  Biso   1.000  O
  O5       1.0000 0.10700  0.68209  0.12189  Biso   1.000  O
  O6       1.0000 0.17700  0.78678  0.37998  Biso   1.000  O
  O7       1.0000 0.33740  0.92752  0.54240  Biso   1.000  O
  O8       1.0000 0.88130  0.47594  0.70448  Biso   1.000  O
  O9       1.0000 0.06310  0.58271  0.87541  Biso   1.000  O
  O10      1.0000 0.39300  0.87811  0.31791  Biso   1.000  O
  O11      1.0000 0.67700  0.37998  0.78678  Biso   1.000  O
  O12      1.0000 0.83740  0.54240  0.92752  Biso   1.000  O
  O13      1.0000 0.38130  0.70448  0.47594  Biso   1.000  O
  O14      1.0000 0.56310  0.87541  0.58271  Biso   1.000  O
  O15      1.0000 0.89300  0.31791  0.87811  Biso   1.000  O
  O16      1.0000 0.82300  0.21322  0.62002  Biso   1.000  O
  O17      1.0000 0.66260  0.07248  0.45760  Biso   1.000  O
  O18      1.0000 0.11870  0.52406  0.29552  Biso   1.000  O
  O19      1.0000 0.93690  0.41729  0.12459  Biso   1.000  O
  O20      1.0000 0.60700  0.12189  0.68209  Biso   1.000  O
