data_image0
_cell_length_a       12.7405
_cell_length_b       12.7405
_cell_length_c       13.7595
_cell_angle_alpha    66.3888
_cell_angle_beta     65.3679
_cell_angle_gamma    96.7371

_symmetry_space_group_name_H-M    P 1
_symmetry_int_tables_number       1

loop_
  _symmetry_equiv_pos_as_xyz
  'x, y, z'

loop_
  _atom_site_label
  _atom_site_occupancy
  _atom_site_fract_x
  _atom_site_fract_y
  _atom_site_fract_z
  _atom_site_thermal_displace_type
  _atom_site_B_iso_or_equiv
  _atom_site_type_symbol
  Mn1      1.0000 0.31145  0.06145  0.75000  Biso   1.000  Mn
  Mn2      1.0000 0.68855  0.93855  0.25000  Biso   1.000  Mn
  Mn3      1.0000 0.50000  0.00000  0.50000  Biso   1.000  Mn
  Mn4      1.0000 0.00000  0.00000  0.00000  Biso   1.000  Mn
  H1       1.0000 0.55350  0.39690  0.58120  Biso   1.000  H
  H2       1.0000 0.65170  0.60290  0.47980  Biso   1.000  H
  H3       1.0000 0.85560  0.59530  0.17250  Biso   1.000  H
  H4       1.0000 0.75270  0.39050  0.27180  Biso   1.000  H
  H5       1.0000 0.20170  0.76870  0.97840  Biso   1.000  H
  H6       1.0000 0.14790  0.56750  0.02860  Biso   1.000  H
  H7       1.0000 0.90490  0.61340  0.92230  Biso   1.000  H
  H8       1.0000 0.96060  0.81220  0.87480  Biso   1.000  H
  H9       1.0000 0.47810  0.13470  0.91880  Biso   1.000  H
  H10      1.0000 0.58270  0.13150  0.02020  Biso   1.000  H
  H11      1.0000 0.26780  0.02810  0.32750  Biso   1.000  H
  H12      1.0000 0.16230  0.02450  0.22820  Biso   1.000  H
  H13      1.0000 0.24710  0.18010  0.52160  Biso   1.000  H
  H14      1.0000 0.09610  0.17650  0.47140  Biso   1.000  H
  H15      1.0000 0.03570  0.82720  0.57770  Biso   1.000  H
  H16      1.0000 0.18700  0.83540  0.62520  Biso   1.000  H
  H17      1.0000 0.44650  0.60310  0.41880  Biso   1.000  H
  H18      1.0000 0.34830  0.39710  0.52020  Biso   1.000  H
  H19      1.0000 0.14440  0.40470  0.82750  Biso   1.000  H
  H20      1.0000 0.24730  0.60950  0.72820  Biso   1.000  H
  H21      1.0000 0.79830  0.23130  0.02160  Biso   1.000  H
  H22      1.0000 0.85210  0.43250  0.97140  Biso   1.000  H
  H23      1.0000 0.09510  0.38660  0.07770  Biso   1.000  H
  H24      1.0000 0.03940  0.18780  0.12520  Biso   1.000  H
  H25      1.0000 0.52190  0.86530  0.08120  Biso   1.000  H
  H26      1.0000 0.41730  0.86850  0.97980  Biso   1.000  H
  H27      1.0000 0.73220  0.97190  0.67250  Biso   1.000  H
  H28      1.0000 0.83770  0.97550  0.77180  Biso   1.000  H
  H29      1.0000 0.75290  0.81990  0.47840  Biso   1.000  H
  H30      1.0000 0.90390  0.82350  0.52860  Biso   1.000  H
  H31      1.0000 0.96430  0.17280  0.42230  Biso   1.000  H
  H32      1.0000 0.81300  0.16460  0.37480  Biso   1.000  H
  C1       1.0000 0.56860  0.23980  0.50140  Biso   1.000  C
  C2       1.0000 0.64140  0.37200  0.43700  Biso   1.000  C
  C3       1.0000 0.61340  0.43690  0.49810  Biso   1.000  C
  C4       1.0000 0.67290  0.56010  0.43760  Biso   1.000  C
  C5       1.0000 0.76500  0.62210  0.31350  Biso   1.000  C
  C6       1.0000 0.79340  0.55600  0.25480  Biso   1.000  C
  C7       1.0000 0.82430  0.75880  0.24570  Biso   1.000  C
  C8       1.0000 0.73240  0.43290  0.31450  Biso   1.000  C
  C9       1.0000 0.14130  0.73690  0.96660  Biso   1.000  C
  C10      1.0000 0.10810  0.61580  0.99730  Biso   1.000  C
  C11      1.0000 0.01820  0.56430  0.98310  Biso   1.000  C
  C12      1.0000 0.96560  0.64240  0.93520  Biso   1.000  C
  C13      1.0000 0.99960  0.76240  0.90560  Biso   1.000  C
  C14      1.0000 0.24120  0.07000  0.99860  Biso   1.000  C
  C15      1.0000 0.30900  0.07840  0.06300  Biso   1.000  C
  C16      1.0000 0.43500  0.11150  0.00190  Biso   1.000  C
  C17      1.0000 0.49770  0.11050  0.06240  Biso   1.000  C
  C18      1.0000 0.43560  0.07850  0.18650  Biso   1.000  C
  C19      1.0000 0.31080  0.04820  0.24520  Biso   1.000  C
  C20      1.0000 0.50450  0.07000  0.25430  Biso   1.000  C
  C21      1.0000 0.24740  0.04690  0.18550  Biso   1.000  C
  C22      1.0000 0.20350  0.10790  0.53340  Biso   1.000  C
  C23      1.0000 0.11310  0.10540  0.50270  Biso   1.000  C
  C24      1.0000 0.04740  0.00130  0.51690  Biso   1.000  C
  C25      1.0000 0.07760  0.90080  0.56480  Biso   1.000  C
  C26      1.0000 0.16800  0.90520  0.59440  Biso   1.000  C
  C27      1.0000 0.43140  0.76020  0.49860  Biso   1.000  C
  C28      1.0000 0.35860  0.62800  0.56300  Biso   1.000  C
  C29      1.0000 0.38660  0.56310  0.50190  Biso   1.000  C
  C30      1.0000 0.32710  0.43990  0.56240  Biso   1.000  C
  C31      1.0000 0.23500  0.37790  0.68650  Biso   1.000  C
  C32      1.0000 0.20660  0.44400  0.74520  Biso   1.000  C
  C33      1.0000 0.17570  0.24120  0.75430  Biso   1.000  C
  C34      1.0000 0.26760  0.56710  0.68550  Biso   1.000  C
  C35      1.0000 0.85870  0.26310  0.03340  Biso   1.000  C
  C36      1.0000 0.89190  0.38420  0.00270  Biso   1.000  C
  C37      1.0000 0.98180  0.43570  0.01690  Biso   1.000  C
  C38      1.0000 0.03440  0.35760  0.06480  Biso   1.000  C
  C39      1.0000 0.00040  0.23760  0.09440  Biso   1.000  C
  C40      1.0000 0.75880  0.93000  0.00140  Biso   1.000  C
  C41      1.0000 0.69100  0.92160  0.93700  Biso   1.000  C
  C42      1.0000 0.56500  0.88850  0.99810  Biso   1.000  C
  C43      1.0000 0.50230  0.88950  0.93760  Biso   1.000  C
  C44      1.0000 0.56440  0.92150  0.81350  Biso   1.000  C
  C45      1.0000 0.68920  0.95180  0.75480  Biso   1.000  C
  C46      1.0000 0.49550  0.93000  0.74570  Biso   1.000  C
  C47      1.0000 0.75260  0.95310  0.81450  Biso   1.000  C
  C48      1.0000 0.79650  0.89210  0.46660  Biso   1.000  C
  C49      1.0000 0.88690  0.89460  0.49730  Biso   1.000  C
  C50      1.0000 0.95260  0.99870  0.48310  Biso   1.000  C
  C51      1.0000 0.92240  0.09920  0.43520  Biso   1.000  C
  C52      1.0000 0.83200  0.09480  0.40560  Biso   1.000  C
  N1       1.0000 0.08650  0.80770  0.92000  Biso   1.000  N
  N2       1.0000 0.22770  0.00650  0.58000  Biso   1.000  N
  N3       1.0000 0.91350  0.19230  0.08000  Biso   1.000  N
  N4       1.0000 0.77230  0.99350  0.42000  Biso   1.000  N
  O1       1.0000 0.48840  0.19010  0.61490  Biso   1.000  O
  O2       1.0000 0.59070  0.18630  0.43900  Biso   1.000  O
  O3       1.0000 0.12050  0.92560  0.88670  Biso   1.000  O
  O4       1.0000 0.77780  0.81380  0.30140  Biso   1.000  O
  O5       1.0000 0.91560  0.80800  0.13900  Biso   1.000  O
  O6       1.0000 0.30500  0.10330  0.88510  Biso   1.000  O
  O7       1.0000 0.12530  0.02970  0.06100  Biso   1.000  O
  O8       1.0000 0.31230  0.00720  0.61330  Biso   1.000  O
  O9       1.0000 0.61520  0.07920  0.19860  Biso   1.000  O
  O10      1.0000 0.44700  0.05460  0.36100  Biso   1.000  O
  O11      1.0000 0.51160  0.80990  0.38510  Biso   1.000  O
  O12      1.0000 0.40930  0.81370  0.56100  Biso   1.000  O
  O13      1.0000 0.87950  0.07440  0.11330  Biso   1.000  O
  O14      1.0000 0.22220  0.18620  0.69860  Biso   1.000  O
  O15      1.0000 0.08440  0.19200  0.86100  Biso   1.000  O
  O16      1.0000 0.69500  0.89670  0.11490  Biso   1.000  O
  O17      1.0000 0.87470  0.97030  0.93900  Biso   1.000  O
  O18      1.0000 0.68770  0.99280  0.38670  Biso   1.000  O
  O19      1.0000 0.38480  0.92080  0.80140  Biso   1.000  O
  O20      1.0000 0.55300  0.94540  0.63900  Biso   1.000  O
