data_image0
_cell_length_a       12.7287
_cell_length_b       12.7287
_cell_length_c       13.805
_cell_angle_alpha    67.793
_cell_angle_beta     65.5436
_cell_angle_gamma    98.1105

_symmetry_space_group_name_H-M    P 1
_symmetry_int_tables_number       1

loop_
  _symmetry_equiv_pos_as_xyz
  'x, y, z'

loop_
  _atom_site_label
  _atom_site_occupancy
  _atom_site_fract_x
  _atom_site_fract_y
  _atom_site_fract_z
  _atom_site_thermal_displace_type
  _atom_site_B_iso_or_equiv
  _atom_site_type_symbol
  Mn1      1.0000 1.00000  0.50000  0.50000  Biso   1.000  Mn
  Mn2      1.0000 0.50000  0.50000  0.00000  Biso   1.000  Mn
  Mn3      1.0000 0.18662  0.43662  0.25000  Biso   1.000  Mn
  Mn4      1.0000 0.81338  0.56338  0.75000  Biso   1.000  Mn
  H1       1.0000 0.73770  0.11320  0.72270  Biso   1.000  H
  H2       1.0000 0.63550  0.90870  0.82340  Biso   1.000  H
  H3       1.0000 0.84820  0.88910  0.52750  Biso   1.000  H
  H4       1.0000 0.94380  0.09570  0.42310  Biso   1.000  H
  H5       1.0000 0.75380  0.67940  0.52080  Biso   1.000  H
  H6       1.0000 0.60430  0.67950  0.46920  Biso   1.000  H
  H7       1.0000 0.52900  0.32550  0.58170  Biso   1.000  H
  H8       1.0000 0.68290  0.33540  0.62490  Biso   1.000  H
  H9       1.0000 0.33590  0.46040  0.77730  Biso   1.000  H
  H10      1.0000 0.23210  0.45890  0.67660  Biso   1.000  H
  H11      1.0000 0.91660  0.37570  0.97250  Biso   1.000  H
  H12      1.0000 0.01880  0.36690  0.07690  Biso   1.000  H
  H13      1.0000 0.70020  0.27460  0.97920  Biso   1.000  H
  H14      1.0000 0.64870  0.07350  0.03080  Biso   1.000  H
  H15      1.0000 0.40720  0.11070  0.91830  Biso   1.000  H
  H16      1.0000 0.46030  0.30780  0.87510  Biso   1.000  H
  H17      1.0000 0.26230  0.88680  0.27730  Biso   1.000  H
  H18      1.0000 0.36450  0.09130  0.17660  Biso   1.000  H
  H19      1.0000 0.15180  0.11090  0.47250  Biso   1.000  H
  H20      1.0000 0.05620  0.90430  0.57690  Biso   1.000  H
  H21      1.0000 0.24620  0.32060  0.47920  Biso   1.000  H
  H22      1.0000 0.39570  0.32050  0.53080  Biso   1.000  H
  H23      1.0000 0.47100  0.67450  0.41830  Biso   1.000  H
  H24      1.0000 0.31710  0.66460  0.37510  Biso   1.000  H
  H25      1.0000 0.66410  0.53960  0.22270  Biso   1.000  H
  H26      1.0000 0.76790  0.54110  0.32340  Biso   1.000  H
  H27      1.0000 0.08340  0.62430  0.02750  Biso   1.000  H
  H28      1.0000 0.98120  0.63310  0.92310  Biso   1.000  H
  H29      1.0000 0.29980  0.72540  0.02080  Biso   1.000  H
  H30      1.0000 0.35130  0.92650  0.96920  Biso   1.000  H
  H31      1.0000 0.59280  0.88930  0.08170  Biso   1.000  H
  H32      1.0000 0.53970  0.69220  0.12490  Biso   1.000  H
  C1       1.0000 0.92900  0.25940  0.49640  Biso   1.000  C
  C2       1.0000 0.85610  0.12700  0.56190  Biso   1.000  C
  C3       1.0000 0.76070  0.06840  0.68270  Biso   1.000  C
  C4       1.0000 0.70000  0.94560  0.74320  Biso   1.000  C
  C5       1.0000 0.73250  0.87480  0.68790  Biso   1.000  C
  C6       1.0000 0.82500  0.93370  0.56750  Biso   1.000  C
  C7       1.0000 0.88400  0.05790  0.50510  Biso   1.000  C
  C8       1.0000 0.67430  0.73990  0.75700  Biso   1.000  C
  C9       1.0000 0.70730  0.60710  0.53340  Biso   1.000  C
  C10      1.0000 0.61800  0.60760  0.50140  Biso   1.000  C
  C11      1.0000 0.54790  0.50200  0.51690  Biso   1.000  C
  C12      1.0000 0.57420  0.39960  0.56700  Biso   1.000  C
  C13      1.0000 0.66490  0.40500  0.59510  Biso   1.000  C
  C14      1.0000 0.25580  0.42540  0.00360  Biso   1.000  C
  C15      1.0000 0.18890  0.41800  0.93810  Biso   1.000  C
  C16      1.0000 0.25110  0.44340  0.81730  Biso   1.000  C
  C17      1.0000 0.18880  0.44320  0.75680  Biso   1.000  C
  C18      1.0000 0.06270  0.42040  0.81210  Biso   1.000  C
  C19      1.0000 0.00120  0.39250  0.93250  Biso   1.000  C
  C20      1.0000 0.06300  0.38910  0.99490  Biso   1.000  C
  C21      1.0000 0.99690  0.43130  0.74300  Biso   1.000  C
  C22      1.0000 0.64050  0.24070  0.96660  Biso   1.000  C
  C23      1.0000 0.60900  0.11940  0.99860  Biso   1.000  C
  C24      1.0000 0.51890  0.06480  0.98310  Biso   1.000  C
  C25      1.0000 0.46660  0.14120  0.93300  Biso   1.000  C
  C26      1.0000 0.50010  0.26000  0.90490  Biso   1.000  C
  C27      1.0000 0.07100  0.74060  0.50360  Biso   1.000  C
  C28      1.0000 0.14390  0.87300  0.43810  Biso   1.000  C
  C29      1.0000 0.23930  0.93160  0.31730  Biso   1.000  C
  C30      1.0000 0.30000  0.05440  0.25680  Biso   1.000  C
  C31      1.0000 0.26750  0.12520  0.31210  Biso   1.000  C
  C32      1.0000 0.17500  0.06630  0.43250  Biso   1.000  C
  C33      1.0000 0.11600  0.94210  0.49490  Biso   1.000  C
  C34      1.0000 0.32570  0.26010  0.24300  Biso   1.000  C
  C35      1.0000 0.29270  0.39290  0.46660  Biso   1.000  C
  C36      1.0000 0.38200  0.39240  0.49860  Biso   1.000  C
  C37      1.0000 0.45210  0.49800  0.48310  Biso   1.000  C
  C38      1.0000 0.42580  0.60040  0.43300  Biso   1.000  C
  C39      1.0000 0.33510  0.59500  0.40490  Biso   1.000  C
  C40      1.0000 0.74420  0.57460  0.99640  Biso   1.000  C
  C41      1.0000 0.81110  0.58200  0.06190  Biso   1.000  C
  C42      1.0000 0.74890  0.55660  0.18270  Biso   1.000  C
  C43      1.0000 0.81120  0.55680  0.24320  Biso   1.000  C
  C44      1.0000 0.93730  0.57960  0.18790  Biso   1.000  C
  C45      1.0000 0.99880  0.60750  0.06750  Biso   1.000  C
  C46      1.0000 0.93700  0.61090  0.00510  Biso   1.000  C
  C47      1.0000 0.00310  0.56870  0.25700  Biso   1.000  C
  C48      1.0000 0.35950  0.75930  0.03340  Biso   1.000  C
  C49      1.0000 0.39100  0.88060  0.00140  Biso   1.000  C
  C50      1.0000 0.48110  0.93520  0.01690  Biso   1.000  C
  C51      1.0000 0.53340  0.85880  0.06700  Biso   1.000  C
  C52      1.0000 0.49990  0.74000  0.09510  Biso   1.000  C
  N1       1.0000 0.72900  0.50800  0.58080  Biso   1.000  N
  N2       1.0000 0.58880  0.30980  0.91920  Biso   1.000  N
  N3       1.0000 0.27100  0.49200  0.41920  Biso   1.000  N
  N4       1.0000 0.41120  0.69020  0.08080  Biso   1.000  N
  O1       1.0000 0.90750  0.31580  0.55730  Biso   1.000  O
  O2       1.0000 0.00840  0.30620  0.38560  Biso   1.000  O
  O3       1.0000 0.58280  0.69150  0.86270  Biso   1.000  O
  O4       1.0000 0.72100  0.68290  0.70350  Biso   1.000  O
  O5       1.0000 0.81350  0.50930  0.61240  Biso   1.000  O
  O6       1.0000 0.37310  0.46480  0.94270  Biso   1.000  O
  O7       1.0000 0.19180  0.39400  0.11440  Biso   1.000  O
  O8       1.0000 0.05420  0.44550  0.63730  Biso   1.000  O
  O9       1.0000 0.88640  0.42450  0.79650  Biso   1.000  O
  O10      1.0000 0.62170  0.42590  0.88760  Biso   1.000  O
  O11      1.0000 0.09250  0.68420  0.44270  Biso   1.000  O
  O12      1.0000 0.99160  0.69380  0.61440  Biso   1.000  O
  O13      1.0000 0.41720  0.30850  0.13730  Biso   1.000  O
  O14      1.0000 0.27900  0.31710  0.29650  Biso   1.000  O
  O15      1.0000 0.18650  0.49070  0.38760  Biso   1.000  O
  O16      1.0000 0.62690  0.53520  0.05730  Biso   1.000  O
  O17      1.0000 0.80820  0.60600  0.88560  Biso   1.000  O
  O18      1.0000 0.94580  0.55450  0.36270  Biso   1.000  O
  O19      1.0000 0.11360  0.57550  0.20350  Biso   1.000  O
  O20      1.0000 0.37830  0.57410  0.11240  Biso   1.000  O
