data_image0
_cell_length_a       12.7112
_cell_length_b       12.7112
_cell_length_c       13.7568
_cell_angle_alpha    67.8503
_cell_angle_beta     65.1878
_cell_angle_gamma    97.9203

_symmetry_space_group_name_H-M    P 1
_symmetry_int_tables_number       1

loop_
  _symmetry_equiv_pos_as_xyz
  'x, y, z'

loop_
  _atom_site_label
  _atom_site_occupancy
  _atom_site_fract_x
  _atom_site_fract_y
  _atom_site_fract_z
  _atom_site_thermal_displace_type
  _atom_site_B_iso_or_equiv
  _atom_site_type_symbol
  Mn1      1.0000 0.50000  0.00000  0.50000  Biso   1.000  Mn
  Mn2      1.0000 0.00000  0.00000  0.00000  Biso   1.000  Mn
  Mn3      1.0000 0.68731  0.93731  0.25000  Biso   1.000  Mn
  Mn4      1.0000 0.31269  0.06269  0.75000  Biso   1.000  Mn
  H1       1.0000 0.23720  0.61330  0.72350  Biso   1.000  H
  H2       1.0000 0.13430  0.40650  0.82420  Biso   1.000  H
  H3       1.0000 0.34780  0.39150  0.52450  Biso   1.000  H
  H4       1.0000 0.44620  0.59810  0.42190  Biso   1.000  H
  H5       1.0000 0.25000  0.17700  0.52440  Biso   1.000  H
  H6       1.0000 0.09990  0.17600  0.47370  Biso   1.000  H
  H7       1.0000 0.02850  0.82720  0.57950  Biso   1.000  H
  H8       1.0000 0.18450  0.83440  0.62230  Biso   1.000  H
  H9       1.0000 0.83680  0.96070  0.77650  Biso   1.000  H
  H10      1.0000 0.73070  0.95850  0.67580  Biso   1.000  H
  H11      1.0000 0.41600  0.87230  0.97550  Biso   1.000  H
  H12      1.0000 0.52000  0.86810  0.07810  Biso   1.000  H
  H13      1.0000 0.20140  0.77440  0.97560  Biso   1.000  H
  H14      1.0000 0.14970  0.57360  0.02630  Biso   1.000  H
  H15      1.0000 0.90670  0.60800  0.92050  Biso   1.000  H
  H16      1.0000 0.95670  0.80680  0.87770  Biso   1.000  H
  H17      1.0000 0.76280  0.38670  0.27650  Biso   1.000  H
  H18      1.0000 0.86570  0.59350  0.17580  Biso   1.000  H
  H19      1.0000 0.65220  0.60850  0.47550  Biso   1.000  H
  H20      1.0000 0.55380  0.40190  0.57810  Biso   1.000  H
  H21      1.0000 0.75000  0.82300  0.47560  Biso   1.000  H
  H22      1.0000 0.90010  0.82400  0.52630  Biso   1.000  H
  H23      1.0000 0.97150  0.17280  0.42050  Biso   1.000  H
  H24      1.0000 0.81550  0.16560  0.37770  Biso   1.000  H
  H25      1.0000 0.16320  0.03930  0.22350  Biso   1.000  H
  H26      1.0000 0.26930  0.04150  0.32420  Biso   1.000  H
  H27      1.0000 0.58400  0.12770  0.02450  Biso   1.000  H
  H28      1.0000 0.48000  0.13190  0.92190  Biso   1.000  H
  H29      1.0000 0.79860  0.22560  0.02440  Biso   1.000  H
  H30      1.0000 0.85030  0.42640  0.97370  Biso   1.000  H
  H31      1.0000 0.09330  0.39200  0.07950  Biso   1.000  H
  H32      1.0000 0.04330  0.19320  0.12230  Biso   1.000  H
  C1       1.0000 0.42900  0.76020  0.49680  Biso   1.000  C
  C2       1.0000 0.35500  0.62690  0.56250  Biso   1.000  C
  C3       1.0000 0.26040  0.56890  0.68270  Biso   1.000  C
  C4       1.0000 0.19920  0.44440  0.74340  Biso   1.000  C
  C5       1.0000 0.23220  0.37650  0.68690  Biso   1.000  C
  C6       1.0000 0.32510  0.43580  0.56550  Biso   1.000  C
  C7       1.0000 0.38470  0.55970  0.50420  Biso   1.000  C
  C8       1.0000 0.17460  0.23960  0.75580  Biso   1.000  C
  C9       1.0000 0.20470  0.10510  0.53560  Biso   1.000  C
  C10      1.0000 0.11500  0.10470  0.50450  Biso   1.000  C
  C11      1.0000 0.04760  0.00110  0.51790  Biso   1.000  C
  C12      1.0000 0.07390  0.90050  0.56560  Biso   1.000  C
  C13      1.0000 0.16580  0.90400  0.59400  Biso   1.000  C
  C14      1.0000 0.75700  0.92580  0.00320  Biso   1.000  C
  C15      1.0000 0.68940  0.91750  0.93750  Biso   1.000  C
  C16      1.0000 0.75160  0.94310  0.81730  Biso   1.000  C
  C17      1.0000 0.68780  0.94260  0.75660  Biso   1.000  C
  C18      1.0000 0.56340  0.91910  0.81310  Biso   1.000  C
  C19      1.0000 0.50130  0.89060  0.93450  Biso   1.000  C
  C20      1.0000 0.56390  0.88890  0.99580  Biso   1.000  C
  C21      1.0000 0.49540  0.93040  0.74420  Biso   1.000  C
  C22      1.0000 0.14070  0.74030  0.96440  Biso   1.000  C
  C23      1.0000 0.10920  0.61950  0.99550  Biso   1.000  C
  C24      1.0000 0.01900  0.56550  0.98210  Biso   1.000  C
  C25      1.0000 0.96610  0.63950  0.93440  Biso   1.000  C
  C26      1.0000 0.99800  0.75980  0.90600  Biso   1.000  C
  C27      1.0000 0.57100  0.23980  0.50320  Biso   1.000  C
  C28      1.0000 0.64500  0.37310  0.43750  Biso   1.000  C
  C29      1.0000 0.73960  0.43110  0.31730  Biso   1.000  C
  C30      1.0000 0.80080  0.55560  0.25660  Biso   1.000  C
  C31      1.0000 0.76780  0.62350  0.31310  Biso   1.000  C
  C32      1.0000 0.67490  0.56420  0.43450  Biso   1.000  C
  C33      1.0000 0.61530  0.44030  0.49580  Biso   1.000  C
  C34      1.0000 0.82540  0.76040  0.24420  Biso   1.000  C
  C35      1.0000 0.79530  0.89490  0.46440  Biso   1.000  C
  C36      1.0000 0.88500  0.89530  0.49550  Biso   1.000  C
  C37      1.0000 0.95240  0.99890  0.48210  Biso   1.000  C
  C38      1.0000 0.92610  0.09950  0.43440  Biso   1.000  C
  C39      1.0000 0.83420  0.09600  0.40600  Biso   1.000  C
  C40      1.0000 0.24300  0.07420  0.99680  Biso   1.000  C
  C41      1.0000 0.31060  0.08250  0.06250  Biso   1.000  C
  C42      1.0000 0.24840  0.05690  0.18270  Biso   1.000  C
  C43      1.0000 0.31220  0.05740  0.24340  Biso   1.000  C
  C44      1.0000 0.43660  0.08090  0.18690  Biso   1.000  C
  C45      1.0000 0.49870  0.10940  0.06550  Biso   1.000  C
  C46      1.0000 0.43610  0.11110  0.00420  Biso   1.000  C
  C47      1.0000 0.50460  0.06960  0.25580  Biso   1.000  C
  C48      1.0000 0.85930  0.25970  0.03560  Biso   1.000  C
  C49      1.0000 0.89080  0.38050  0.00450  Biso   1.000  C
  C50      1.0000 0.98100  0.43450  0.01790  Biso   1.000  C
  C51      1.0000 0.03390  0.36050  0.06560  Biso   1.000  C
  C52      1.0000 0.00200  0.24020  0.09400  Biso   1.000  C
  N1       1.0000 0.22730  0.00540  0.58110  Biso   1.000  N
  N2       1.0000 0.08650  0.80840  0.91890  Biso   1.000  N
  N3       1.0000 0.77270  0.99460  0.41890  Biso   1.000  N
  N4       1.0000 0.91350  0.19160  0.08110  Biso   1.000  N
  O1       1.0000 0.40710  0.81460  0.55950  Biso   1.000  O
  O2       1.0000 0.50800  0.80730  0.38530  Biso   1.000  O
  O3       1.0000 0.08430  0.19080  0.86270  Biso   1.000  O
  O4       1.0000 0.22332  0.18422  0.70090  Biso   1.000  O
  O5       1.0000 0.31240  0.00580  0.61380  Biso   1.000  O
  O6       1.0000 0.87410  0.96660  0.94050  Biso   1.000  O
  O7       1.0000 0.69260  0.89330  0.11470  Biso   1.000  O
  O8       1.0000 0.55350  0.94700  0.63730  Biso   1.000  O
  O9       1.0000 0.38512  0.92422  0.79910  Biso   1.000  O
  O10      1.0000 0.11960  0.92620  0.88620  Biso   1.000  O
  O11      1.0000 0.59290  0.18540  0.44050  Biso   1.000  O
  O12      1.0000 0.49200  0.19270  0.61470  Biso   1.000  O
  O13      1.0000 0.91570  0.80920  0.13730  Biso   1.000  O
  O14      1.0000 0.77668  0.81578  0.29910  Biso   1.000  O
  O15      1.0000 0.68760  0.99420  0.38620  Biso   1.000  O
  O16      1.0000 0.12590  0.03340  0.05950  Biso   1.000  O
  O17      1.0000 0.30740  0.10670  0.88530  Biso   1.000  O
  O18      1.0000 0.44650  0.05300  0.36270  Biso   1.000  O
  O19      1.0000 0.61488  0.07578  0.20090  Biso   1.000  O
  O20      1.0000 0.88040  0.07380  0.11380  Biso   1.000  O
