data_image0
_cell_length_a       7.315
_cell_length_b       10.219
_cell_length_c       18.168
_cell_angle_alpha    90
_cell_angle_beta     90
_cell_angle_gamma    94.163

_symmetry_space_group_name_H-M    P 1
_symmetry_int_tables_number       1

loop_
  _symmetry_equiv_pos_as_xyz
  'x, y, z'

loop_
  _atom_site_label
  _atom_site_occupancy
  _atom_site_fract_x
  _atom_site_fract_y
  _atom_site_fract_z
  _atom_site_thermal_displace_type
  _atom_site_B_iso_or_equiv
  _atom_site_type_symbol
  Cu1      1.0000 0.86452  0.21556  0.90533  Biso   1.000  Cu
  Cu2      1.0000 0.03853  0.92958  0.93157  Biso   1.000  Cu
  Cu3      1.0000 0.63548  0.28444  0.40533  Biso   1.000  Cu
  Cu4      1.0000 0.46147  0.57042  0.43157  Biso   1.000  Cu
  Cu5      1.0000 0.13548  0.78444  0.09467  Biso   1.000  Cu
  Cu6      1.0000 0.96147  0.07042  0.06843  Biso   1.000  Cu
  Cu7      1.0000 0.36452  0.71556  0.59467  Biso   1.000  Cu
  Cu8      1.0000 0.53853  0.42958  0.56843  Biso   1.000  Cu
  H1       1.0000 0.78190  0.16500  0.69150  Biso   1.000  H
  H2       1.0000 0.93400  0.79760  0.70660  Biso   1.000  H
  H3       1.0000 0.77190  0.93730  0.51080  Biso   1.000  H
  H4       1.0000 0.71810  0.33500  0.19150  Biso   1.000  H
  H5       1.0000 0.56600  0.70240  0.20660  Biso   1.000  H
  H6       1.0000 0.72810  0.56270  0.01080  Biso   1.000  H
  H7       1.0000 0.21810  0.83500  0.30850  Biso   1.000  H
  H8       1.0000 0.06600  0.20240  0.29340  Biso   1.000  H
  H9       1.0000 0.22810  0.06270  0.48920  Biso   1.000  H
  H10      1.0000 0.28190  0.66500  0.80850  Biso   1.000  H
  H11      1.0000 0.43400  0.29760  0.79340  Biso   1.000  H
  H12      1.0000 0.27190  0.43730  0.98920  Biso   1.000  H
  C1       1.0000 0.85660  0.84970  0.60430  Biso   1.000  C
  C2       1.0000 0.76680  0.06760  0.59520  Biso   1.000  C
  C3       1.0000 0.80100  0.08470  0.66970  Biso   1.000  C
  C4       1.0000 0.86300  0.98450  0.71240  Biso   1.000  C
  C5       1.0000 0.89880  0.00810  0.79250  Biso   1.000  C
  C6       1.0000 0.89160  0.86600  0.67910  Biso   1.000  C
  C7       1.0000 0.79420  0.94950  0.56080  Biso   1.000  C
  C8       1.0000 0.69270  0.17840  0.55250  Biso   1.000  C
  C9       1.0000 0.64340  0.65030  0.10430  Biso   1.000  C
  C10      1.0000 0.73320  0.43240  0.09520  Biso   1.000  C
  C11      1.0000 0.69900  0.41530  0.16970  Biso   1.000  C
  C12      1.0000 0.63700  0.51550  0.21240  Biso   1.000  C
  C13      1.0000 0.60120  0.49190  0.29250  Biso   1.000  C
  C14      1.0000 0.60840  0.63400  0.17910  Biso   1.000  C
  C15      1.0000 0.70580  0.55050  0.06080  Biso   1.000  C
  C16      1.0000 0.80730  0.32160  0.05250  Biso   1.000  C
  C17      1.0000 0.14340  0.15030  0.39570  Biso   1.000  C
  C18      1.0000 0.23320  0.93240  0.40480  Biso   1.000  C
  C19      1.0000 0.19900  0.91530  0.33030  Biso   1.000  C
  C20      1.0000 0.13700  0.01550  0.28760  Biso   1.000  C
  C21      1.0000 0.10120  0.99190  0.20750  Biso   1.000  C
  C22      1.0000 0.10840  0.13400  0.32090  Biso   1.000  C
  C23      1.0000 0.20580  0.05050  0.43920  Biso   1.000  C
  C24      1.0000 0.30730  0.82160  0.44750  Biso   1.000  C
  C25      1.0000 0.35660  0.34970  0.89570  Biso   1.000  C
  C26      1.0000 0.26680  0.56760  0.90480  Biso   1.000  C
  C27      1.0000 0.30100  0.58470  0.83030  Biso   1.000  C
  C28      1.0000 0.36300  0.48450  0.78760  Biso   1.000  C
  C29      1.0000 0.39880  0.50810  0.70750  Biso   1.000  C
  C30      1.0000 0.39160  0.36600  0.82090  Biso   1.000  C
  C31      1.0000 0.29420  0.44950  0.93920  Biso   1.000  C
  C32      1.0000 0.19270  0.67840  0.94750  Biso   1.000  C
  S1       1.0000 0.87580  0.69063  0.56487  Biso   1.000  S
  S2       1.0000 0.62420  0.80937  0.06487  Biso   1.000  S
  S3       1.0000 0.12420  0.30937  0.43513  Biso   1.000  S
  S4       1.0000 0.37580  0.19063  0.93513  Biso   1.000  S
  O1       1.0000 0.94230  0.91480  0.83240  Biso   1.000  O
  O2       1.0000 0.86810  0.05810  0.96550  Biso   1.000  O
  O3       1.0000 0.65750  0.16260  0.48590  Biso   1.000  O
  O4       1.0000 0.87670  0.12410  0.81370  Biso   1.000  O
  O5       1.0000 0.85690  0.69970  0.48680  Biso   1.000  O
  O6       1.0000 0.67500  0.28170  0.58940  Biso   1.000  O
  O7       1.0000 0.72580  0.61100  0.59910  Biso   1.000  O
  O8       1.0000 0.05130  0.64640  0.59080  Biso   1.000  O
  O9       1.0000 0.88070  0.37620  0.84400  Biso   1.000  O
  O10      1.0000 0.55770  0.58520  0.33240  Biso   1.000  O
  O11      1.0000 0.63190  0.44190  0.46550  Biso   1.000  O
  O12      1.0000 0.84250  0.33740  0.98590  Biso   1.000  O
  O13      1.0000 0.62330  0.37590  0.31370  Biso   1.000  O
  O14      1.0000 0.64310  0.80030  0.98680  Biso   1.000  O
  O15      1.0000 0.82500  0.21830  0.08940  Biso   1.000  O
  O16      1.0000 0.77420  0.88900  0.09910  Biso   1.000  O
  O17      1.0000 0.44870  0.85360  0.09080  Biso   1.000  O
  O18      1.0000 0.61930  0.12380  0.34400  Biso   1.000  O
  O19      1.0000 0.05770  0.08520  0.16760  Biso   1.000  O
  O20      1.0000 0.13190  0.94190  0.03450  Biso   1.000  O
  O21      1.0000 0.34250  0.83740  0.51410  Biso   1.000  O
  O22      1.0000 0.12330  0.87590  0.18630  Biso   1.000  O
  O23      1.0000 0.14310  0.30030  0.51320  Biso   1.000  O
  O24      1.0000 0.32500  0.71830  0.41060  Biso   1.000  O
  O25      1.0000 0.27420  0.38900  0.40090  Biso   1.000  O
  O26      1.0000 0.94870  0.35360  0.40920  Biso   1.000  O
  O27      1.0000 0.11930  0.62380  0.15600  Biso   1.000  O
  O28      1.0000 0.44230  0.41480  0.66760  Biso   1.000  O
  O29      1.0000 0.36810  0.55810  0.53450  Biso   1.000  O
  O30      1.0000 0.15750  0.66260  0.01410  Biso   1.000  O
  O31      1.0000 0.37670  0.62410  0.68630  Biso   1.000  O
  O32      1.0000 0.35690  0.19970  0.01320  Biso   1.000  O
  O33      1.0000 0.17500  0.78170  0.91060  Biso   1.000  O
  O34      1.0000 0.22580  0.11100  0.90090  Biso   1.000  O
  O35      1.0000 0.55130  0.14640  0.90920  Biso   1.000  O
  O36      1.0000 0.38070  0.87620  0.65600  Biso   1.000  O
