data_image0
_cell_length_a       7.3354
_cell_length_b       10.179
_cell_length_c       18.14
_cell_angle_alpha    90
_cell_angle_beta     90
_cell_angle_gamma    94.337

_symmetry_space_group_name_H-M    P 1
_symmetry_int_tables_number       1

loop_
  _symmetry_equiv_pos_as_xyz
  'x, y, z'

loop_
  _atom_site_label
  _atom_site_occupancy
  _atom_site_fract_x
  _atom_site_fract_y
  _atom_site_fract_z
  _atom_site_thermal_displace_type
  _atom_site_B_iso_or_equiv
  _atom_site_type_symbol
  Cu1      1.0000 0.86541  0.21696  0.90551  Biso   1.000  Cu
  Cu2      1.0000 0.04318  0.93154  0.93150  Biso   1.000  Cu
  Cu3      1.0000 0.63459  0.28304  0.40551  Biso   1.000  Cu
  Cu4      1.0000 0.45682  0.56846  0.43150  Biso   1.000  Cu
  Cu5      1.0000 0.13459  0.78304  0.09449  Biso   1.000  Cu
  Cu6      1.0000 0.95682  0.06846  0.06850  Biso   1.000  Cu
  Cu7      1.0000 0.36541  0.71696  0.59449  Biso   1.000  Cu
  Cu8      1.0000 0.54318  0.43154  0.56850  Biso   1.000  Cu
  H1       1.0000 0.78170  0.16570  0.69230  Biso   1.000  H
  H2       1.0000 0.93660  0.79600  0.70670  Biso   1.000  H
  H3       1.0000 0.78070  0.93840  0.51110  Biso   1.000  H
  H4       1.0000 0.71830  0.33430  0.19230  Biso   1.000  H
  H5       1.0000 0.56340  0.70400  0.20670  Biso   1.000  H
  H6       1.0000 0.71930  0.56160  0.01110  Biso   1.000  H
  H7       1.0000 0.21830  0.83430  0.30770  Biso   1.000  H
  H8       1.0000 0.06340  0.20400  0.29330  Biso   1.000  H
  H9       1.0000 0.21930  0.06160  0.48890  Biso   1.000  H
  H10      1.0000 0.28170  0.66570  0.80770  Biso   1.000  H
  H11      1.0000 0.43660  0.29600  0.79330  Biso   1.000  H
  H12      1.0000 0.28070  0.43840  0.98890  Biso   1.000  H
  C1       1.0000 0.86140  0.84960  0.60410  Biso   1.000  C
  C2       1.0000 0.77090  0.06930  0.59500  Biso   1.000  C
  C3       1.0000 0.80340  0.08610  0.67010  Biso   1.000  C
  C4       1.0000 0.86800  0.98490  0.71240  Biso   1.000  C
  C5       1.0000 0.90210  0.00910  0.79280  Biso   1.000  C
  C6       1.0000 0.89570  0.86500  0.67920  Biso   1.000  C
  C7       1.0000 0.80090  0.95030  0.56140  Biso   1.000  C
  C8       1.0000 0.69900  0.18210  0.55350  Biso   1.000  C
  C9       1.0000 0.63860  0.65040  0.10410  Biso   1.000  C
  C10      1.0000 0.72910  0.43070  0.09500  Biso   1.000  C
  C11      1.0000 0.69660  0.41390  0.17010  Biso   1.000  C
  C12      1.0000 0.63200  0.51510  0.21240  Biso   1.000  C
  C13      1.0000 0.59790  0.49090  0.29280  Biso   1.000  C
  C14      1.0000 0.60430  0.63500  0.17920  Biso   1.000  C
  C15      1.0000 0.69910  0.54970  0.06140  Biso   1.000  C
  C16      1.0000 0.80100  0.31790  0.05350  Biso   1.000  C
  C17      1.0000 0.13860  0.15040  0.39590  Biso   1.000  C
  C18      1.0000 0.22910  0.93070  0.40500  Biso   1.000  C
  C19      1.0000 0.19660  0.91390  0.32990  Biso   1.000  C
  C20      1.0000 0.13200  0.01510  0.28760  Biso   1.000  C
  C21      1.0000 0.09790  0.99090  0.20720  Biso   1.000  C
  C22      1.0000 0.10430  0.13500  0.32080  Biso   1.000  C
  C23      1.0000 0.19910  0.04970  0.43860  Biso   1.000  C
  C24      1.0000 0.30100  0.81790  0.44650  Biso   1.000  C
  C25      1.0000 0.36140  0.34960  0.89590  Biso   1.000  C
  C26      1.0000 0.27090  0.56930  0.90500  Biso   1.000  C
  C27      1.0000 0.30340  0.58610  0.82990  Biso   1.000  C
  C28      1.0000 0.36800  0.48490  0.78760  Biso   1.000  C
  C29      1.0000 0.40210  0.50910  0.70720  Biso   1.000  C
  C30      1.0000 0.39570  0.36500  0.82080  Biso   1.000  C
  C31      1.0000 0.30090  0.45030  0.93860  Biso   1.000  C
  C32      1.0000 0.19900  0.68210  0.94650  Biso   1.000  C
  S1       1.0000 0.87940  0.69096  0.56538  Biso   1.000  S
  S2       1.0000 0.62060  0.80904  0.06538  Biso   1.000  S
  S3       1.0000 0.12060  0.30904  0.43462  Biso   1.000  S
  S4       1.0000 0.37940  0.19096  0.93462  Biso   1.000  S
  O1       1.0000 0.94760  0.91440  0.83197  Biso   1.000  O
  O2       1.0000 0.87060  0.05730  0.96520  Biso   1.000  O
  O3       1.0000 0.65900  0.16340  0.48648  Biso   1.000  O
  O4       1.0000 0.88120  0.12530  0.81392  Biso   1.000  O
  O5       1.0000 0.87030  0.70200  0.48720  Biso   1.000  O
  O6       1.0000 0.68550  0.28590  0.58974  Biso   1.000  O
  O7       1.0000 0.72610  0.61230  0.59720  Biso   1.000  O
  O8       1.0000 0.04910  0.64500  0.59260  Biso   1.000  O
  O9       1.0000 0.88210  0.37740  0.84440  Biso   1.000  O
  O10      1.0000 0.55240  0.58560  0.33197  Biso   1.000  O
  O11      1.0000 0.62940  0.44270  0.46520  Biso   1.000  O
  O12      1.0000 0.84100  0.33660  0.98648  Biso   1.000  O
  O13      1.0000 0.61880  0.37470  0.31392  Biso   1.000  O
  O14      1.0000 0.62970  0.79800  0.98720  Biso   1.000  O
  O15      1.0000 0.81450  0.21410  0.08974  Biso   1.000  O
  O16      1.0000 0.77390  0.88770  0.09720  Biso   1.000  O
  O17      1.0000 0.45090  0.85500  0.09260  Biso   1.000  O
  O18      1.0000 0.61790  0.12260  0.34440  Biso   1.000  O
  O19      1.0000 0.05240  0.08560  0.16803  Biso   1.000  O
  O20      1.0000 0.12940  0.94270  0.03480  Biso   1.000  O
  O21      1.0000 0.34100  0.83660  0.51352  Biso   1.000  O
  O22      1.0000 0.11880  0.87470  0.18608  Biso   1.000  O
  O23      1.0000 0.12970  0.29800  0.51280  Biso   1.000  O
  O24      1.0000 0.31450  0.71410  0.41026  Biso   1.000  O
  O25      1.0000 0.27390  0.38770  0.40280  Biso   1.000  O
  O26      1.0000 0.95090  0.35500  0.40740  Biso   1.000  O
  O27      1.0000 0.11790  0.62260  0.15560  Biso   1.000  O
  O28      1.0000 0.44760  0.41440  0.66803  Biso   1.000  O
  O29      1.0000 0.37060  0.55730  0.53480  Biso   1.000  O
  O30      1.0000 0.15900  0.66340  0.01352  Biso   1.000  O
  O31      1.0000 0.38120  0.62530  0.68608  Biso   1.000  O
  O32      1.0000 0.37030  0.20200  0.01280  Biso   1.000  O
  O33      1.0000 0.18550  0.78590  0.91026  Biso   1.000  O
  O34      1.0000 0.22610  0.11230  0.90280  Biso   1.000  O
  O35      1.0000 0.54910  0.14500  0.90740  Biso   1.000  O
  O36      1.0000 0.38210  0.87740  0.65560  Biso   1.000  O
