data_image0
_cell_length_a       7.301
_cell_length_b       10.21
_cell_length_c       18.048
_cell_angle_alpha    90
_cell_angle_beta     90
_cell_angle_gamma    94.334

_symmetry_space_group_name_H-M    P 1
_symmetry_int_tables_number       1

loop_
  _symmetry_equiv_pos_as_xyz
  'x, y, z'

loop_
  _atom_site_label
  _atom_site_occupancy
  _atom_site_fract_x
  _atom_site_fract_y
  _atom_site_fract_z
  _atom_site_thermal_displace_type
  _atom_site_B_iso_or_equiv
  _atom_site_type_symbol
  Cu1      1.0000 0.86504  0.21593  0.90534  Biso   1.000  Cu
  Cu2      1.0000 0.04000  0.93001  0.93159  Biso   1.000  Cu
  Cu3      1.0000 0.63496  0.28407  0.40534  Biso   1.000  Cu
  Cu4      1.0000 0.46000  0.56999  0.43159  Biso   1.000  Cu
  Cu5      1.0000 0.13496  0.78407  0.09466  Biso   1.000  Cu
  Cu6      1.0000 0.96000  0.06999  0.06841  Biso   1.000  Cu
  Cu7      1.0000 0.36504  0.71593  0.59466  Biso   1.000  Cu
  Cu8      1.0000 0.54000  0.43001  0.56841  Biso   1.000  Cu
  H1       1.0000 0.77850  0.16430  0.69220  Biso   1.000  H
  H2       1.0000 0.93600  0.79880  0.70770  Biso   1.000  H
  H3       1.0000 0.77220  0.93540  0.51070  Biso   1.000  H
  H4       1.0000 0.72150  0.33570  0.19220  Biso   1.000  H
  H5       1.0000 0.56400  0.70120  0.20770  Biso   1.000  H
  H6       1.0000 0.72780  0.56460  0.01070  Biso   1.000  H
  H7       1.0000 0.22150  0.83570  0.30780  Biso   1.000  H
  H8       1.0000 0.06400  0.20120  0.29230  Biso   1.000  H
  H9       1.0000 0.22780  0.06460  0.48930  Biso   1.000  H
  H10      1.0000 0.27850  0.66430  0.80780  Biso   1.000  H
  H11      1.0000 0.43600  0.29880  0.79230  Biso   1.000  H
  H12      1.0000 0.27220  0.43540  0.98930  Biso   1.000  H
  C1       1.0000 0.85630  0.84870  0.60360  Biso   1.000  C
  C2       1.0000 0.76830  0.07010  0.59490  Biso   1.000  C
  C3       1.0000 0.80060  0.08510  0.66960  Biso   1.000  C
  C4       1.0000 0.86460  0.98660  0.71190  Biso   1.000  C
  C5       1.0000 0.89860  0.01160  0.79300  Biso   1.000  C
  C6       1.0000 0.89320  0.86650  0.67950  Biso   1.000  C
  C7       1.0000 0.79530  0.94810  0.56100  Biso   1.000  C
  C8       1.0000 0.69430  0.18080  0.55290  Biso   1.000  C
  C9       1.0000 0.64370  0.65130  0.10360  Biso   1.000  C
  C10      1.0000 0.73170  0.42990  0.09490  Biso   1.000  C
  C11      1.0000 0.69940  0.41490  0.16960  Biso   1.000  C
  C12      1.0000 0.63540  0.51340  0.21190  Biso   1.000  C
  C13      1.0000 0.60140  0.48840  0.29300  Biso   1.000  C
  C14      1.0000 0.60680  0.63350  0.17950  Biso   1.000  C
  C15      1.0000 0.70470  0.55190  0.06100  Biso   1.000  C
  C16      1.0000 0.80570  0.31920  0.05290  Biso   1.000  C
  C17      1.0000 0.14370  0.15130  0.39640  Biso   1.000  C
  C18      1.0000 0.23170  0.92990  0.40510  Biso   1.000  C
  C19      1.0000 0.19940  0.91490  0.33040  Biso   1.000  C
  C20      1.0000 0.13540  0.01340  0.28810  Biso   1.000  C
  C21      1.0000 0.10140  0.98840  0.20700  Biso   1.000  C
  C22      1.0000 0.10680  0.13350  0.32050  Biso   1.000  C
  C23      1.0000 0.20470  0.05190  0.43900  Biso   1.000  C
  C24      1.0000 0.30570  0.81920  0.44710  Biso   1.000  C
  C25      1.0000 0.35630  0.34870  0.89640  Biso   1.000  C
  C26      1.0000 0.26830  0.57010  0.90510  Biso   1.000  C
  C27      1.0000 0.30060  0.58510  0.83040  Biso   1.000  C
  C28      1.0000 0.36460  0.48660  0.78810  Biso   1.000  C
  C29      1.0000 0.39860  0.51160  0.70700  Biso   1.000  C
  C30      1.0000 0.39320  0.36650  0.82050  Biso   1.000  C
  C31      1.0000 0.29530  0.44810  0.93900  Biso   1.000  C
  C32      1.0000 0.19430  0.68080  0.94710  Biso   1.000  C
  S1       1.0000 0.87670  0.69039  0.56519  Biso   1.000  S
  S2       1.0000 0.62330  0.80961  0.06519  Biso   1.000  S
  S3       1.0000 0.12330  0.30961  0.43481  Biso   1.000  S
  S4       1.0000 0.37670  0.19039  0.93481  Biso   1.000  S
  O1       1.0000 0.94340  0.91510  0.83220  Biso   1.000  O
  O2       1.0000 0.87120  0.05670  0.96520  Biso   1.000  O
  O3       1.0000 0.65600  0.16270  0.48620  Biso   1.000  O
  O4       1.0000 0.87770  0.12430  0.81380  Biso   1.000  O
  O5       1.0000 0.86140  0.70050  0.48710  Biso   1.000  O
  O6       1.0000 0.68020  0.28280  0.58940  Biso   1.000  O
  O7       1.0000 0.72640  0.61210  0.59850  Biso   1.000  O
  O8       1.0000 0.04780  0.64760  0.59180  Biso   1.000  O
  O9       1.0000 0.87920  0.37630  0.84370  Biso   1.000  O
  O10      1.0000 0.55660  0.58490  0.33220  Biso   1.000  O
  O11      1.0000 0.62880  0.44330  0.46520  Biso   1.000  O
  O12      1.0000 0.84400  0.33730  0.98620  Biso   1.000  O
  O13      1.0000 0.62230  0.37570  0.31380  Biso   1.000  O
  O14      1.0000 0.63860  0.79950  0.98710  Biso   1.000  O
  O15      1.0000 0.81980  0.21720  0.08940  Biso   1.000  O
  O16      1.0000 0.77360  0.88790  0.09850  Biso   1.000  O
  O17      1.0000 0.45220  0.85240  0.09180  Biso   1.000  O
  O18      1.0000 0.62080  0.12370  0.34370  Biso   1.000  O
  O19      1.0000 0.05660  0.08490  0.16780  Biso   1.000  O
  O20      1.0000 0.12880  0.94330  0.03480  Biso   1.000  O
  O21      1.0000 0.34400  0.83730  0.51380  Biso   1.000  O
  O22      1.0000 0.12230  0.87570  0.18620  Biso   1.000  O
  O23      1.0000 0.13860  0.29950  0.51290  Biso   1.000  O
  O24      1.0000 0.31980  0.71720  0.41060  Biso   1.000  O
  O25      1.0000 0.27360  0.38790  0.40150  Biso   1.000  O
  O26      1.0000 0.95220  0.35240  0.40820  Biso   1.000  O
  O27      1.0000 0.12080  0.62370  0.15630  Biso   1.000  O
  O28      1.0000 0.44340  0.41510  0.66780  Biso   1.000  O
  O29      1.0000 0.37120  0.55670  0.53480  Biso   1.000  O
  O30      1.0000 0.15600  0.66270  0.01380  Biso   1.000  O
  O31      1.0000 0.37770  0.62430  0.68620  Biso   1.000  O
  O32      1.0000 0.36140  0.20050  0.01290  Biso   1.000  O
  O33      1.0000 0.18020  0.78280  0.91060  Biso   1.000  O
  O34      1.0000 0.22640  0.11210  0.90150  Biso   1.000  O
  O35      1.0000 0.54780  0.14760  0.90820  Biso   1.000  O
  O36      1.0000 0.37920  0.87630  0.65630  Biso   1.000  O
