data_image0
_cell_length_a       7.252
_cell_length_b       10.23
_cell_length_c       18.068
_cell_angle_alpha    90
_cell_angle_beta     90
_cell_angle_gamma    94.216

_symmetry_space_group_name_H-M    P 1
_symmetry_int_tables_number       1

loop_
  _symmetry_equiv_pos_as_xyz
  'x, y, z'

loop_
  _atom_site_label
  _atom_site_occupancy
  _atom_site_fract_x
  _atom_site_fract_y
  _atom_site_fract_z
  _atom_site_thermal_displace_type
  _atom_site_B_iso_or_equiv
  _atom_site_type_symbol
  Cu1      1.0000 0.86222  0.21401  0.90587  Biso   1.000  Cu
  Cu2      1.0000 0.03628  0.92958  0.93149  Biso   1.000  Cu
  Cu3      1.0000 0.63778  0.28599  0.40587  Biso   1.000  Cu
  Cu4      1.0000 0.46372  0.57042  0.43149  Biso   1.000  Cu
  Cu5      1.0000 0.13778  0.78599  0.09413  Biso   1.000  Cu
  Cu6      1.0000 0.96372  0.07042  0.06851  Biso   1.000  Cu
  Cu7      1.0000 0.36222  0.71401  0.59413  Biso   1.000  Cu
  Cu8      1.0000 0.53628  0.42958  0.56851  Biso   1.000  Cu
  H1       1.0000 0.77870  0.16500  0.69150  Biso   1.000  H
  H2       1.0000 0.93290  0.79970  0.70730  Biso   1.000  H
  H3       1.0000 0.77050  0.93830  0.51180  Biso   1.000  H
  H4       1.0000 0.72130  0.33500  0.19150  Biso   1.000  H
  H5       1.0000 0.56710  0.70030  0.20730  Biso   1.000  H
  H6       1.0000 0.72950  0.56170  0.01180  Biso   1.000  H
  H7       1.0000 0.22130  0.83500  0.30850  Biso   1.000  H
  H8       1.0000 0.06710  0.20030  0.29270  Biso   1.000  H
  H9       1.0000 0.22950  0.06170  0.48820  Biso   1.000  H
  H10      1.0000 0.27870  0.66500  0.80850  Biso   1.000  H
  H11      1.0000 0.43290  0.29970  0.79270  Biso   1.000  H
  H12      1.0000 0.27050  0.43830  0.98820  Biso   1.000  H
  C1       1.0000 0.85250  0.84920  0.60390  Biso   1.000  C
  C2       1.0000 0.76400  0.07070  0.59480  Biso   1.000  C
  C3       1.0000 0.79790  0.08520  0.66930  Biso   1.000  C
  C4       1.0000 0.85940  0.98610  0.71220  Biso   1.000  C
  C5       1.0000 0.89530  0.00800  0.79250  Biso   1.000  C
  C6       1.0000 0.88900  0.86720  0.67940  Biso   1.000  C
  C7       1.0000 0.79240  0.95040  0.56220  Biso   1.000  C
  C8       1.0000 0.69000  0.18240  0.55310  Biso   1.000  C
  C9       1.0000 0.64750  0.65080  0.10390  Biso   1.000  C
  C10      1.0000 0.73600  0.42930  0.09480  Biso   1.000  C
  C11      1.0000 0.70210  0.41480  0.16930  Biso   1.000  C
  C12      1.0000 0.64060  0.51390  0.21220  Biso   1.000  C
  C13      1.0000 0.60470  0.49200  0.29250  Biso   1.000  C
  C14      1.0000 0.61100  0.63280  0.17940  Biso   1.000  C
  C15      1.0000 0.70760  0.54960  0.06220  Biso   1.000  C
  C16      1.0000 0.81000  0.31760  0.05310  Biso   1.000  C
  C17      1.0000 0.14750  0.15080  0.39610  Biso   1.000  C
  C18      1.0000 0.23600  0.92930  0.40520  Biso   1.000  C
  C19      1.0000 0.20210  0.91480  0.33070  Biso   1.000  C
  C20      1.0000 0.14060  0.01390  0.28780  Biso   1.000  C
  C21      1.0000 0.10470  0.99200  0.20750  Biso   1.000  C
  C22      1.0000 0.11100  0.13280  0.32060  Biso   1.000  C
  C23      1.0000 0.20760  0.04960  0.43780  Biso   1.000  C
  C24      1.0000 0.31000  0.81760  0.44690  Biso   1.000  C
  C25      1.0000 0.35250  0.34920  0.89610  Biso   1.000  C
  C26      1.0000 0.26400  0.57070  0.90520  Biso   1.000  C
  C27      1.0000 0.29790  0.58520  0.83070  Biso   1.000  C
  C28      1.0000 0.35940  0.48610  0.78780  Biso   1.000  C
  C29      1.0000 0.39530  0.50800  0.70750  Biso   1.000  C
  C30      1.0000 0.38900  0.36720  0.82060  Biso   1.000  C
  C31      1.0000 0.29240  0.45040  0.93780  Biso   1.000  C
  C32      1.0000 0.19000  0.68240  0.94690  Biso   1.000  C
  S1       1.0000 0.87070  0.69320  0.56476  Biso   1.000  S
  S2       1.0000 0.62930  0.80680  0.06476  Biso   1.000  S
  S3       1.0000 0.12930  0.30680  0.43524  Biso   1.000  S
  S4       1.0000 0.37070  0.19320  0.93524  Biso   1.000  S
  O1       1.0000 0.94070  0.91560  0.83290  Biso   1.000  O
  O2       1.0000 0.86850  0.05760  0.96640  Biso   1.000  O
  O3       1.0000 0.65620  0.16320  0.48640  Biso   1.000  O
  O4       1.0000 0.87390  0.12340  0.81400  Biso   1.000  O
  O5       1.0000 0.85010  0.70260  0.48750  Biso   1.000  O
  O6       1.0000 0.67130  0.28410  0.58990  Biso   1.000  O
  O7       1.0000 0.72230  0.61190  0.59980  Biso   1.000  O
  O8       1.0000 0.04310  0.64930  0.59000  Biso   1.000  O
  O9       1.0000 0.87550  0.37380  0.84520  Biso   1.000  O
  O10      1.0000 0.55930  0.58440  0.33290  Biso   1.000  O
  O11      1.0000 0.63150  0.44240  0.46640  Biso   1.000  O
  O12      1.0000 0.84380  0.33680  0.98640  Biso   1.000  O
  O13      1.0000 0.62610  0.37660  0.31400  Biso   1.000  O
  O14      1.0000 0.64990  0.79740  0.98750  Biso   1.000  O
  O15      1.0000 0.82870  0.21590  0.08990  Biso   1.000  O
  O16      1.0000 0.77770  0.88810  0.09980  Biso   1.000  O
  O17      1.0000 0.45690  0.85070  0.09000  Biso   1.000  O
  O18      1.0000 0.62450  0.12620  0.34520  Biso   1.000  O
  O19      1.0000 0.05930  0.08440  0.16710  Biso   1.000  O
  O20      1.0000 0.13150  0.94240  0.03360  Biso   1.000  O
  O21      1.0000 0.34380  0.83680  0.51360  Biso   1.000  O
  O22      1.0000 0.12610  0.87660  0.18600  Biso   1.000  O
  O23      1.0000 0.14990  0.29740  0.51250  Biso   1.000  O
  O24      1.0000 0.32870  0.71590  0.41010  Biso   1.000  O
  O25      1.0000 0.27770  0.38810  0.40020  Biso   1.000  O
  O26      1.0000 0.95690  0.35070  0.41000  Biso   1.000  O
  O27      1.0000 0.12450  0.62620  0.15480  Biso   1.000  O
  O28      1.0000 0.44070  0.41560  0.66710  Biso   1.000  O
  O29      1.0000 0.36850  0.55760  0.53360  Biso   1.000  O
  O30      1.0000 0.15620  0.66320  0.01360  Biso   1.000  O
  O31      1.0000 0.37390  0.62340  0.68600  Biso   1.000  O
  O32      1.0000 0.35010  0.20260  0.01250  Biso   1.000  O
  O33      1.0000 0.17130  0.78410  0.91010  Biso   1.000  O
  O34      1.0000 0.22230  0.11190  0.90020  Biso   1.000  O
  O35      1.0000 0.54310  0.14930  0.91000  Biso   1.000  O
  O36      1.0000 0.37550  0.87380  0.65480  Biso   1.000  O
