data_image0
_cell_length_a       7.283
_cell_length_b       10.262
_cell_length_c       18.119
_cell_angle_alpha    90
_cell_angle_beta     90
_cell_angle_gamma    94.119

_symmetry_space_group_name_H-M    P 1
_symmetry_int_tables_number       1

loop_
  _symmetry_equiv_pos_as_xyz
  'x, y, z'

loop_
  _atom_site_label
  _atom_site_occupancy
  _atom_site_fract_x
  _atom_site_fract_y
  _atom_site_fract_z
  _atom_site_thermal_displace_type
  _atom_site_B_iso_or_equiv
  _atom_site_type_symbol
  Cu1      1.0000 0.86248  0.21424  0.90574  Biso   1.000  Cu
  Cu2      1.0000 0.03635  0.92923  0.93156  Biso   1.000  Cu
  Cu3      1.0000 0.63752  0.28576  0.40574  Biso   1.000  Cu
  Cu4      1.0000 0.46365  0.57077  0.43156  Biso   1.000  Cu
  Cu5      1.0000 0.13752  0.78576  0.09426  Biso   1.000  Cu
  Cu6      1.0000 0.96365  0.07077  0.06844  Biso   1.000  Cu
  Cu7      1.0000 0.36248  0.71424  0.59426  Biso   1.000  Cu
  Cu8      1.0000 0.53635  0.42923  0.56844  Biso   1.000  Cu
  H1       1.0000 0.77540  0.16400  0.69170  Biso   1.000  H
  H2       1.0000 0.93280  0.79970  0.70640  Biso   1.000  H
  H3       1.0000 0.77100  0.93800  0.51190  Biso   1.000  H
  H4       1.0000 0.72460  0.33600  0.19170  Biso   1.000  H
  H5       1.0000 0.56720  0.70030  0.20640  Biso   1.000  H
  H6       1.0000 0.72900  0.56200  0.01190  Biso   1.000  H
  H7       1.0000 0.22460  0.83600  0.30830  Biso   1.000  H
  H8       1.0000 0.06720  0.20030  0.29360  Biso   1.000  H
  H9       1.0000 0.22900  0.06200  0.48810  Biso   1.000  H
  H10      1.0000 0.27540  0.66400  0.80830  Biso   1.000  H
  H11      1.0000 0.43280  0.29970  0.79360  Biso   1.000  H
  H12      1.0000 0.27100  0.43800  0.98810  Biso   1.000  H
  C1       1.0000 0.85440  0.84960  0.60400  Biso   1.000  C
  C2       1.0000 0.76470  0.06890  0.59490  Biso   1.000  C
  C3       1.0000 0.79690  0.08470  0.66960  Biso   1.000  C
  C4       1.0000 0.86080  0.98510  0.71250  Biso   1.000  C
  C5       1.0000 0.89580  0.00820  0.79200  Biso   1.000  C
  C6       1.0000 0.88950  0.86750  0.67870  Biso   1.000  C
  C7       1.0000 0.79310  0.95010  0.56210  Biso   1.000  C
  C8       1.0000 0.69050  0.18000  0.55310  Biso   1.000  C
  C9       1.0000 0.64560  0.65040  0.10400  Biso   1.000  C
  C10      1.0000 0.73530  0.43110  0.09490  Biso   1.000  C
  C11      1.0000 0.70310  0.41530  0.16960  Biso   1.000  C
  C12      1.0000 0.63920  0.51490  0.21250  Biso   1.000  C
  C13      1.0000 0.60420  0.49180  0.29200  Biso   1.000  C
  C14      1.0000 0.61050  0.63250  0.17870  Biso   1.000  C
  C15      1.0000 0.70690  0.54990  0.06210  Biso   1.000  C
  C16      1.0000 0.80950  0.32000  0.05310  Biso   1.000  C
  C17      1.0000 0.14560  0.15040  0.39600  Biso   1.000  C
  C18      1.0000 0.23530  0.93110  0.40510  Biso   1.000  C
  C19      1.0000 0.20310  0.91530  0.33040  Biso   1.000  C
  C20      1.0000 0.13920  0.01490  0.28750  Biso   1.000  C
  C21      1.0000 0.10420  0.99180  0.20800  Biso   1.000  C
  C22      1.0000 0.11050  0.13250  0.32130  Biso   1.000  C
  C23      1.0000 0.20690  0.04990  0.43790  Biso   1.000  C
  C24      1.0000 0.30950  0.82000  0.44690  Biso   1.000  C
  C25      1.0000 0.35440  0.34960  0.89600  Biso   1.000  C
  C26      1.0000 0.26470  0.56890  0.90510  Biso   1.000  C
  C27      1.0000 0.29690  0.58470  0.83040  Biso   1.000  C
  C28      1.0000 0.36080  0.48510  0.78750  Biso   1.000  C
  C29      1.0000 0.39580  0.50820  0.70800  Biso   1.000  C
  C30      1.0000 0.38950  0.36750  0.82130  Biso   1.000  C
  C31      1.0000 0.29310  0.45010  0.93790  Biso   1.000  C
  C32      1.0000 0.19050  0.68000  0.94690  Biso   1.000  C
  S1       1.0000 0.87140  0.69243  0.56487  Biso   1.000  S
  S2       1.0000 0.62860  0.80757  0.06487  Biso   1.000  S
  S3       1.0000 0.12860  0.30757  0.43513  Biso   1.000  S
  S4       1.0000 0.37140  0.19243  0.93513  Biso   1.000  S
  O1       1.0000 0.94180  0.91590  0.83220  Biso   1.000  O
  O2       1.0000 0.86820  0.05770  0.96600  Biso   1.000  O
  O3       1.0000 0.65400  0.16320  0.48630  Biso   1.000  O
  O4       1.0000 0.87240  0.12350  0.81380  Biso   1.000  O
  O5       1.0000 0.84950  0.70280  0.48700  Biso   1.000  O
  O6       1.0000 0.67160  0.28220  0.58960  Biso   1.000  O
  O7       1.0000 0.72350  0.61380  0.59910  Biso   1.000  O
  O8       1.0000 0.04380  0.64980  0.58920  Biso   1.000  O
  O9       1.0000 0.87660  0.37440  0.84410  Biso   1.000  O
  O10      1.0000 0.55820  0.58410  0.33220  Biso   1.000  O
  O11      1.0000 0.63180  0.44230  0.46600  Biso   1.000  O
  O12      1.0000 0.84600  0.33680  0.98630  Biso   1.000  O
  O13      1.0000 0.62760  0.37650  0.31380  Biso   1.000  O
  O14      1.0000 0.65050  0.79720  0.98700  Biso   1.000  O
  O15      1.0000 0.82840  0.21780  0.08960  Biso   1.000  O
  O16      1.0000 0.77650  0.88620  0.09910  Biso   1.000  O
  O17      1.0000 0.45620  0.85020  0.08920  Biso   1.000  O
  O18      1.0000 0.62340  0.12560  0.34410  Biso   1.000  O
  O19      1.0000 0.05820  0.08410  0.16780  Biso   1.000  O
  O20      1.0000 0.13180  0.94230  0.03400  Biso   1.000  O
  O21      1.0000 0.34600  0.83680  0.51370  Biso   1.000  O
  O22      1.0000 0.12760  0.87650  0.18620  Biso   1.000  O
  O23      1.0000 0.15050  0.29720  0.51300  Biso   1.000  O
  O24      1.0000 0.32840  0.71780  0.41040  Biso   1.000  O
  O25      1.0000 0.27650  0.38620  0.40090  Biso   1.000  O
  O26      1.0000 0.95620  0.35020  0.41080  Biso   1.000  O
  O27      1.0000 0.12340  0.62560  0.15590  Biso   1.000  O
  O28      1.0000 0.44180  0.41590  0.66780  Biso   1.000  O
  O29      1.0000 0.36820  0.55770  0.53400  Biso   1.000  O
  O30      1.0000 0.15400  0.66320  0.01370  Biso   1.000  O
  O31      1.0000 0.37240  0.62350  0.68620  Biso   1.000  O
  O32      1.0000 0.34950  0.20280  0.01300  Biso   1.000  O
  O33      1.0000 0.17160  0.78220  0.91040  Biso   1.000  O
  O34      1.0000 0.22350  0.11380  0.90090  Biso   1.000  O
  O35      1.0000 0.54380  0.14980  0.91080  Biso   1.000  O
  O36      1.0000 0.37660  0.87440  0.65590  Biso   1.000  O
