data_image0
_cell_length_a       7.271
_cell_length_b       10.212
_cell_length_c       18.061
_cell_angle_alpha    90
_cell_angle_beta     90
_cell_angle_gamma    94.234

_symmetry_space_group_name_H-M    P 1
_symmetry_int_tables_number       1

loop_
  _symmetry_equiv_pos_as_xyz
  'x, y, z'

loop_
  _atom_site_label
  _atom_site_occupancy
  _atom_site_fract_x
  _atom_site_fract_y
  _atom_site_fract_z
  _atom_site_thermal_displace_type
  _atom_site_B_iso_or_equiv
  _atom_site_type_symbol
  Cu1      1.0000 0.86315  0.21454  0.90555  Biso   1.000  Cu
  Cu2      1.0000 0.03655  0.92917  0.93160  Biso   1.000  Cu
  Cu3      1.0000 0.63685  0.28546  0.40555  Biso   1.000  Cu
  Cu4      1.0000 0.46345  0.57083  0.43160  Biso   1.000  Cu
  Cu5      1.0000 0.13685  0.78546  0.09445  Biso   1.000  Cu
  Cu6      1.0000 0.96345  0.07083  0.06840  Biso   1.000  Cu
  Cu7      1.0000 0.36315  0.71454  0.59445  Biso   1.000  Cu
  Cu8      1.0000 0.53655  0.42917  0.56840  Biso   1.000  Cu
  H1       1.0000 0.77760  0.16480  0.69160  Biso   1.000  H
  H2       1.0000 0.93350  0.79840  0.70650  Biso   1.000  H
  H3       1.0000 0.77290  0.93750  0.51130  Biso   1.000  H
  H4       1.0000 0.72240  0.33520  0.19160  Biso   1.000  H
  H5       1.0000 0.56650  0.70160  0.20650  Biso   1.000  H
  H6       1.0000 0.72710  0.56250  0.01130  Biso   1.000  H
  H7       1.0000 0.22240  0.83520  0.30840  Biso   1.000  H
  H8       1.0000 0.06650  0.20160  0.29350  Biso   1.000  H
  H9       1.0000 0.22710  0.06250  0.48870  Biso   1.000  H
  H10      1.0000 0.27760  0.66480  0.80840  Biso   1.000  H
  H11      1.0000 0.43350  0.29840  0.79350  Biso   1.000  H
  H12      1.0000 0.27290  0.43750  0.98870  Biso   1.000  H
  C1       1.0000 0.85470  0.84950  0.60410  Biso   1.000  C
  C2       1.0000 0.76540  0.06930  0.59490  Biso   1.000  C
  C3       1.0000 0.79830  0.08490  0.66950  Biso   1.000  C
  C4       1.0000 0.86120  0.98570  0.71260  Biso   1.000  C
  C5       1.0000 0.89650  0.00830  0.79220  Biso   1.000  C
  C6       1.0000 0.89030  0.86650  0.67890  Biso   1.000  C
  C7       1.0000 0.79430  0.94960  0.56170  Biso   1.000  C
  C8       1.0000 0.69150  0.17910  0.55320  Biso   1.000  C
  C9       1.0000 0.64530  0.65050  0.10410  Biso   1.000  C
  C10      1.0000 0.73460  0.43070  0.09490  Biso   1.000  C
  C11      1.0000 0.70170  0.41510  0.16950  Biso   1.000  C
  C12      1.0000 0.63880  0.51430  0.21260  Biso   1.000  C
  C13      1.0000 0.60350  0.49170  0.29220  Biso   1.000  C
  C14      1.0000 0.60970  0.63350  0.17890  Biso   1.000  C
  C15      1.0000 0.70570  0.55040  0.06170  Biso   1.000  C
  C16      1.0000 0.80850  0.32090  0.05320  Biso   1.000  C
  C17      1.0000 0.14530  0.15050  0.39590  Biso   1.000  C
  C18      1.0000 0.23460  0.93070  0.40510  Biso   1.000  C
  C19      1.0000 0.20170  0.91510  0.33050  Biso   1.000  C
  C20      1.0000 0.13880  0.01430  0.28740  Biso   1.000  C
  C21      1.0000 0.10350  0.99170  0.20780  Biso   1.000  C
  C22      1.0000 0.10970  0.13350  0.32110  Biso   1.000  C
  C23      1.0000 0.20570  0.05040  0.43830  Biso   1.000  C
  C24      1.0000 0.30850  0.82090  0.44680  Biso   1.000  C
  C25      1.0000 0.35470  0.34950  0.89590  Biso   1.000  C
  C26      1.0000 0.26540  0.56930  0.90510  Biso   1.000  C
  C27      1.0000 0.29830  0.58490  0.83050  Biso   1.000  C
  C28      1.0000 0.36120  0.48570  0.78740  Biso   1.000  C
  C29      1.0000 0.39650  0.50830  0.70780  Biso   1.000  C
  C30      1.0000 0.39030  0.36650  0.82110  Biso   1.000  C
  C31      1.0000 0.29430  0.44960  0.93830  Biso   1.000  C
  C32      1.0000 0.19150  0.67910  0.94680  Biso   1.000  C
  S1       1.0000 0.87220  0.69189  0.56484  Biso   1.000  S
  S2       1.0000 0.62780  0.80811  0.06484  Biso   1.000  S
  S3       1.0000 0.12780  0.30811  0.43516  Biso   1.000  S
  S4       1.0000 0.37220  0.19189  0.93516  Biso   1.000  S
  O1       1.0000 0.94290  0.91560  0.83200  Biso   1.000  O
  O2       1.0000 0.86890  0.05730  0.96580  Biso   1.000  O
  O3       1.0000 0.65500  0.16250  0.48580  Biso   1.000  O
  O4       1.0000 0.87390  0.12290  0.81390  Biso   1.000  O
  O5       1.0000 0.85270  0.70200  0.48680  Biso   1.000  O
  O6       1.0000 0.67200  0.28220  0.58940  Biso   1.000  O
  O7       1.0000 0.72440  0.61330  0.59850  Biso   1.000  O
  O8       1.0000 0.04500  0.64910  0.58950  Biso   1.000  O
  O9       1.0000 0.87760  0.37480  0.84370  Biso   1.000  O
  O10      1.0000 0.55710  0.58440  0.33200  Biso   1.000  O
  O11      1.0000 0.63110  0.44270  0.46580  Biso   1.000  O
  O12      1.0000 0.84500  0.33750  0.98580  Biso   1.000  O
  O13      1.0000 0.62610  0.37710  0.31390  Biso   1.000  O
  O14      1.0000 0.64730  0.79800  0.98680  Biso   1.000  O
  O15      1.0000 0.82800  0.21780  0.08940  Biso   1.000  O
  O16      1.0000 0.77560  0.88670  0.09850  Biso   1.000  O
  O17      1.0000 0.45500  0.85090  0.08950  Biso   1.000  O
  O18      1.0000 0.62240  0.12520  0.34370  Biso   1.000  O
  O19      1.0000 0.05710  0.08440  0.16800  Biso   1.000  O
  O20      1.0000 0.13110  0.94270  0.03420  Biso   1.000  O
  O21      1.0000 0.34500  0.83750  0.51420  Biso   1.000  O
  O22      1.0000 0.12610  0.87710  0.18610  Biso   1.000  O
  O23      1.0000 0.14730  0.29800  0.51320  Biso   1.000  O
  O24      1.0000 0.32800  0.71780  0.41060  Biso   1.000  O
  O25      1.0000 0.27560  0.38670  0.40150  Biso   1.000  O
  O26      1.0000 0.95500  0.35090  0.41050  Biso   1.000  O
  O27      1.0000 0.12240  0.62520  0.15630  Biso   1.000  O
  O28      1.0000 0.44290  0.41560  0.66800  Biso   1.000  O
  O29      1.0000 0.36890  0.55730  0.53420  Biso   1.000  O
  O30      1.0000 0.15500  0.66250  0.01420  Biso   1.000  O
  O31      1.0000 0.37390  0.62290  0.68610  Biso   1.000  O
  O32      1.0000 0.35270  0.20200  0.01320  Biso   1.000  O
  O33      1.0000 0.17200  0.78220  0.91060  Biso   1.000  O
  O34      1.0000 0.22440  0.11330  0.90150  Biso   1.000  O
  O35      1.0000 0.54500  0.14910  0.91050  Biso   1.000  O
  O36      1.0000 0.37760  0.87480  0.65630  Biso   1.000  O
