data_image0
_cell_length_a       7.301
_cell_length_b       10.133
_cell_length_c       18.032
_cell_angle_alpha    90
_cell_angle_beta     90
_cell_angle_gamma    94.307

_symmetry_space_group_name_H-M    P 1
_symmetry_int_tables_number       1

loop_
  _symmetry_equiv_pos_as_xyz
  'x, y, z'

loop_
  _atom_site_label
  _atom_site_occupancy
  _atom_site_fract_x
  _atom_site_fract_y
  _atom_site_fract_z
  _atom_site_thermal_displace_type
  _atom_site_B_iso_or_equiv
  _atom_site_type_symbol
  Cu1      1.0000 0.86507  0.21639  0.90536  Biso   1.000  Cu
  Cu2      1.0000 0.45869  0.56952  0.43152  Biso   1.000  Cu
  Cu3      1.0000 0.63493  0.28361  0.40536  Biso   1.000  Cu
  Cu4      1.0000 0.04131  0.93048  0.93152  Biso   1.000  Cu
  Cu5      1.0000 0.13493  0.78361  0.09464  Biso   1.000  Cu
  Cu6      1.0000 0.54131  0.43048  0.56848  Biso   1.000  Cu
  Cu7      1.0000 0.36507  0.71639  0.59464  Biso   1.000  Cu
  Cu8      1.0000 0.95869  0.06952  0.06848  Biso   1.000  Cu
  H1       1.0000 0.71730  0.33420  0.19200  Biso   1.000  H
  H2       1.0000 0.55920  0.70280  0.20700  Biso   1.000  H
  H3       1.0000 0.72590  0.56440  0.01140  Biso   1.000  H
  H4       1.0000 0.78270  0.16580  0.69200  Biso   1.000  H
  H5       1.0000 0.94080  0.79720  0.70700  Biso   1.000  H
  H6       1.0000 0.77410  0.93560  0.51140  Biso   1.000  H
  H7       1.0000 0.28270  0.66580  0.80800  Biso   1.000  H
  H8       1.0000 0.44080  0.29720  0.79300  Biso   1.000  H
  H9       1.0000 0.27410  0.43560  0.98860  Biso   1.000  H
  H10      1.0000 0.21730  0.83420  0.30800  Biso   1.000  H
  H11      1.0000 0.05920  0.20280  0.29300  Biso   1.000  H
  H12      1.0000 0.22590  0.06440  0.48860  Biso   1.000  H
  C1       1.0000 0.64090  0.64960  0.10370  Biso   1.000  C
  C2       1.0000 0.72990  0.43030  0.09540  Biso   1.000  C
  C3       1.0000 0.69710  0.41450  0.16960  Biso   1.000  C
  C4       1.0000 0.63490  0.51510  0.21210  Biso   1.000  C
  C5       1.0000 0.59890  0.49110  0.29300  Biso   1.000  C
  C6       1.0000 0.60370  0.63440  0.17950  Biso   1.000  C
  C7       1.0000 0.70240  0.55150  0.06170  Biso   1.000  C
  C8       1.0000 0.80250  0.31970  0.05270  Biso   1.000  C
  C9       1.0000 0.85910  0.85040  0.60370  Biso   1.000  C
  C10      1.0000 0.77010  0.06970  0.59540  Biso   1.000  C
  C11      1.0000 0.80290  0.08550  0.66960  Biso   1.000  C
  C12      1.0000 0.86510  0.98490  0.71210  Biso   1.000  C
  C13      1.0000 0.90110  0.00890  0.79300  Biso   1.000  C
  C14      1.0000 0.89630  0.86560  0.67950  Biso   1.000  C
  C15      1.0000 0.79760  0.94850  0.56170  Biso   1.000  C
  C16      1.0000 0.69750  0.18030  0.55270  Biso   1.000  C
  C17      1.0000 0.35910  0.35040  0.89630  Biso   1.000  C
  C18      1.0000 0.27010  0.56970  0.90460  Biso   1.000  C
  C19      1.0000 0.30290  0.58550  0.83040  Biso   1.000  C
  C20      1.0000 0.36510  0.48490  0.78790  Biso   1.000  C
  C21      1.0000 0.40110  0.50890  0.70700  Biso   1.000  C
  C22      1.0000 0.39630  0.36560  0.82050  Biso   1.000  C
  C23      1.0000 0.29760  0.44850  0.93830  Biso   1.000  C
  C24      1.0000 0.19750  0.68030  0.94730  Biso   1.000  C
  C25      1.0000 0.14090  0.14960  0.39630  Biso   1.000  C
  C26      1.0000 0.22990  0.93030  0.40460  Biso   1.000  C
  C27      1.0000 0.19710  0.91450  0.33040  Biso   1.000  C
  C28      1.0000 0.13490  0.01510  0.28790  Biso   1.000  C
  C29      1.0000 0.09890  0.99110  0.20700  Biso   1.000  C
  C30      1.0000 0.10370  0.13440  0.32050  Biso   1.000  C
  C31      1.0000 0.20240  0.05150  0.43830  Biso   1.000  C
  C32      1.0000 0.30250  0.81970  0.44730  Biso   1.000  C
  S1       1.0000 0.62230  0.80927  0.06516  Biso   1.000  S
  S2       1.0000 0.87770  0.69073  0.56516  Biso   1.000  S
  S3       1.0000 0.37770  0.19073  0.93484  Biso   1.000  S
  S4       1.0000 0.12230  0.30927  0.43484  Biso   1.000  S
  O1       1.0000 0.55380  0.58520  0.33160  Biso   1.000  O
  O2       1.0000 0.87090  0.05660  0.96500  Biso   1.000  O
  O3       1.0000 0.84130  0.33680  0.98630  Biso   1.000  O
  O4       1.0000 0.61990  0.37520  0.31380  Biso   1.000  O
  O5       1.0000 0.63400  0.80020  0.98760  Biso   1.000  O
  O6       1.0000 0.81770  0.21640  0.08950  Biso   1.000  O
  O7       1.0000 0.77300  0.88870  0.09800  Biso   1.000  O
  O8       1.0000 0.45210  0.85330  0.09180  Biso   1.000  O
  O9       1.0000 0.88070  0.37630  0.84380  Biso   1.000  O
  O10      1.0000 0.94620  0.91480  0.83160  Biso   1.000  O
  O11      1.0000 0.62910  0.44340  0.46500  Biso   1.000  O
  O12      1.0000 0.65870  0.16320  0.48630  Biso   1.000  O
  O13      1.0000 0.88010  0.12480  0.81380  Biso   1.000  O
  O14      1.0000 0.86600  0.69980  0.48760  Biso   1.000  O
  O15      1.0000 0.68230  0.28360  0.58950  Biso   1.000  O
  O16      1.0000 0.72700  0.61130  0.59800  Biso   1.000  O
  O17      1.0000 0.04790  0.64670  0.59180  Biso   1.000  O
  O18      1.0000 0.61930  0.12370  0.34380  Biso   1.000  O
  O19      1.0000 0.44620  0.41480  0.66840  Biso   1.000  O
  O20      1.0000 0.12910  0.94340  0.03500  Biso   1.000  O
  O21      1.0000 0.15870  0.66320  0.01370  Biso   1.000  O
  O22      1.0000 0.38010  0.62480  0.68620  Biso   1.000  O
  O23      1.0000 0.36600  0.19980  0.01240  Biso   1.000  O
  O24      1.0000 0.18230  0.78360  0.91050  Biso   1.000  O
  O25      1.0000 0.22700  0.11130  0.90200  Biso   1.000  O
  O26      1.0000 0.54790  0.14670  0.90820  Biso   1.000  O
  O27      1.0000 0.11930  0.62370  0.15620  Biso   1.000  O
  O28      1.0000 0.05380  0.08520  0.16840  Biso   1.000  O
  O29      1.0000 0.37090  0.55660  0.53500  Biso   1.000  O
  O30      1.0000 0.34130  0.83680  0.51370  Biso   1.000  O
  O31      1.0000 0.11990  0.87520  0.18620  Biso   1.000  O
  O32      1.0000 0.13400  0.30020  0.51240  Biso   1.000  O
  O33      1.0000 0.31770  0.71640  0.41050  Biso   1.000  O
  O34      1.0000 0.27300  0.38870  0.40200  Biso   1.000  O
  O35      1.0000 0.95210  0.35330  0.40820  Biso   1.000  O
  O36      1.0000 0.38070  0.87630  0.65620  Biso   1.000  O
