data_image0
_cell_length_a       15.1743
_cell_length_b       24.8859
_cell_length_c       24.8859
_cell_angle_alpha    90
_cell_angle_beta     90
_cell_angle_gamma    90

_symmetry_space_group_name_H-M    P 1
_symmetry_int_tables_number       1

loop_
  _symmetry_equiv_pos_as_xyz
  'x, y, z'

loop_
  _atom_site_label
  _atom_site_occupancy
  _atom_site_fract_x
  _atom_site_fract_y
  _atom_site_fract_z
  _atom_site_thermal_displace_type
  _atom_site_B_iso_or_equiv
  _atom_site_type_symbol
  Zn1      1.0000 0.03023  0.87922  0.02242  Biso   1.000  Zn
  Zn2      1.0000 0.24683  0.85097  0.00071  Biso   1.000  Zn
  Zn3      1.0000 0.96702  0.48235  0.37265  Biso   1.000  Zn
  Zn4      1.0000 0.03023  0.12078  0.97758  Biso   1.000  Zn
  Zn5      1.0000 0.24683  0.14903  0.99929  Biso   1.000  Zn
  Zn6      1.0000 0.96702  0.51765  0.62735  Biso   1.000  Zn
  Zn7      1.0000 0.96977  0.02242  0.12078  Biso   1.000  Zn
  Zn8      1.0000 0.75317  0.00071  0.14903  Biso   1.000  Zn
  Zn9      1.0000 0.03298  0.37265  0.51765  Biso   1.000  Zn
  Zn10     1.0000 0.96977  0.97758  0.87922  Biso   1.000  Zn
  Zn11     1.0000 0.75317  0.99929  0.85097  Biso   1.000  Zn
  Zn12     1.0000 0.03298  0.62735  0.48235  Biso   1.000  Zn
  Zn13     1.0000 0.46977  0.62078  0.52242  Biso   1.000  Zn
  Zn14     1.0000 0.25317  0.64903  0.50071  Biso   1.000  Zn
  Zn15     1.0000 0.53298  0.01765  0.87265  Biso   1.000  Zn
  Zn16     1.0000 0.46977  0.37922  0.47758  Biso   1.000  Zn
  Zn17     1.0000 0.25317  0.35097  0.49929  Biso   1.000  Zn
  Zn18     1.0000 0.53298  0.98235  0.12735  Biso   1.000  Zn
  Zn19     1.0000 0.53023  0.47758  0.62078  Biso   1.000  Zn
  Zn20     1.0000 0.74683  0.49929  0.64903  Biso   1.000  Zn
  Zn21     1.0000 0.46702  0.12735  0.01765  Biso   1.000  Zn
  Zn22     1.0000 0.53023  0.52242  0.37922  Biso   1.000  Zn
  Zn23     1.0000 0.74683  0.50071  0.35097  Biso   1.000  Zn
  Zn24     1.0000 0.46702  0.87265  0.98235  Biso   1.000  Zn
  H1       1.0000 0.21060  0.73160  0.88430  Biso   1.000  H
  H2       1.0000 0.17830  0.67260  0.81480  Biso   1.000  H
  H3       1.0000 0.92090  0.71420  0.82630  Biso   1.000  H
  H4       1.0000 0.95560  0.77260  0.89550  Biso   1.000  H
  H5       1.0000 0.90100  0.62840  0.79380  Biso   1.000  H
  H6       1.0000 0.87610  0.56510  0.72570  Biso   1.000  H
  H7       1.0000 0.10750  0.59250  0.66320  Biso   1.000  H
  H8       1.0000 0.14170  0.65530  0.72930  Biso   1.000  H
  H9       1.0000 0.02310  0.62000  0.28700  Biso   1.000  H
  H10      1.0000 0.06260  0.69110  0.23100  Biso   1.000  H
  H11      1.0000 0.81160  0.70030  0.17900  Biso   1.000  H
  H12      1.0000 0.77340  0.62840  0.23460  Biso   1.000  H
  H13      1.0000 0.08970  0.72010  0.14430  Biso   1.000  H
  H14      1.0000 0.12110  0.78480  0.08100  Biso   1.000  H
  H15      1.0000 0.89170  0.85330  0.10300  Biso   1.000  H
  H16      1.0000 0.85510  0.79030  0.16830  Biso   1.000  H
  H17      1.0000 0.21340  0.96610  0.04070  Biso   1.000  H
  H18      1.0000 0.28900  0.90530  0.09440  Biso   1.000  H
  H19      1.0000 0.25020  0.95320  0.13020  Biso   1.000  H
  H20      1.0000 0.20250  0.89580  0.12990  Biso   1.000  H
  H21      1.0000 0.27910  0.94830  0.93160  Biso   1.000  H
  H22      1.0000 0.25160  0.86790  0.87840  Biso   1.000  H
  H23      1.0000 0.35210  0.86950  0.85910  Biso   1.000  H
  H24      1.0000 0.28620  0.91690  0.84250  Biso   1.000  H
  H25      1.0000 0.21060  0.26840  0.11570  Biso   1.000  H
  H26      1.0000 0.17830  0.32740  0.18520  Biso   1.000  H
  H27      1.0000 0.92090  0.28580  0.17370  Biso   1.000  H
  H28      1.0000 0.95560  0.22740  0.10450  Biso   1.000  H
  H29      1.0000 0.90100  0.37160  0.20620  Biso   1.000  H
  H30      1.0000 0.87610  0.43490  0.27430  Biso   1.000  H
  H31      1.0000 0.10750  0.40750  0.33680  Biso   1.000  H
  H32      1.0000 0.14170  0.34470  0.27070  Biso   1.000  H
  H33      1.0000 0.02310  0.38000  0.71300  Biso   1.000  H
  H34      1.0000 0.06260  0.30890  0.76900  Biso   1.000  H
  H35      1.0000 0.81160  0.29970  0.82100  Biso   1.000  H
  H36      1.0000 0.77340  0.37160  0.76540  Biso   1.000  H
  H37      1.0000 0.08970  0.27990  0.85570  Biso   1.000  H
  H38      1.0000 0.12110  0.21520  0.91900  Biso   1.000  H
  H39      1.0000 0.89170  0.14670  0.89700  Biso   1.000  H
  H40      1.0000 0.85510  0.20970  0.83170  Biso   1.000  H
  H41      1.0000 0.21340  0.03390  0.95930  Biso   1.000  H
  H42      1.0000 0.28900  0.09470  0.90560  Biso   1.000  H
  H43      1.0000 0.25020  0.04680  0.86980  Biso   1.000  H
  H44      1.0000 0.20250  0.10420  0.87010  Biso   1.000  H
  H45      1.0000 0.27910  0.05170  0.06840  Biso   1.000  H
  H46      1.0000 0.25160  0.13210  0.12160  Biso   1.000  H
  H47      1.0000 0.35210  0.13050  0.14090  Biso   1.000  H
  H48      1.0000 0.28620  0.08310  0.15750  Biso   1.000  H
  H49      1.0000 0.78940  0.88430  0.26840  Biso   1.000  H
  H50      1.0000 0.82170  0.81480  0.32740  Biso   1.000  H
  H51      1.0000 0.07910  0.82630  0.28580  Biso   1.000  H
  H52      1.0000 0.04440  0.89550  0.22740  Biso   1.000  H
  H53      1.0000 0.09900  0.79380  0.37160  Biso   1.000  H
  H54      1.0000 0.12390  0.72570  0.43490  Biso   1.000  H
  H55      1.0000 0.89250  0.66320  0.40750  Biso   1.000  H
  H56      1.0000 0.85830  0.72930  0.34470  Biso   1.000  H
  H57      1.0000 0.97690  0.28700  0.38000  Biso   1.000  H
  H58      1.0000 0.93740  0.23100  0.30890  Biso   1.000  H
  H59      1.0000 0.18840  0.17900  0.29970  Biso   1.000  H
  H60      1.0000 0.22660  0.23460  0.37160  Biso   1.000  H
  H61      1.0000 0.91030  0.14430  0.27990  Biso   1.000  H
  H62      1.0000 0.87890  0.08100  0.21520  Biso   1.000  H
  H63      1.0000 0.10830  0.10300  0.14670  Biso   1.000  H
  H64      1.0000 0.14490  0.16830  0.20970  Biso   1.000  H
  H65      1.0000 0.78660  0.04070  0.03390  Biso   1.000  H
  H66      1.0000 0.71100  0.09440  0.09470  Biso   1.000  H
  H67      1.0000 0.74980  0.13020  0.04680  Biso   1.000  H
  H68      1.0000 0.79750  0.12990  0.10420  Biso   1.000  H
  H69      1.0000 0.72090  0.93160  0.05170  Biso   1.000  H
  H70      1.0000 0.74840  0.87840  0.13210  Biso   1.000  H
  H71      1.0000 0.64790  0.85910  0.13050  Biso   1.000  H
  H72      1.0000 0.71380  0.84250  0.08310  Biso   1.000  H
  H73      1.0000 0.78940  0.11570  0.73160  Biso   1.000  H
  H74      1.0000 0.82170  0.18520  0.67260  Biso   1.000  H
  H75      1.0000 0.07910  0.17370  0.71420  Biso   1.000  H
  H76      1.0000 0.04440  0.10450  0.77260  Biso   1.000  H
  H77      1.0000 0.09900  0.20620  0.62840  Biso   1.000  H
  H78      1.0000 0.12390  0.27430  0.56510  Biso   1.000  H
  H79      1.0000 0.89250  0.33680  0.59250  Biso   1.000  H
  H80      1.0000 0.85830  0.27070  0.65530  Biso   1.000  H
  H81      1.0000 0.97690  0.71300  0.62000  Biso   1.000  H
  H82      1.0000 0.93740  0.76900  0.69110  Biso   1.000  H
  H83      1.0000 0.18840  0.82100  0.70030  Biso   1.000  H
  H84      1.0000 0.22660  0.76540  0.62840  Biso   1.000  H
  H85      1.0000 0.91030  0.85570  0.72010  Biso   1.000  H
  H86      1.0000 0.87890  0.91900  0.78480  Biso   1.000  H
  H87      1.0000 0.10830  0.89700  0.85330  Biso   1.000  H
  H88      1.0000 0.14490  0.83170  0.79030  Biso   1.000  H
  H89      1.0000 0.78660  0.95930  0.96610  Biso   1.000  H
  H90      1.0000 0.71100  0.90560  0.90530  Biso   1.000  H
  H91      1.0000 0.74980  0.86980  0.95320  Biso   1.000  H
  H92      1.0000 0.79750  0.87010  0.89580  Biso   1.000  H
  H93      1.0000 0.72090  0.06840  0.94830  Biso   1.000  H
  H94      1.0000 0.74840  0.12160  0.86790  Biso   1.000  H
  H95      1.0000 0.64790  0.14090  0.86950  Biso   1.000  H
  H96      1.0000 0.71380  0.15750  0.91690  Biso   1.000  H
  H97      1.0000 0.28940  0.76840  0.38430  Biso   1.000  H
  H98      1.0000 0.32170  0.82740  0.31480  Biso   1.000  H
  H99      1.0000 0.57910  0.78580  0.32630  Biso   1.000  H
  H100     1.0000 0.54440  0.72740  0.39550  Biso   1.000  H
  H101     1.0000 0.59900  0.87160  0.29380  Biso   1.000  H
  H102     1.0000 0.62390  0.93490  0.22570  Biso   1.000  H
  H103     1.0000 0.39250  0.90750  0.16320  Biso   1.000  H
  H104     1.0000 0.35830  0.84470  0.22930  Biso   1.000  H
  H105     1.0000 0.47690  0.88000  0.78700  Biso   1.000  H
  H106     1.0000 0.43740  0.80890  0.73100  Biso   1.000  H
  H107     1.0000 0.68840  0.79970  0.67900  Biso   1.000  H
  H108     1.0000 0.72660  0.87160  0.73460  Biso   1.000  H
  H109     1.0000 0.41030  0.77990  0.64430  Biso   1.000  H
  H110     1.0000 0.37890  0.71520  0.58100  Biso   1.000  H
  H111     1.0000 0.60830  0.64670  0.60300  Biso   1.000  H
  H112     1.0000 0.64490  0.70970  0.66830  Biso   1.000  H
  H113     1.0000 0.28660  0.53390  0.54070  Biso   1.000  H
  H114     1.0000 0.21100  0.59470  0.59440  Biso   1.000  H
  H115     1.0000 0.24980  0.54680  0.63020  Biso   1.000  H
  H116     1.0000 0.29750  0.60420  0.62990  Biso   1.000  H
  H117     1.0000 0.22090  0.55170  0.43160  Biso   1.000  H
  H118     1.0000 0.24840  0.63210  0.37840  Biso   1.000  H
  H119     1.0000 0.14790  0.63050  0.35910  Biso   1.000  H
  H120     1.0000 0.21380  0.58310  0.34250  Biso   1.000  H
  H121     1.0000 0.28940  0.23160  0.61570  Biso   1.000  H
  H122     1.0000 0.32170  0.17260  0.68520  Biso   1.000  H
  H123     1.0000 0.57910  0.21420  0.67370  Biso   1.000  H
  H124     1.0000 0.54440  0.27260  0.60450  Biso   1.000  H
  H125     1.0000 0.59900  0.12840  0.70620  Biso   1.000  H
  H126     1.0000 0.62390  0.06510  0.77430  Biso   1.000  H
  H127     1.0000 0.39250  0.09250  0.83680  Biso   1.000  H
  H128     1.0000 0.35830  0.15530  0.77070  Biso   1.000  H
  H129     1.0000 0.47690  0.12000  0.21300  Biso   1.000  H
  H130     1.0000 0.43740  0.19110  0.26900  Biso   1.000  H
  H131     1.0000 0.68840  0.20030  0.32100  Biso   1.000  H
  H132     1.0000 0.72660  0.12840  0.26540  Biso   1.000  H
  H133     1.0000 0.41030  0.22010  0.35570  Biso   1.000  H
  H134     1.0000 0.37890  0.28480  0.41900  Biso   1.000  H
  H135     1.0000 0.60830  0.35330  0.39700  Biso   1.000  H
  H136     1.0000 0.64490  0.29030  0.33170  Biso   1.000  H
  H137     1.0000 0.28660  0.46610  0.45930  Biso   1.000  H
  H138     1.0000 0.21100  0.40530  0.40560  Biso   1.000  H
  H139     1.0000 0.24980  0.45320  0.36980  Biso   1.000  H
  H140     1.0000 0.29750  0.39580  0.37010  Biso   1.000  H
  H141     1.0000 0.22090  0.44830  0.56840  Biso   1.000  H
  H142     1.0000 0.24840  0.36790  0.62160  Biso   1.000  H
  H143     1.0000 0.14790  0.36950  0.64090  Biso   1.000  H
  H144     1.0000 0.21380  0.41690  0.65750  Biso   1.000  H
  H145     1.0000 0.71060  0.61570  0.76840  Biso   1.000  H
  H146     1.0000 0.67830  0.68520  0.82740  Biso   1.000  H
  H147     1.0000 0.42090  0.67370  0.78580  Biso   1.000  H
  H148     1.0000 0.45560  0.60450  0.72740  Biso   1.000  H
  H149     1.0000 0.40100  0.70620  0.87160  Biso   1.000  H
  H150     1.0000 0.37610  0.77430  0.93490  Biso   1.000  H
  H151     1.0000 0.60750  0.83680  0.90750  Biso   1.000  H
  H152     1.0000 0.64170  0.77070  0.84470  Biso   1.000  H
  H153     1.0000 0.52310  0.21300  0.88000  Biso   1.000  H
  H154     1.0000 0.56260  0.26900  0.80890  Biso   1.000  H
  H155     1.0000 0.31160  0.32100  0.79970  Biso   1.000  H
  H156     1.0000 0.27340  0.26540  0.87160  Biso   1.000  H
  H157     1.0000 0.58970  0.35570  0.77990  Biso   1.000  H
  H158     1.0000 0.62110  0.41900  0.71520  Biso   1.000  H
  H159     1.0000 0.39170  0.39700  0.64670  Biso   1.000  H
  H160     1.0000 0.35510  0.33170  0.70970  Biso   1.000  H
  H161     1.0000 0.71340  0.45930  0.53390  Biso   1.000  H
  H162     1.0000 0.78900  0.40560  0.59470  Biso   1.000  H
  H163     1.0000 0.75020  0.36980  0.54680  Biso   1.000  H
  H164     1.0000 0.70250  0.37010  0.60420  Biso   1.000  H
  H165     1.0000 0.77910  0.56840  0.55170  Biso   1.000  H
  H166     1.0000 0.75160  0.62160  0.63210  Biso   1.000  H
  H167     1.0000 0.85210  0.64090  0.63050  Biso   1.000  H
  H168     1.0000 0.78620  0.65750  0.58310  Biso   1.000  H
  H169     1.0000 0.71060  0.38430  0.23160  Biso   1.000  H
  H170     1.0000 0.67830  0.31480  0.17260  Biso   1.000  H
  H171     1.0000 0.42090  0.32630  0.21420  Biso   1.000  H
  H172     1.0000 0.45560  0.39550  0.27260  Biso   1.000  H
  H173     1.0000 0.40100  0.29380  0.12840  Biso   1.000  H
  H174     1.0000 0.37610  0.22570  0.06510  Biso   1.000  H
  H175     1.0000 0.60750  0.16320  0.09250  Biso   1.000  H
  H176     1.0000 0.64170  0.22930  0.15530  Biso   1.000  H
  H177     1.0000 0.52310  0.78700  0.12000  Biso   1.000  H
  H178     1.0000 0.56260  0.73100  0.19110  Biso   1.000  H
  H179     1.0000 0.31160  0.67900  0.20030  Biso   1.000  H
  H180     1.0000 0.27340  0.73460  0.12840  Biso   1.000  H
  H181     1.0000 0.58970  0.64430  0.22010  Biso   1.000  H
  H182     1.0000 0.62110  0.58100  0.28480  Biso   1.000  H
  H183     1.0000 0.39170  0.60300  0.35330  Biso   1.000  H
  H184     1.0000 0.35510  0.66830  0.29030  Biso   1.000  H
  H185     1.0000 0.71340  0.54070  0.46610  Biso   1.000  H
  H186     1.0000 0.78900  0.59440  0.40530  Biso   1.000  H
  H187     1.0000 0.75020  0.63020  0.45320  Biso   1.000  H
  H188     1.0000 0.70250  0.62990  0.39580  Biso   1.000  H
  H189     1.0000 0.77910  0.43160  0.44830  Biso   1.000  H
  H190     1.0000 0.75160  0.37840  0.36790  Biso   1.000  H
  H191     1.0000 0.85210  0.35910  0.36950  Biso   1.000  H
  H192     1.0000 0.78620  0.34250  0.41690  Biso   1.000  H
  C1       1.0000 0.08650  0.75780  0.89720  Biso   1.000  C
  C2       1.0000 0.15130  0.72790  0.87260  Biso   1.000  C
  C3       1.0000 0.13230  0.69270  0.83120  Biso   1.000  C
  C4       1.0000 0.04610  0.68660  0.81360  Biso   1.000  C
  C5       1.0000 0.98020  0.71730  0.83800  Biso   1.000  C
  C6       1.0000 0.00110  0.75200  0.87910  Biso   1.000  C
  C7       1.0000 0.02590  0.64760  0.77020  Biso   1.000  C
  C8       1.0000 0.94550  0.62110  0.76800  Biso   1.000  C
  C9       1.0000 0.93080  0.58350  0.72670  Biso   1.000  C
  C10      1.0000 0.06550  0.59950  0.69070  Biso   1.000  C
  C11      1.0000 0.08660  0.63710  0.73000  Biso   1.000  C
  C12      1.0000 0.10890  0.79570  0.94210  Biso   1.000  C
  C13      1.0000 0.89620  0.61610  0.26490  Biso   1.000  C
  C14      1.0000 0.97990  0.63580  0.26440  Biso   1.000  C
  C15      1.0000 0.00330  0.67870  0.23150  Biso   1.000  C
  C16      1.0000 0.94170  0.70310  0.20000  Biso   1.000  C
  C17      1.0000 0.85510  0.68390  0.20090  Biso   1.000  C
  C18      1.0000 0.83260  0.64090  0.23360  Biso   1.000  C
  C19      1.0000 0.96780  0.74640  0.16190  Biso   1.000  C
  C20      1.0000 0.04700  0.74680  0.13620  Biso   1.000  C
  C21      1.0000 0.06550  0.78580  0.09850  Biso   1.000  C
  C22      1.0000 0.93270  0.82560  0.11130  Biso   1.000  C
  C23      1.0000 0.90990  0.78780  0.15000  Biso   1.000  C
  C24      1.0000 0.87330  0.56870  0.29910  Biso   1.000  C
  C25      1.0000 0.17940  0.93940  0.06240  Biso   1.000  C
  C26      1.0000 0.09640  0.96680  0.08360  Biso   1.000  C
  C27      1.0000 0.23500  0.92200  0.10810  Biso   1.000  C
  C28      1.0000 0.41190  0.95330  0.91070  Biso   1.000  C
  C29      1.0000 0.32710  0.92240  0.92240  Biso   1.000  C
  C30      1.0000 0.30200  0.89130  0.87090  Biso   1.000  C
  C31      1.0000 0.08650  0.24220  0.10280  Biso   1.000  C
  C32      1.0000 0.15130  0.27210  0.12740  Biso   1.000  C
  C33      1.0000 0.13230  0.30730  0.16880  Biso   1.000  C
  C34      1.0000 0.04610  0.31340  0.18640  Biso   1.000  C
  C35      1.0000 0.98020  0.28270  0.16200  Biso   1.000  C
  C36      1.0000 0.00110  0.24800  0.12090  Biso   1.000  C
  C37      1.0000 0.02590  0.35240  0.22980  Biso   1.000  C
  C38      1.0000 0.94550  0.37890  0.23200  Biso   1.000  C
  C39      1.0000 0.93080  0.41650  0.27330  Biso   1.000  C
  C40      1.0000 0.06550  0.40050  0.30930  Biso   1.000  C
  C41      1.0000 0.08660  0.36290  0.27000  Biso   1.000  C
  C42      1.0000 0.10890  0.20430  0.05790  Biso   1.000  C
  C43      1.0000 0.89620  0.38390  0.73510  Biso   1.000  C
  C44      1.0000 0.97990  0.36420  0.73560  Biso   1.000  C
  C45      1.0000 0.00330  0.32130  0.76850  Biso   1.000  C
  C46      1.0000 0.94170  0.29690  0.80000  Biso   1.000  C
  C47      1.0000 0.85510  0.31610  0.79910  Biso   1.000  C
  C48      1.0000 0.83260  0.35910  0.76640  Biso   1.000  C
  C49      1.0000 0.96780  0.25360  0.83810  Biso   1.000  C
  C50      1.0000 0.04700  0.25320  0.86380  Biso   1.000  C
  C51      1.0000 0.06550  0.21420  0.90150  Biso   1.000  C
  C52      1.0000 0.93270  0.17440  0.88870  Biso   1.000  C
  C53      1.0000 0.90990  0.21220  0.85000  Biso   1.000  C
  C54      1.0000 0.87330  0.43130  0.70090  Biso   1.000  C
  C55      1.0000 0.17940  0.06060  0.93760  Biso   1.000  C
  C56      1.0000 0.09640  0.03320  0.91640  Biso   1.000  C
  C57      1.0000 0.23500  0.07800  0.89190  Biso   1.000  C
  C58      1.0000 0.41190  0.04670  0.08930  Biso   1.000  C
  C59      1.0000 0.32710  0.07760  0.07760  Biso   1.000  C
  C60      1.0000 0.30200  0.10870  0.12910  Biso   1.000  C
  C61      1.0000 0.91350  0.89720  0.24220  Biso   1.000  C
  C62      1.0000 0.84870  0.87260  0.27210  Biso   1.000  C
  C63      1.0000 0.86770  0.83120  0.30730  Biso   1.000  C
  C64      1.0000 0.95390  0.81360  0.31340  Biso   1.000  C
  C65      1.0000 0.01980  0.83800  0.28270  Biso   1.000  C
  C66      1.0000 0.99890  0.87910  0.24800  Biso   1.000  C
  C67      1.0000 0.97410  0.77020  0.35240  Biso   1.000  C
  C68      1.0000 0.05450  0.76800  0.37890  Biso   1.000  C
  C69      1.0000 0.06920  0.72670  0.41650  Biso   1.000  C
  C70      1.0000 0.93450  0.69070  0.40050  Biso   1.000  C
  C71      1.0000 0.91340  0.73000  0.36290  Biso   1.000  C
  C72      1.0000 0.89110  0.94210  0.20430  Biso   1.000  C
  C73      1.0000 0.10380  0.26490  0.38390  Biso   1.000  C
  C74      1.0000 0.02010  0.26440  0.36420  Biso   1.000  C
  C75      1.0000 0.99670  0.23150  0.32130  Biso   1.000  C
  C76      1.0000 0.05830  0.20000  0.29690  Biso   1.000  C
  C77      1.0000 0.14490  0.20090  0.31610  Biso   1.000  C
  C78      1.0000 0.16740  0.23360  0.35910  Biso   1.000  C
  C79      1.0000 0.03220  0.16190  0.25360  Biso   1.000  C
  C80      1.0000 0.95300  0.13620  0.25320  Biso   1.000  C
  C81      1.0000 0.93450  0.09850  0.21420  Biso   1.000  C
  C82      1.0000 0.06730  0.11130  0.17440  Biso   1.000  C
  C83      1.0000 0.09010  0.15000  0.21220  Biso   1.000  C
  C84      1.0000 0.12670  0.29910  0.43130  Biso   1.000  C
  C85      1.0000 0.82060  0.06240  0.06060  Biso   1.000  C
  C86      1.0000 0.90360  0.08360  0.03320  Biso   1.000  C
  C87      1.0000 0.76500  0.10810  0.07800  Biso   1.000  C
  C88      1.0000 0.58810  0.91070  0.04670  Biso   1.000  C
  C89      1.0000 0.67290  0.92240  0.07760  Biso   1.000  C
  C90      1.0000 0.69800  0.87090  0.10870  Biso   1.000  C
  C91      1.0000 0.91350  0.10280  0.75780  Biso   1.000  C
  C92      1.0000 0.84870  0.12740  0.72790  Biso   1.000  C
  C93      1.0000 0.86770  0.16880  0.69270  Biso   1.000  C
  C94      1.0000 0.95390  0.18640  0.68660  Biso   1.000  C
  C95      1.0000 0.01980  0.16200  0.71730  Biso   1.000  C
  C96      1.0000 0.99890  0.12090  0.75200  Biso   1.000  C
  C97      1.0000 0.97410  0.22980  0.64760  Biso   1.000  C
  C98      1.0000 0.05450  0.23200  0.62110  Biso   1.000  C
  C99      1.0000 0.06920  0.27330  0.58350  Biso   1.000  C
  C100     1.0000 0.93450  0.30930  0.59950  Biso   1.000  C
  C101     1.0000 0.91340  0.27000  0.63710  Biso   1.000  C
  C102     1.0000 0.89110  0.05790  0.79570  Biso   1.000  C
  C103     1.0000 0.10380  0.73510  0.61610  Biso   1.000  C
  C104     1.0000 0.02010  0.73560  0.63580  Biso   1.000  C
  C105     1.0000 0.99670  0.76850  0.67870  Biso   1.000  C
  C106     1.0000 0.05830  0.80000  0.70310  Biso   1.000  C
  C107     1.0000 0.14490  0.79910  0.68390  Biso   1.000  C
  C108     1.0000 0.16740  0.76640  0.64090  Biso   1.000  C
  C109     1.0000 0.03220  0.83810  0.74640  Biso   1.000  C
  C110     1.0000 0.95300  0.86380  0.74680  Biso   1.000  C
  C111     1.0000 0.93450  0.90150  0.78580  Biso   1.000  C
  C112     1.0000 0.06730  0.88870  0.82560  Biso   1.000  C
  C113     1.0000 0.09010  0.85000  0.78780  Biso   1.000  C
  C114     1.0000 0.12670  0.70090  0.56870  Biso   1.000  C
  C115     1.0000 0.82060  0.93760  0.93940  Biso   1.000  C
  C116     1.0000 0.90360  0.91640  0.96680  Biso   1.000  C
  C117     1.0000 0.76500  0.89190  0.92200  Biso   1.000  C
  C118     1.0000 0.58810  0.08930  0.95330  Biso   1.000  C
  C119     1.0000 0.67290  0.07760  0.92240  Biso   1.000  C
  C120     1.0000 0.69800  0.12910  0.89130  Biso   1.000  C
  C121     1.0000 0.41350  0.74220  0.39720  Biso   1.000  C
  C122     1.0000 0.34870  0.77210  0.37260  Biso   1.000  C
  C123     1.0000 0.36770  0.80730  0.33120  Biso   1.000  C
  C124     1.0000 0.45390  0.81340  0.31360  Biso   1.000  C
  C125     1.0000 0.51980  0.78270  0.33800  Biso   1.000  C
  C126     1.0000 0.49890  0.74800  0.37910  Biso   1.000  C
  C127     1.0000 0.47410  0.85240  0.27020  Biso   1.000  C
  C128     1.0000 0.55450  0.87890  0.26800  Biso   1.000  C
  C129     1.0000 0.56920  0.91650  0.22670  Biso   1.000  C
  C130     1.0000 0.43450  0.90050  0.19070  Biso   1.000  C
  C131     1.0000 0.41340  0.86290  0.23000  Biso   1.000  C
  C132     1.0000 0.39110  0.70430  0.44210  Biso   1.000  C
  C133     1.0000 0.60380  0.88390  0.76490  Biso   1.000  C
  C134     1.0000 0.52010  0.86420  0.76440  Biso   1.000  C
  C135     1.0000 0.49670  0.82130  0.73150  Biso   1.000  C
  C136     1.0000 0.55830  0.79690  0.70000  Biso   1.000  C
  C137     1.0000 0.64490  0.81610  0.70090  Biso   1.000  C
  C138     1.0000 0.66740  0.85910  0.73360  Biso   1.000  C
  C139     1.0000 0.53220  0.75360  0.66190  Biso   1.000  C
  C140     1.0000 0.45300  0.75320  0.63620  Biso   1.000  C
  C141     1.0000 0.43450  0.71420  0.59850  Biso   1.000  C
  C142     1.0000 0.56730  0.67440  0.61130  Biso   1.000  C
  C143     1.0000 0.59010  0.71220  0.65000  Biso   1.000  C
  C144     1.0000 0.62670  0.93130  0.79910  Biso   1.000  C
  C145     1.0000 0.32060  0.56060  0.56240  Biso   1.000  C
  C146     1.0000 0.40360  0.53320  0.58360  Biso   1.000  C
  C147     1.0000 0.26500  0.57800  0.60810  Biso   1.000  C
  C148     1.0000 0.08810  0.54670  0.41070  Biso   1.000  C
  C149     1.0000 0.17290  0.57760  0.42240  Biso   1.000  C
  C150     1.0000 0.19800  0.60870  0.37090  Biso   1.000  C
  C151     1.0000 0.41350  0.25780  0.60280  Biso   1.000  C
  C152     1.0000 0.34870  0.22790  0.62740  Biso   1.000  C
  C153     1.0000 0.36770  0.19270  0.66880  Biso   1.000  C
  C154     1.0000 0.45390  0.18660  0.68640  Biso   1.000  C
  C155     1.0000 0.51980  0.21730  0.66200  Biso   1.000  C
  C156     1.0000 0.49890  0.25200  0.62090  Biso   1.000  C
  C157     1.0000 0.47410  0.14760  0.72980  Biso   1.000  C
  C158     1.0000 0.55450  0.12110  0.73200  Biso   1.000  C
  C159     1.0000 0.56920  0.08350  0.77330  Biso   1.000  C
  C160     1.0000 0.43450  0.09950  0.80930  Biso   1.000  C
  C161     1.0000 0.41340  0.13710  0.77000  Biso   1.000  C
  C162     1.0000 0.39110  0.29570  0.55790  Biso   1.000  C
  C163     1.0000 0.60380  0.11610  0.23510  Biso   1.000  C
  C164     1.0000 0.52010  0.13580  0.23560  Biso   1.000  C
  C165     1.0000 0.49670  0.17870  0.26850  Biso   1.000  C
  C166     1.0000 0.55830  0.20310  0.30000  Biso   1.000  C
  C167     1.0000 0.64490  0.18390  0.29910  Biso   1.000  C
  C168     1.0000 0.66740  0.14090  0.26640  Biso   1.000  C
  C169     1.0000 0.53220  0.24640  0.33810  Biso   1.000  C
  C170     1.0000 0.45300  0.24680  0.36380  Biso   1.000  C
  C171     1.0000 0.43450  0.28580  0.40150  Biso   1.000  C
  C172     1.0000 0.56730  0.32560  0.38870  Biso   1.000  C
  C173     1.0000 0.59010  0.28780  0.35000  Biso   1.000  C
  C174     1.0000 0.62670  0.06870  0.20090  Biso   1.000  C
  C175     1.0000 0.32060  0.43940  0.43760  Biso   1.000  C
  C176     1.0000 0.40360  0.46680  0.41640  Biso   1.000  C
  C177     1.0000 0.26500  0.42200  0.39190  Biso   1.000  C
  C178     1.0000 0.08810  0.45330  0.58930  Biso   1.000  C
  C179     1.0000 0.17290  0.42240  0.57760  Biso   1.000  C
  C180     1.0000 0.19800  0.39130  0.62910  Biso   1.000  C
  C181     1.0000 0.58650  0.60280  0.74220  Biso   1.000  C
  C182     1.0000 0.65130  0.62740  0.77210  Biso   1.000  C
  C183     1.0000 0.63230  0.66880  0.80730  Biso   1.000  C
  C184     1.0000 0.54610  0.68640  0.81340  Biso   1.000  C
  C185     1.0000 0.48020  0.66200  0.78270  Biso   1.000  C
  C186     1.0000 0.50110  0.62090  0.74800  Biso   1.000  C
  C187     1.0000 0.52590  0.72980  0.85240  Biso   1.000  C
  C188     1.0000 0.44550  0.73200  0.87890  Biso   1.000  C
  C189     1.0000 0.43080  0.77330  0.91650  Biso   1.000  C
  C190     1.0000 0.56550  0.80930  0.90050  Biso   1.000  C
  C191     1.0000 0.58660  0.77000  0.86290  Biso   1.000  C
  C192     1.0000 0.60890  0.55790  0.70430  Biso   1.000  C
  C193     1.0000 0.39620  0.23510  0.88390  Biso   1.000  C
  C194     1.0000 0.47990  0.23560  0.86420  Biso   1.000  C
  C195     1.0000 0.50330  0.26850  0.82130  Biso   1.000  C
  C196     1.0000 0.44170  0.30000  0.79690  Biso   1.000  C
  C197     1.0000 0.35510  0.29910  0.81610  Biso   1.000  C
  C198     1.0000 0.33260  0.26640  0.85910  Biso   1.000  C
  C199     1.0000 0.46780  0.33810  0.75360  Biso   1.000  C
  C200     1.0000 0.54700  0.36380  0.75320  Biso   1.000  C
  C201     1.0000 0.56550  0.40150  0.71420  Biso   1.000  C
  C202     1.0000 0.43270  0.38870  0.67440  Biso   1.000  C
  C203     1.0000 0.40990  0.35000  0.71220  Biso   1.000  C
  C204     1.0000 0.37330  0.20090  0.93130  Biso   1.000  C
  C205     1.0000 0.67940  0.43760  0.56060  Biso   1.000  C
  C206     1.0000 0.59640  0.41640  0.53320  Biso   1.000  C
  C207     1.0000 0.73500  0.39190  0.57800  Biso   1.000  C
  C208     1.0000 0.91190  0.58930  0.54670  Biso   1.000  C
  C209     1.0000 0.82710  0.57760  0.57760  Biso   1.000  C
  C210     1.0000 0.80200  0.62910  0.60870  Biso   1.000  C
  C211     1.0000 0.58650  0.39720  0.25780  Biso   1.000  C
  C212     1.0000 0.65130  0.37260  0.22790  Biso   1.000  C
  C213     1.0000 0.63230  0.33120  0.19270  Biso   1.000  C
  C214     1.0000 0.54610  0.31360  0.18660  Biso   1.000  C
  C215     1.0000 0.48020  0.33800  0.21730  Biso   1.000  C
  C216     1.0000 0.50110  0.37910  0.25200  Biso   1.000  C
  C217     1.0000 0.52590  0.27020  0.14760  Biso   1.000  C
  C218     1.0000 0.44550  0.26800  0.12110  Biso   1.000  C
  C219     1.0000 0.43080  0.22670  0.08350  Biso   1.000  C
  C220     1.0000 0.56550  0.19070  0.09950  Biso   1.000  C
  C221     1.0000 0.58660  0.23000  0.13710  Biso   1.000  C
  C222     1.0000 0.60890  0.44210  0.29570  Biso   1.000  C
  C223     1.0000 0.39620  0.76490  0.11610  Biso   1.000  C
  C224     1.0000 0.47990  0.76440  0.13580  Biso   1.000  C
  C225     1.0000 0.50330  0.73150  0.17870  Biso   1.000  C
  C226     1.0000 0.44170  0.70000  0.20310  Biso   1.000  C
  C227     1.0000 0.35510  0.70090  0.18390  Biso   1.000  C
  C228     1.0000 0.33260  0.73360  0.14090  Biso   1.000  C
  C229     1.0000 0.46780  0.66190  0.24640  Biso   1.000  C
  C230     1.0000 0.54700  0.63620  0.24680  Biso   1.000  C
  C231     1.0000 0.56550  0.59850  0.28580  Biso   1.000  C
  C232     1.0000 0.43270  0.61130  0.32560  Biso   1.000  C
  C233     1.0000 0.40990  0.65000  0.28780  Biso   1.000  C
  C234     1.0000 0.37330  0.79910  0.06870  Biso   1.000  C
  C235     1.0000 0.67940  0.56240  0.43940  Biso   1.000  C
  C236     1.0000 0.59640  0.58360  0.46680  Biso   1.000  C
  C237     1.0000 0.73500  0.60810  0.42200  Biso   1.000  C
  C238     1.0000 0.91190  0.41070  0.45330  Biso   1.000  C
  C239     1.0000 0.82710  0.42240  0.42240  Biso   1.000  C
  C240     1.0000 0.80200  0.37090  0.39130  Biso   1.000  C
  N1       1.0000 0.98980  0.57280  0.68950  Biso   1.000  N
  N2       1.0000 0.00930  0.82480  0.08540  Biso   1.000  N
  N3       1.0000 0.98980  0.42720  0.31050  Biso   1.000  N
  N4       1.0000 0.00930  0.17520  0.91460  Biso   1.000  N
  N5       1.0000 0.01020  0.68950  0.42720  Biso   1.000  N
  N6       1.0000 0.99070  0.08540  0.17520  Biso   1.000  N
  N7       1.0000 0.01020  0.31050  0.57280  Biso   1.000  N
  N8       1.0000 0.99070  0.91460  0.82480  Biso   1.000  N
  N9       1.0000 0.51020  0.92720  0.18950  Biso   1.000  N
  N10      1.0000 0.49070  0.67520  0.58540  Biso   1.000  N
  N11      1.0000 0.51020  0.07280  0.81050  Biso   1.000  N
  N12      1.0000 0.49070  0.32480  0.41460  Biso   1.000  N
  N13      1.0000 0.48980  0.81050  0.92720  Biso   1.000  N
  N14      1.0000 0.50930  0.41460  0.67520  Biso   1.000  N
  N15      1.0000 0.48980  0.18950  0.07280  Biso   1.000  N
  N16      1.0000 0.50930  0.58540  0.32480  Biso   1.000  N
  O1       1.0000 0.04640  0.81785  0.96628  Biso   1.000  O
  O2       1.0000 0.19050  0.80103  0.95110  Biso   1.000  O
  O3       1.0000 0.79250  0.55560  0.30140  Biso   1.000  O
  O4       1.0000 0.93440  0.54550  0.32160  Biso   1.000  O
  O5       1.0000 0.15650  0.89609  0.02901  Biso   1.000  O
  O6       1.0000 0.02290  0.94886  0.07009  Biso   1.000  O
  O7       1.0000 0.10380  0.00740  0.11330  Biso   1.000  O
  O8       1.0000 0.40750  0.99170  0.87740  Biso   1.000  O
  O9       1.0000 0.48210  0.93833  0.93209  Biso   1.000  O
  O10      1.0000 0.34140  0.88742  0.96588  Biso   1.000  O
  O11      1.0000 0.04640  0.18215  0.03372  Biso   1.000  O
  O12      1.0000 0.19050  0.19897  0.04890  Biso   1.000  O
  O13      1.0000 0.79250  0.44440  0.69860  Biso   1.000  O
  O14      1.0000 0.93440  0.45450  0.67840  Biso   1.000  O
  O15      1.0000 0.15650  0.10391  0.97099  Biso   1.000  O
  O16      1.0000 0.02290  0.05114  0.92991  Biso   1.000  O
  O17      1.0000 0.10380  0.99260  0.88670  Biso   1.000  O
  O18      1.0000 0.40750  0.00830  0.12260  Biso   1.000  O
  O19      1.0000 0.48210  0.06167  0.06791  Biso   1.000  O
  O20      1.0000 0.34140  0.11258  0.03412  Biso   1.000  O
  O21      1.0000 0.95360  0.96628  0.18215  Biso   1.000  O
  O22      1.0000 0.80950  0.95110  0.19897  Biso   1.000  O
  O23      1.0000 0.20750  0.30140  0.44440  Biso   1.000  O
  O24      1.0000 0.06560  0.32160  0.45450  Biso   1.000  O
  O25      1.0000 0.84350  0.02901  0.10391  Biso   1.000  O
  O26      1.0000 0.97710  0.07009  0.05114  Biso   1.000  O
  O27      1.0000 0.89620  0.11330  0.99260  Biso   1.000  O
  O28      1.0000 0.59250  0.87740  0.00830  Biso   1.000  O
  O29      1.0000 0.51790  0.93209  0.06167  Biso   1.000  O
  O30      1.0000 0.65860  0.96588  0.11258  Biso   1.000  O
  O31      1.0000 0.95360  0.03372  0.81785  Biso   1.000  O
  O32      1.0000 0.80950  0.04890  0.80103  Biso   1.000  O
  O33      1.0000 0.20750  0.69860  0.55560  Biso   1.000  O
  O34      1.0000 0.06560  0.67840  0.54550  Biso   1.000  O
  O35      1.0000 0.84350  0.97099  0.89609  Biso   1.000  O
  O36      1.0000 0.97710  0.92991  0.94886  Biso   1.000  O
  O37      1.0000 0.89620  0.88670  0.00740  Biso   1.000  O
  O38      1.0000 0.59250  0.12260  0.99170  Biso   1.000  O
  O39      1.0000 0.51790  0.06791  0.93833  Biso   1.000  O
  O40      1.0000 0.65860  0.03412  0.88742  Biso   1.000  O
  O41      1.0000 0.45360  0.68215  0.46628  Biso   1.000  O
  O42      1.0000 0.30950  0.69897  0.45110  Biso   1.000  O
  O43      1.0000 0.70750  0.94440  0.80140  Biso   1.000  O
  O44      1.0000 0.56560  0.95450  0.82160  Biso   1.000  O
  O45      1.0000 0.34350  0.60391  0.52901  Biso   1.000  O
  O46      1.0000 0.47710  0.55114  0.57009  Biso   1.000  O
  O47      1.0000 0.39620  0.49260  0.61330  Biso   1.000  O
  O48      1.0000 0.09250  0.50830  0.37740  Biso   1.000  O
  O49      1.0000 0.01790  0.56167  0.43209  Biso   1.000  O
  O50      1.0000 0.15860  0.61258  0.46588  Biso   1.000  O
  O51      1.0000 0.45360  0.31785  0.53372  Biso   1.000  O
  O52      1.0000 0.30950  0.30103  0.54890  Biso   1.000  O
  O53      1.0000 0.70750  0.05560  0.19860  Biso   1.000  O
  O54      1.0000 0.56560  0.04550  0.17840  Biso   1.000  O
  O55      1.0000 0.34350  0.39609  0.47099  Biso   1.000  O
  O56      1.0000 0.47710  0.44886  0.42991  Biso   1.000  O
  O57      1.0000 0.39620  0.50740  0.38670  Biso   1.000  O
  O58      1.0000 0.09250  0.49170  0.62260  Biso   1.000  O
  O59      1.0000 0.01790  0.43833  0.56791  Biso   1.000  O
  O60      1.0000 0.15860  0.38742  0.53412  Biso   1.000  O
  O61      1.0000 0.54640  0.53372  0.68215  Biso   1.000  O
  O62      1.0000 0.69050  0.54890  0.69897  Biso   1.000  O
  O63      1.0000 0.29250  0.19860  0.94440  Biso   1.000  O
  O64      1.0000 0.43440  0.17840  0.95450  Biso   1.000  O
  O65      1.0000 0.65650  0.47099  0.60391  Biso   1.000  O
  O66      1.0000 0.52290  0.42991  0.55114  Biso   1.000  O
  O67      1.0000 0.60380  0.38670  0.49260  Biso   1.000  O
  O68      1.0000 0.90750  0.62260  0.50830  Biso   1.000  O
  O69      1.0000 0.98210  0.56791  0.56167  Biso   1.000  O
  O70      1.0000 0.84140  0.53412  0.61258  Biso   1.000  O
  O71      1.0000 0.54640  0.46628  0.31785  Biso   1.000  O
  O72      1.0000 0.69050  0.45110  0.30103  Biso   1.000  O
  O73      1.0000 0.29250  0.80140  0.05560  Biso   1.000  O
  O74      1.0000 0.43440  0.82160  0.04550  Biso   1.000  O
  O75      1.0000 0.65650  0.52901  0.39609  Biso   1.000  O
  O76      1.0000 0.52290  0.57009  0.44886  Biso   1.000  O
  O77      1.0000 0.60380  0.61330  0.50740  Biso   1.000  O
  O78      1.0000 0.90750  0.37740  0.49170  Biso   1.000  O
  O79      1.0000 0.98210  0.43209  0.43833  Biso   1.000  O
  O80      1.0000 0.84140  0.46588  0.38742  Biso   1.000  O
