data_image0
_cell_length_a       11.7368
_cell_length_b       11.7368
_cell_length_c       15.462
_cell_angle_alpha    82.0011
_cell_angle_beta     82.0011
_cell_angle_gamma    76.6906

_symmetry_space_group_name_H-M    P 1
_symmetry_int_tables_number       1

loop_
  _symmetry_equiv_pos_as_xyz
  'x, y, z'

loop_
  _atom_site_label
  _atom_site_occupancy
  _atom_site_fract_x
  _atom_site_fract_y
  _atom_site_fract_z
  _atom_site_thermal_displace_type
  _atom_site_B_iso_or_equiv
  _atom_site_type_symbol
  Cd1      1.0000 0.97196  0.46423  0.12845  Biso   1.000  Cd
  Cd2      1.0000 0.53577  0.02804  0.37155  Biso   1.000  Cd
  H1       1.0000 0.88490  0.40470  0.45360  Biso   1.000  H
  H2       1.0000 0.76740  0.36260  0.58120  Biso   1.000  H
  H3       1.0000 0.57730  0.34290  0.57660  Biso   1.000  H
  H4       1.0000 0.61550  0.42290  0.31540  Biso   1.000  H
  H5       1.0000 0.31520  0.34600  0.49560  Biso   1.000  H
  H6       1.0000 0.39590  0.38310  0.55450  Biso   1.000  H
  H7       1.0000 0.81780  0.28320  0.11610  Biso   1.000  H
  H8       1.0000 0.81050  0.09030  0.12450  Biso   1.000  H
  H9       1.0000 0.80950  0.91830  0.10910  Biso   1.000  H
  H10      1.0000 0.81020  0.72280  0.11590  Biso   1.000  H
  H11      1.0000 0.13340  0.63520  0.16610  Biso   1.000  H
  H12      1.0000 0.14360  0.82780  0.16060  Biso   1.000  H
  H13      1.0000 0.15360  0.00840  0.13100  Biso   1.000  H
  H14      1.0000 0.15040  0.20380  0.12490  Biso   1.000  H
  H15      1.0000 0.59530  0.11510  0.04640  Biso   1.000  H
  H16      1.0000 0.63740  0.23260  0.91880  Biso   1.000  H
  H17      1.0000 0.65710  0.42270  0.92340  Biso   1.000  H
  H18      1.0000 0.57710  0.38450  0.18460  Biso   1.000  H
  H19      1.0000 0.65400  0.68480  0.00440  Biso   1.000  H
  H20      1.0000 0.61690  0.60410  0.94550  Biso   1.000  H
  H21      1.0000 0.71680  0.18220  0.38390  Biso   1.000  H
  H22      1.0000 0.90970  0.18950  0.37550  Biso   1.000  H
  H23      1.0000 0.08170  0.19050  0.39090  Biso   1.000  H
  H24      1.0000 0.27720  0.18980  0.38410  Biso   1.000  H
  H25      1.0000 0.36480  0.86660  0.33390  Biso   1.000  H
  H26      1.0000 0.17220  0.85640  0.33940  Biso   1.000  H
  H27      1.0000 0.99160  0.84640  0.36900  Biso   1.000  H
  H28      1.0000 0.79620  0.84960  0.37510  Biso   1.000  H
  C1       1.0000 0.83720  0.44166  0.28658  Biso   1.000  C
  C2       1.0000 0.76161  0.41725  0.37127  Biso   1.000  C
  C3       1.0000 0.80760  0.39914  0.45131  Biso   1.000  C
  C4       1.0000 0.73748  0.37288  0.52734  Biso   1.000  C
  C5       1.0000 0.62328  0.36152  0.52485  Biso   1.000  C
  C6       1.0000 0.57769  0.37783  0.44535  Biso   1.000  C
  C7       1.0000 0.64696  0.40834  0.36886  Biso   1.000  C
  C8       1.0000 0.39545  0.33261  0.50996  Biso   1.000  C
  C9       1.0000 0.43270  0.20566  0.54794  Biso   1.000  C
  C10      1.0000 0.88792  0.22712  0.11910  Biso   1.000  C
  C11      1.0000 0.88276  0.11036  0.12370  Biso   1.000  C
  C12      1.0000 0.98115  0.02481  0.12717  Biso   1.000  C
  C13      1.0000 0.97778  0.89850  0.13186  Biso   1.000  C
  C14      1.0000 0.87785  0.86265  0.11980  Biso   1.000  C
  C15      1.0000 0.87917  0.74437  0.12370  Biso   1.000  C
  C16      1.0000 0.06763  0.69323  0.15300  Biso   1.000  C
  C17      1.0000 0.07421  0.80921  0.15020  Biso   1.000  C
  C18      1.0000 0.08248  0.06268  0.12780  Biso   1.000  C
  C19      1.0000 0.07971  0.18131  0.12380  Biso   1.000  C
  C20      1.0000 0.55834  0.16280  0.21342  Biso   1.000  C
  C21      1.0000 0.58275  0.23839  0.12873  Biso   1.000  C
  C22      1.0000 0.60086  0.19240  0.04869  Biso   1.000  C
  C23      1.0000 0.62712  0.26252  0.97266  Biso   1.000  C
  C24      1.0000 0.63848  0.37672  0.97515  Biso   1.000  C
  C25      1.0000 0.62217  0.42231  0.05465  Biso   1.000  C
  C26      1.0000 0.59166  0.35304  0.13114  Biso   1.000  C
  C27      1.0000 0.66739  0.60455  0.99004  Biso   1.000  C
  C28      1.0000 0.79434  0.56730  0.95206  Biso   1.000  C
  C29      1.0000 0.77288  0.11208  0.38090  Biso   1.000  C
  C30      1.0000 0.88964  0.11724  0.37630  Biso   1.000  C
  C31      1.0000 0.97519  0.01885  0.37283  Biso   1.000  C
  C32      1.0000 0.10150  0.02222  0.36814  Biso   1.000  C
  C33      1.0000 0.13735  0.12215  0.38020  Biso   1.000  C
  C34      1.0000 0.25563  0.12083  0.37630  Biso   1.000  C
  C35      1.0000 0.30677  0.93237  0.34700  Biso   1.000  C
  C36      1.0000 0.19079  0.92579  0.34980  Biso   1.000  C
  C37      1.0000 0.93732  0.91752  0.37220  Biso   1.000  C
  C38      1.0000 0.81869  0.92029  0.37620  Biso   1.000  C
  N1       1.0000 0.98434  0.26450  0.11859  Biso   1.000  N
  N2       1.0000 0.97241  0.66003  0.13785  Biso   1.000  N
  N3       1.0000 0.73550  0.01566  0.38141  Biso   1.000  N
  N4       1.0000 0.33997  0.02759  0.36215  Biso   1.000  N
  O1       1.0000 0.78844  0.48464  0.21839  Biso   1.000  O
  O2       1.0000 0.94733  0.41333  0.28508  Biso   1.000  O
  O3       1.0000 0.46799  0.36577  0.43357  Biso   1.000  O
  O4       1.0000 0.47899  0.12697  0.49918  Biso   1.000  O
  O5       1.0000 0.41014  0.18212  0.62939  Biso   1.000  O
  O6       1.0000 0.51536  0.21156  0.28161  Biso   1.000  O
  O7       1.0000 0.58667  0.05267  0.21492  Biso   1.000  O
  O8       1.0000 0.63423  0.53201  0.06643  Biso   1.000  O
  O9       1.0000 0.87303  0.52101  0.00082  Biso   1.000  O
  O10      1.0000 0.81788  0.58986  0.87061  Biso   1.000  O
  Cd3      1.0000 0.02804  0.53577  0.87155  Biso   1.000  Cd
  Cd4      1.0000 0.46423  0.97196  0.62845  Biso   1.000  Cd
  H29      1.0000 0.11510  0.59530  0.54640  Biso   1.000  H
  H30      1.0000 0.23260  0.63740  0.41880  Biso   1.000  H
  H31      1.0000 0.42270  0.65710  0.42340  Biso   1.000  H
  H32      1.0000 0.38450  0.57710  0.68460  Biso   1.000  H
  H33      1.0000 0.68480  0.65400  0.50440  Biso   1.000  H
  H34      1.0000 0.60410  0.61690  0.44550  Biso   1.000  H
  H35      1.0000 0.18220  0.71680  0.88390  Biso   1.000  H
  H36      1.0000 0.18950  0.90970  0.87550  Biso   1.000  H
  H37      1.0000 0.19050  0.08170  0.89090  Biso   1.000  H
  H38      1.0000 0.18980  0.27720  0.88410  Biso   1.000  H
  H39      1.0000 0.86660  0.36480  0.83390  Biso   1.000  H
  H40      1.0000 0.85640  0.17220  0.83940  Biso   1.000  H
  H41      1.0000 0.84640  0.99160  0.86900  Biso   1.000  H
  H42      1.0000 0.84960  0.79620  0.87510  Biso   1.000  H
  H43      1.0000 0.40470  0.88490  0.95360  Biso   1.000  H
  H44      1.0000 0.36260  0.76740  0.08120  Biso   1.000  H
  H45      1.0000 0.34290  0.57730  0.07660  Biso   1.000  H
  H46      1.0000 0.42290  0.61550  0.81540  Biso   1.000  H
  H47      1.0000 0.34600  0.31520  0.99560  Biso   1.000  H
  H48      1.0000 0.38310  0.39590  0.05450  Biso   1.000  H
  H49      1.0000 0.28320  0.81780  0.61610  Biso   1.000  H
  H50      1.0000 0.09030  0.81050  0.62450  Biso   1.000  H
  H51      1.0000 0.91830  0.80950  0.60910  Biso   1.000  H
  H52      1.0000 0.72280  0.81020  0.61590  Biso   1.000  H
  H53      1.0000 0.63520  0.13340  0.66610  Biso   1.000  H
  H54      1.0000 0.82780  0.14360  0.66060  Biso   1.000  H
  H55      1.0000 0.00840  0.15360  0.63100  Biso   1.000  H
  H56      1.0000 0.20380  0.15040  0.62490  Biso   1.000  H
  C39      1.0000 0.16280  0.55834  0.71342  Biso   1.000  C
  C40      1.0000 0.23839  0.58275  0.62873  Biso   1.000  C
  C41      1.0000 0.19240  0.60086  0.54869  Biso   1.000  C
  C42      1.0000 0.26252  0.62712  0.47266  Biso   1.000  C
  C43      1.0000 0.37672  0.63848  0.47515  Biso   1.000  C
  C44      1.0000 0.42231  0.62217  0.55465  Biso   1.000  C
  C45      1.0000 0.35304  0.59166  0.63114  Biso   1.000  C
  C46      1.0000 0.60455  0.66739  0.49004  Biso   1.000  C
  C47      1.0000 0.56730  0.79434  0.45206  Biso   1.000  C
  C48      1.0000 0.11208  0.77288  0.88090  Biso   1.000  C
  C49      1.0000 0.11724  0.88964  0.87630  Biso   1.000  C
  C50      1.0000 0.01885  0.97519  0.87283  Biso   1.000  C
  C51      1.0000 0.02222  0.10150  0.86814  Biso   1.000  C
  C52      1.0000 0.12215  0.13735  0.88020  Biso   1.000  C
  C53      1.0000 0.12083  0.25563  0.87630  Biso   1.000  C
  C54      1.0000 0.93237  0.30677  0.84700  Biso   1.000  C
  C55      1.0000 0.92579  0.19079  0.84980  Biso   1.000  C
  C56      1.0000 0.91752  0.93732  0.87220  Biso   1.000  C
  C57      1.0000 0.92029  0.81869  0.87620  Biso   1.000  C
  C58      1.0000 0.44166  0.83720  0.78658  Biso   1.000  C
  C59      1.0000 0.41725  0.76161  0.87127  Biso   1.000  C
  C60      1.0000 0.39914  0.80760  0.95131  Biso   1.000  C
  C61      1.0000 0.37288  0.73748  0.02734  Biso   1.000  C
  C62      1.0000 0.36152  0.62328  0.02485  Biso   1.000  C
  C63      1.0000 0.37783  0.57769  0.94535  Biso   1.000  C
  C64      1.0000 0.40834  0.64696  0.86886  Biso   1.000  C
  C65      1.0000 0.33261  0.39545  0.00996  Biso   1.000  C
  C66      1.0000 0.20566  0.43270  0.04794  Biso   1.000  C
  C67      1.0000 0.22712  0.88792  0.61910  Biso   1.000  C
  C68      1.0000 0.11036  0.88276  0.62370  Biso   1.000  C
  C69      1.0000 0.02481  0.98115  0.62717  Biso   1.000  C
  C70      1.0000 0.89850  0.97778  0.63186  Biso   1.000  C
  C71      1.0000 0.86265  0.87785  0.61980  Biso   1.000  C
  C72      1.0000 0.74437  0.87917  0.62370  Biso   1.000  C
  C73      1.0000 0.69323  0.06763  0.65300  Biso   1.000  C
  C74      1.0000 0.80921  0.07421  0.65020  Biso   1.000  C
  C75      1.0000 0.06268  0.08248  0.62780  Biso   1.000  C
  C76      1.0000 0.18131  0.07971  0.62380  Biso   1.000  C
  N5       1.0000 0.01566  0.73550  0.88141  Biso   1.000  N
  N6       1.0000 0.02759  0.33997  0.86215  Biso   1.000  N
  N7       1.0000 0.26450  0.98434  0.61859  Biso   1.000  N
  N8       1.0000 0.66003  0.97241  0.63785  Biso   1.000  N
  O11      1.0000 0.21156  0.51536  0.78161  Biso   1.000  O
  O12      1.0000 0.05267  0.58667  0.71492  Biso   1.000  O
  O13      1.0000 0.53201  0.63423  0.56643  Biso   1.000  O
  O14      1.0000 0.52101  0.87303  0.50082  Biso   1.000  O
  O15      1.0000 0.58986  0.81788  0.37061  Biso   1.000  O
  O16      1.0000 0.48464  0.78844  0.71839  Biso   1.000  O
  O17      1.0000 0.41333  0.94733  0.78508  Biso   1.000  O
  O18      1.0000 0.36577  0.46799  0.93357  Biso   1.000  O
  O19      1.0000 0.12697  0.47899  0.99918  Biso   1.000  O
  O20      1.0000 0.18212  0.41014  0.12939  Biso   1.000  O
