data_image0
_cell_length_a       17.5311
_cell_length_b       17.5311
_cell_length_c       17.5311
_cell_angle_alpha    62.6884
_cell_angle_beta     62.6884
_cell_angle_gamma    62.6884

_symmetry_space_group_name_H-M    P 1
_symmetry_int_tables_number       1

loop_
  _symmetry_equiv_pos_as_xyz
  'x, y, z'

loop_
  _atom_site_label
  _atom_site_occupancy
  _atom_site_fract_x
  _atom_site_fract_y
  _atom_site_fract_z
  _atom_site_thermal_displace_type
  _atom_site_B_iso_or_equiv
  _atom_site_type_symbol
  Cu1      1.0000 0.92272  0.50064  0.50064  Biso   1.000  Cu
  Cu2      1.0000 0.50064  0.92272  0.50064  Biso   1.000  Cu
  Cu3      1.0000 0.50064  0.50064  0.92272  Biso   1.000  Cu
  Cu4      1.0000 0.49936  0.07728  0.49936  Biso   1.000  Cu
  Cu5      1.0000 0.07728  0.49936  0.49936  Biso   1.000  Cu
  Cu6      1.0000 0.49936  0.49936  0.07728  Biso   1.000  Cu
  H1       1.0000 0.00090  0.47500  0.77940  Biso   1.000  H
  H2       1.0000 0.77940  0.00090  0.47500  Biso   1.000  H
  H3       1.0000 0.47500  0.77940  0.00090  Biso   1.000  H
  H4       1.0000 0.52500  0.99910  0.22060  Biso   1.000  H
  H5       1.0000 0.99910  0.22060  0.52500  Biso   1.000  H
  H6       1.0000 0.22060  0.52500  0.99910  Biso   1.000  H
  H7       1.0000 0.99910  0.52500  0.22060  Biso   1.000  H
  H8       1.0000 0.22060  0.99910  0.52500  Biso   1.000  H
  H9       1.0000 0.52500  0.22060  0.99910  Biso   1.000  H
  H10      1.0000 0.47500  0.00090  0.77940  Biso   1.000  H
  H11      1.0000 0.00090  0.77940  0.47500  Biso   1.000  H
  H12      1.0000 0.77940  0.47500  0.00090  Biso   1.000  H
  H13      1.0000 0.74050  0.53495  0.53495  Biso   1.000  H
  H14      1.0000 0.79680  0.47920  0.47920  Biso   1.000  H
  H15      1.0000 0.53495  0.74050  0.53495  Biso   1.000  H
  H16      1.0000 0.47920  0.79680  0.47920  Biso   1.000  H
  H17      1.0000 0.53495  0.53495  0.74050  Biso   1.000  H
  H18      1.0000 0.47920  0.47920  0.79680  Biso   1.000  H
  H19      1.0000 0.46505  0.25950  0.46505  Biso   1.000  H
  H20      1.0000 0.52080  0.20320  0.52080  Biso   1.000  H
  H21      1.0000 0.25950  0.46505  0.46505  Biso   1.000  H
  H22      1.0000 0.20320  0.52080  0.52080  Biso   1.000  H
  H23      1.0000 0.46505  0.46505  0.25950  Biso   1.000  H
  H24      1.0000 0.52080  0.52080  0.20320  Biso   1.000  H
  H25      1.0000 0.77590  0.47130  0.77590  Biso   1.000  H
  H26      1.0000 0.77590  0.77590  0.47130  Biso   1.000  H
  H27      1.0000 0.47130  0.77590  0.77590  Biso   1.000  H
  H28      1.0000 0.52870  0.22410  0.22410  Biso   1.000  H
  H29      1.0000 0.22410  0.22410  0.52870  Biso   1.000  H
  H30      1.0000 0.22410  0.52870  0.22410  Biso   1.000  H
  C1       1.0000 0.93909  0.47699  0.66609  Biso   1.000  C
  C2       1.0000 0.89506  0.47246  0.76406  Biso   1.000  C
  C3       1.0000 0.94007  0.47447  0.80947  Biso   1.000  C
  C4       1.0000 0.66609  0.93909  0.47699  Biso   1.000  C
  C5       1.0000 0.76406  0.89506  0.47246  Biso   1.000  C
  C6       1.0000 0.80947  0.94007  0.47447  Biso   1.000  C
  C7       1.0000 0.47699  0.66609  0.93909  Biso   1.000  C
  C8       1.0000 0.47246  0.76406  0.89506  Biso   1.000  C
  C9       1.0000 0.47447  0.80947  0.94007  Biso   1.000  C
  C10      1.0000 0.52301  0.06091  0.33391  Biso   1.000  C
  C11      1.0000 0.52754  0.10494  0.23594  Biso   1.000  C
  C12      1.0000 0.52553  0.05993  0.19053  Biso   1.000  C
  C13      1.0000 0.06091  0.33391  0.52301  Biso   1.000  C
  C14      1.0000 0.10494  0.23594  0.52754  Biso   1.000  C
  C15      1.0000 0.05993  0.19053  0.52553  Biso   1.000  C
  C16      1.0000 0.33391  0.52301  0.06091  Biso   1.000  C
  C17      1.0000 0.23594  0.52754  0.10494  Biso   1.000  C
  C18      1.0000 0.19053  0.52553  0.05993  Biso   1.000  C
  C19      1.0000 0.06091  0.52301  0.33391  Biso   1.000  C
  C20      1.0000 0.10494  0.52754  0.23594  Biso   1.000  C
  C21      1.0000 0.05993  0.52553  0.19053  Biso   1.000  C
  C22      1.0000 0.33391  0.06091  0.52301  Biso   1.000  C
  C23      1.0000 0.23594  0.10494  0.52754  Biso   1.000  C
  C24      1.0000 0.19053  0.05993  0.52553  Biso   1.000  C
  C25      1.0000 0.52301  0.33391  0.06091  Biso   1.000  C
  C26      1.0000 0.52754  0.23594  0.10494  Biso   1.000  C
  C27      1.0000 0.52553  0.19053  0.05993  Biso   1.000  C
  C28      1.0000 0.47699  0.93909  0.66609  Biso   1.000  C
  C29      1.0000 0.47246  0.89506  0.76406  Biso   1.000  C
  C30      1.0000 0.47447  0.94007  0.80947  Biso   1.000  C
  C31      1.0000 0.93909  0.66609  0.47699  Biso   1.000  C
  C32      1.0000 0.89506  0.76406  0.47246  Biso   1.000  C
  C33      1.0000 0.94007  0.80947  0.47447  Biso   1.000  C
  C34      1.0000 0.66609  0.47699  0.93909  Biso   1.000  C
  C35      1.0000 0.76406  0.47246  0.89506  Biso   1.000  C
  C36      1.0000 0.80947  0.47447  0.94007  Biso   1.000  C
  C37      1.0000 0.80742  0.47192  0.80742  Biso   1.000  C
  C38      1.0000 0.89890  0.47580  0.89890  Biso   1.000  C
  C39      1.0000 0.94300  0.48330  0.94300  Biso   1.000  C
  C40      1.0000 0.97890  0.49610  0.97890  Biso   1.000  C
  C41      1.0000 0.80742  0.80742  0.47192  Biso   1.000  C
  C42      1.0000 0.89890  0.89890  0.47580  Biso   1.000  C
  C43      1.0000 0.94300  0.94300  0.48330  Biso   1.000  C
  C44      1.0000 0.97890  0.97890  0.49610  Biso   1.000  C
  C45      1.0000 0.47192  0.80742  0.80742  Biso   1.000  C
  C46      1.0000 0.47580  0.89890  0.89890  Biso   1.000  C
  C47      1.0000 0.48330  0.94300  0.94300  Biso   1.000  C
  C48      1.0000 0.49610  0.97890  0.97890  Biso   1.000  C
  C49      1.0000 0.52808  0.19258  0.19258  Biso   1.000  C
  C50      1.0000 0.52420  0.10110  0.10110  Biso   1.000  C
  C51      1.0000 0.51670  0.05700  0.05700  Biso   1.000  C
  C52      1.0000 0.50390  0.02110  0.02110  Biso   1.000  C
  C53      1.0000 0.19258  0.19258  0.52808  Biso   1.000  C
  C54      1.0000 0.10110  0.10110  0.52420  Biso   1.000  C
  C55      1.0000 0.05700  0.05700  0.51670  Biso   1.000  C
  C56      1.0000 0.02110  0.02110  0.50390  Biso   1.000  C
  C57      1.0000 0.19258  0.52808  0.19258  Biso   1.000  C
  C58      1.0000 0.10110  0.52420  0.10110  Biso   1.000  C
  C59      1.0000 0.05700  0.51670  0.05700  Biso   1.000  C
  C60      1.0000 0.02110  0.50390  0.02110  Biso   1.000  C
  O1       1.0000 0.01879  0.48054  0.62955  Biso   1.000  O
  O2       1.0000 0.89188  0.47816  0.62915  Biso   1.000  O
  O3       1.0000 0.62955  0.01879  0.48054  Biso   1.000  O
  O4       1.0000 0.62915  0.89188  0.47816  Biso   1.000  O
  O5       1.0000 0.48054  0.62955  0.01879  Biso   1.000  O
  O6       1.0000 0.47816  0.62915  0.89188  Biso   1.000  O
  O7       1.0000 0.51946  0.98121  0.37045  Biso   1.000  O
  O8       1.0000 0.52184  0.10812  0.37085  Biso   1.000  O
  O9       1.0000 0.98121  0.37045  0.51946  Biso   1.000  O
  O10      1.0000 0.10812  0.37085  0.52184  Biso   1.000  O
  O11      1.0000 0.37045  0.51946  0.98121  Biso   1.000  O
  O12      1.0000 0.37085  0.52184  0.10812  Biso   1.000  O
  O13      1.0000 0.98121  0.51946  0.37045  Biso   1.000  O
  O14      1.0000 0.10812  0.52184  0.37085  Biso   1.000  O
  O15      1.0000 0.37045  0.98121  0.51946  Biso   1.000  O
  O16      1.0000 0.37085  0.10812  0.52184  Biso   1.000  O
  O17      1.0000 0.51946  0.37045  0.98121  Biso   1.000  O
  O18      1.0000 0.52184  0.37085  0.10812  Biso   1.000  O
  O19      1.0000 0.48054  0.01879  0.62955  Biso   1.000  O
  O20      1.0000 0.47816  0.89188  0.62915  Biso   1.000  O
  O21      1.0000 0.01879  0.62955  0.48054  Biso   1.000  O
  O22      1.0000 0.89188  0.62915  0.47816  Biso   1.000  O
  O23      1.0000 0.62955  0.48054  0.01879  Biso   1.000  O
  O24      1.0000 0.62915  0.47816  0.89188  Biso   1.000  O
  O25      1.0000 0.79450  0.50825  0.50825  Biso   1.000  O
  O26      1.0000 0.50825  0.79450  0.50825  Biso   1.000  O
  O27      1.0000 0.50825  0.50825  0.79450  Biso   1.000  O
  O28      1.0000 0.49175  0.20550  0.49175  Biso   1.000  O
  O29      1.0000 0.20550  0.49175  0.49175  Biso   1.000  O
  O30      1.0000 0.49175  0.49175  0.20550  Biso   1.000  O
