data_image0
_cell_length_a       8.5699
_cell_length_b       12.5347
_cell_length_c       12.5347
_cell_angle_alpha    116.789
_cell_angle_beta     99.3584
_cell_angle_gamma    80.6416

_symmetry_space_group_name_H-M    P 1
_symmetry_int_tables_number       1

loop_
  _symmetry_equiv_pos_as_xyz
  'x, y, z'

loop_
  _atom_site_label
  _atom_site_occupancy
  _atom_site_fract_x
  _atom_site_fract_y
  _atom_site_fract_z
  _atom_site_thermal_displace_type
  _atom_site_B_iso_or_equiv
  _atom_site_type_symbol
  Cu1      1.0000 0.92432  0.59674  0.99238  Biso   1.000  Cu
  Cu2      1.0000 0.57568  0.99238  0.59674  Biso   1.000  Cu
  Cu3      1.0000 0.07568  0.40326  0.00762  Biso   1.000  Cu
  Cu4      1.0000 0.42432  0.00762  0.40326  Biso   1.000  Cu
  H1       1.0000 0.74780  0.26660  0.65500  Biso   1.000  H
  H2       1.0000 0.80490  0.35560  0.61320  Biso   1.000  H
  H3       1.0000 0.04760  0.23650  0.56730  Biso   1.000  H
  H4       1.0000 0.00300  0.15110  0.61950  Biso   1.000  H
  H5       1.0000 0.95880  0.05670  0.40790  Biso   1.000  H
  H6       1.0000 0.84390  0.17090  0.40790  Biso   1.000  H
  H7       1.0000 0.82360  0.85770  0.16310  Biso   1.000  H
  H8       1.0000 0.64790  0.02150  0.17270  Biso   1.000  H
  H9       1.0000 0.50440  0.83390  0.82390  Biso   1.000  H
  H10      1.0000 0.68250  0.67500  0.82500  Biso   1.000  H
  H11      1.0000 0.75220  0.65500  0.26660  Biso   1.000  H
  H12      1.0000 0.69510  0.61320  0.35560  Biso   1.000  H
  H13      1.0000 0.45240  0.56730  0.23650  Biso   1.000  H
  H14      1.0000 0.49700  0.61950  0.15110  Biso   1.000  H
  H15      1.0000 0.54120  0.40790  0.05670  Biso   1.000  H
  H16      1.0000 0.65610  0.40790  0.17090  Biso   1.000  H
  H17      1.0000 0.67640  0.16310  0.85770  Biso   1.000  H
  H18      1.0000 0.85210  0.17270  0.02150  Biso   1.000  H
  H19      1.0000 0.99560  0.82390  0.83390  Biso   1.000  H
  H20      1.0000 0.81750  0.82500  0.67500  Biso   1.000  H
  H21      1.0000 0.25220  0.73340  0.34500  Biso   1.000  H
  H22      1.0000 0.19510  0.64440  0.38680  Biso   1.000  H
  H23      1.0000 0.95240  0.76350  0.43270  Biso   1.000  H
  H24      1.0000 0.99700  0.84890  0.38050  Biso   1.000  H
  H25      1.0000 0.04120  0.94330  0.59210  Biso   1.000  H
  H26      1.0000 0.15610  0.82910  0.59210  Biso   1.000  H
  H27      1.0000 0.17640  0.14230  0.83690  Biso   1.000  H
  H28      1.0000 0.35210  0.97850  0.82730  Biso   1.000  H
  H29      1.0000 0.49560  0.16610  0.17610  Biso   1.000  H
  H30      1.0000 0.31750  0.32500  0.17500  Biso   1.000  H
  H31      1.0000 0.24780  0.34500  0.73340  Biso   1.000  H
  H32      1.0000 0.30490  0.38680  0.64440  Biso   1.000  H
  H33      1.0000 0.54760  0.43270  0.76350  Biso   1.000  H
  H34      1.0000 0.50300  0.38050  0.84890  Biso   1.000  H
  H35      1.0000 0.45880  0.59210  0.94330  Biso   1.000  H
  H36      1.0000 0.34390  0.59210  0.82910  Biso   1.000  H
  H37      1.0000 0.32360  0.83690  0.14230  Biso   1.000  H
  H38      1.0000 0.14790  0.82730  0.97850  Biso   1.000  H
  H39      1.0000 0.00440  0.17610  0.16610  Biso   1.000  H
  H40      1.0000 0.18250  0.17500  0.32500  Biso   1.000  H
  C1       1.0000 0.90590  0.37754  0.78046  Biso   1.000  C
  C2       1.0000 0.84170  0.30218  0.65302  Biso   1.000  C
  C3       1.0000 0.95860  0.20142  0.57718  Biso   1.000  C
  C4       1.0000 0.87960  0.12217  0.45303  Biso   1.000  C
  C5       1.0000 0.73860  0.06839  0.46121  Biso   1.000  C
  C6       1.0000 0.75810  0.85267  0.09253  Biso   1.000  C
  C7       1.0000 0.65310  0.95100  0.09880  Biso   1.000  C
  C8       1.0000 0.55600  0.94742  0.99858  Biso   1.000  C
  C9       1.0000 0.56900  0.84192  0.89568  Biso   1.000  C
  C10      1.0000 0.67670  0.74732  0.89708  Biso   1.000  C
  C11      1.0000 0.59410  0.78046  0.37754  Biso   1.000  C
  C12      1.0000 0.65830  0.65302  0.30218  Biso   1.000  C
  C13      1.0000 0.54140  0.57718  0.20142  Biso   1.000  C
  C14      1.0000 0.62040  0.45303  0.12217  Biso   1.000  C
  C15      1.0000 0.76140  0.46121  0.06839  Biso   1.000  C
  C16      1.0000 0.74190  0.09253  0.85267  Biso   1.000  C
  C17      1.0000 0.84690  0.09880  0.95100  Biso   1.000  C
  C18      1.0000 0.94400  0.99858  0.94742  Biso   1.000  C
  C19      1.0000 0.93100  0.89568  0.84192  Biso   1.000  C
  C20      1.0000 0.82330  0.89708  0.74732  Biso   1.000  C
  C21      1.0000 0.09410  0.62246  0.21954  Biso   1.000  C
  C22      1.0000 0.15830  0.69782  0.34698  Biso   1.000  C
  C23      1.0000 0.04140  0.79858  0.42282  Biso   1.000  C
  C24      1.0000 0.12040  0.87783  0.54697  Biso   1.000  C
  C25      1.0000 0.26140  0.93161  0.53879  Biso   1.000  C
  C26      1.0000 0.24190  0.14733  0.90747  Biso   1.000  C
  C27      1.0000 0.34690  0.04900  0.90120  Biso   1.000  C
  C28      1.0000 0.44400  0.05258  0.00142  Biso   1.000  C
  C29      1.0000 0.43100  0.15808  0.10432  Biso   1.000  C
  C30      1.0000 0.32330  0.25268  0.10292  Biso   1.000  C
  C31      1.0000 0.40590  0.21954  0.62246  Biso   1.000  C
  C32      1.0000 0.34170  0.34698  0.69782  Biso   1.000  C
  C33      1.0000 0.45860  0.42282  0.79858  Biso   1.000  C
  C34      1.0000 0.37960  0.54697  0.87783  Biso   1.000  C
  C35      1.0000 0.23860  0.53879  0.93161  Biso   1.000  C
  C36      1.0000 0.25810  0.90747  0.14733  Biso   1.000  C
  C37      1.0000 0.15310  0.90120  0.04900  Biso   1.000  C
  C38      1.0000 0.05600  0.00142  0.05258  Biso   1.000  C
  C39      1.0000 0.06900  0.10432  0.15808  Biso   1.000  C
  C40      1.0000 0.17670  0.10292  0.25268  Biso   1.000  C
  N1       1.0000 0.77170  0.75188  0.99272  Biso   1.000  N
  N2       1.0000 0.72830  0.99272  0.75188  Biso   1.000  N
  N3       1.0000 0.22830  0.24812  0.00728  Biso   1.000  N
  N4       1.0000 0.27170  0.00728  0.24812  Biso   1.000  N
  O1       1.0000 0.86540  0.48839  0.82307  Biso   1.000  O
  O2       1.0000 0.99090  0.32427  0.83695  Biso   1.000  O
  O3       1.0000 0.74880  0.03838  0.54504  Biso   1.000  O
  O4       1.0000 0.61990  0.05870  0.38474  Biso   1.000  O
  O5       1.0000 0.63460  0.82307  0.48839  Biso   1.000  O
  O6       1.0000 0.50910  0.83695  0.32427  Biso   1.000  O
  O7       1.0000 0.75120  0.54504  0.03838  Biso   1.000  O
  O8       1.0000 0.88010  0.38474  0.05870  Biso   1.000  O
  O9       1.0000 0.13460  0.51161  0.17693  Biso   1.000  O
  O10      1.0000 0.00910  0.67573  0.16305  Biso   1.000  O
  O11      1.0000 0.25120  0.96162  0.45496  Biso   1.000  O
  O12      1.0000 0.38010  0.94130  0.61526  Biso   1.000  O
  O13      1.0000 0.36540  0.17693  0.51161  Biso   1.000  O
  O14      1.0000 0.49090  0.16305  0.67573  Biso   1.000  O
  O15      1.0000 0.24880  0.45496  0.96162  Biso   1.000  O
  O16      1.0000 0.11990  0.61526  0.94130  Biso   1.000  O
