data_image0
_cell_length_a       8.5212
_cell_length_b       12.4803
_cell_length_c       12.4803
_cell_angle_alpha    116.201
_cell_angle_beta     98.743
_cell_angle_gamma    81.257

_symmetry_space_group_name_H-M    P 1
_symmetry_int_tables_number       1

loop_
  _symmetry_equiv_pos_as_xyz
  'x, y, z'

loop_
  _atom_site_label
  _atom_site_occupancy
  _atom_site_fract_x
  _atom_site_fract_y
  _atom_site_fract_z
  _atom_site_thermal_displace_type
  _atom_site_B_iso_or_equiv
  _atom_site_type_symbol
  Cu1      1.0000 0.92470  0.59676  0.99160  Biso   1.000  Cu
  Cu2      1.0000 0.57530  0.99160  0.59676  Biso   1.000  Cu
  Cu3      1.0000 0.07530  0.40324  0.00840  Biso   1.000  Cu
  Cu4      1.0000 0.42470  0.00840  0.40324  Biso   1.000  Cu
  H1       1.0000 0.74850  0.26520  0.65520  Biso   1.000  H
  H2       1.0000 0.80480  0.35630  0.61370  Biso   1.000  H
  H3       1.0000 0.05110  0.23990  0.56830  Biso   1.000  H
  H4       1.0000 0.00580  0.15200  0.61900  Biso   1.000  H
  H5       1.0000 0.96200  0.06070  0.40770  Biso   1.000  H
  H6       1.0000 0.84800  0.17560  0.40880  Biso   1.000  H
  H7       1.0000 0.82720  0.85750  0.16110  Biso   1.000  H
  H8       1.0000 0.65000  0.02050  0.17190  Biso   1.000  H
  H9       1.0000 0.50050  0.83350  0.82370  Biso   1.000  H
  H10      1.0000 0.68020  0.67540  0.82300  Biso   1.000  H
  H11      1.0000 0.75150  0.65520  0.26520  Biso   1.000  H
  H12      1.0000 0.69520  0.61370  0.35630  Biso   1.000  H
  H13      1.0000 0.44890  0.56830  0.23990  Biso   1.000  H
  H14      1.0000 0.49420  0.61900  0.15200  Biso   1.000  H
  H15      1.0000 0.53800  0.40770  0.06070  Biso   1.000  H
  H16      1.0000 0.65200  0.40880  0.17560  Biso   1.000  H
  H17      1.0000 0.67280  0.16110  0.85750  Biso   1.000  H
  H18      1.0000 0.85000  0.17190  0.02050  Biso   1.000  H
  H19      1.0000 0.99950  0.82370  0.83350  Biso   1.000  H
  H20      1.0000 0.81980  0.82300  0.67540  Biso   1.000  H
  H21      1.0000 0.25150  0.73480  0.34480  Biso   1.000  H
  H22      1.0000 0.19520  0.64370  0.38630  Biso   1.000  H
  H23      1.0000 0.94890  0.76010  0.43170  Biso   1.000  H
  H24      1.0000 0.99420  0.84800  0.38100  Biso   1.000  H
  H25      1.0000 0.03800  0.93930  0.59230  Biso   1.000  H
  H26      1.0000 0.15200  0.82440  0.59120  Biso   1.000  H
  H27      1.0000 0.17280  0.14250  0.83890  Biso   1.000  H
  H28      1.0000 0.35000  0.97950  0.82810  Biso   1.000  H
  H29      1.0000 0.49950  0.16650  0.17630  Biso   1.000  H
  H30      1.0000 0.31980  0.32460  0.17700  Biso   1.000  H
  H31      1.0000 0.24850  0.34480  0.73480  Biso   1.000  H
  H32      1.0000 0.30480  0.38630  0.64370  Biso   1.000  H
  H33      1.0000 0.55110  0.43170  0.76010  Biso   1.000  H
  H34      1.0000 0.50580  0.38100  0.84800  Biso   1.000  H
  H35      1.0000 0.46200  0.59230  0.93930  Biso   1.000  H
  H36      1.0000 0.34800  0.59120  0.82440  Biso   1.000  H
  H37      1.0000 0.32720  0.83890  0.14250  Biso   1.000  H
  H38      1.0000 0.15000  0.82810  0.97950  Biso   1.000  H
  H39      1.0000 0.00050  0.17630  0.16650  Biso   1.000  H
  H40      1.0000 0.18020  0.17700  0.32460  Biso   1.000  H
  C1       1.0000 0.90630  0.37731  0.78129  Biso   1.000  C
  C2       1.0000 0.84220  0.30242  0.65338  Biso   1.000  C
  C3       1.0000 0.96160  0.20331  0.57749  Biso   1.000  C
  C4       1.0000 0.88270  0.12569  0.45311  Biso   1.000  C
  C5       1.0000 0.74030  0.07104  0.46072  Biso   1.000  C
  C6       1.0000 0.76020  0.85255  0.09125  Biso   1.000  C
  C7       1.0000 0.65470  0.95057  0.09803  Biso   1.000  C
  C8       1.0000 0.55600  0.94776  0.99824  Biso   1.000  C
  C9       1.0000 0.56700  0.84140  0.89460  Biso   1.000  C
  C10      1.0000 0.67480  0.74730  0.89510  Biso   1.000  C
  C11      1.0000 0.59370  0.78129  0.37731  Biso   1.000  C
  C12      1.0000 0.65780  0.65338  0.30242  Biso   1.000  C
  C13      1.0000 0.53840  0.57749  0.20331  Biso   1.000  C
  C14      1.0000 0.61730  0.45311  0.12569  Biso   1.000  C
  C15      1.0000 0.75970  0.46072  0.07104  Biso   1.000  C
  C16      1.0000 0.73980  0.09125  0.85255  Biso   1.000  C
  C17      1.0000 0.84530  0.09803  0.95057  Biso   1.000  C
  C18      1.0000 0.94400  0.99824  0.94776  Biso   1.000  C
  C19      1.0000 0.93300  0.89460  0.84140  Biso   1.000  C
  C20      1.0000 0.82520  0.89510  0.74730  Biso   1.000  C
  C21      1.0000 0.09370  0.62269  0.21871  Biso   1.000  C
  C22      1.0000 0.15780  0.69758  0.34662  Biso   1.000  C
  C23      1.0000 0.03840  0.79669  0.42251  Biso   1.000  C
  C24      1.0000 0.11730  0.87431  0.54689  Biso   1.000  C
  C25      1.0000 0.25970  0.92896  0.53928  Biso   1.000  C
  C26      1.0000 0.23980  0.14745  0.90875  Biso   1.000  C
  C27      1.0000 0.34530  0.04943  0.90197  Biso   1.000  C
  C28      1.0000 0.44400  0.05224  0.00176  Biso   1.000  C
  C29      1.0000 0.43300  0.15860  0.10540  Biso   1.000  C
  C30      1.0000 0.32520  0.25270  0.10490  Biso   1.000  C
  C31      1.0000 0.40630  0.21871  0.62269  Biso   1.000  C
  C32      1.0000 0.34220  0.34662  0.69758  Biso   1.000  C
  C33      1.0000 0.46160  0.42251  0.79669  Biso   1.000  C
  C34      1.0000 0.38270  0.54689  0.87431  Biso   1.000  C
  C35      1.0000 0.24030  0.53928  0.92896  Biso   1.000  C
  C36      1.0000 0.26020  0.90875  0.14745  Biso   1.000  C
  C37      1.0000 0.15470  0.90197  0.04943  Biso   1.000  C
  C38      1.0000 0.05600  0.00176  0.05224  Biso   1.000  C
  C39      1.0000 0.06700  0.10540  0.15860  Biso   1.000  C
  C40      1.0000 0.17480  0.10490  0.25270  Biso   1.000  C
  N1       1.0000 0.77200  0.75138  0.99102  Biso   1.000  N
  N2       1.0000 0.72800  0.99102  0.75138  Biso   1.000  N
  N3       1.0000 0.22800  0.24862  0.00898  Biso   1.000  N
  N4       1.0000 0.27200  0.00898  0.24862  Biso   1.000  N
  O1       1.0000 0.86730  0.48885  0.82267  Biso   1.000  O
  O2       1.0000 0.98950  0.32432  0.83858  Biso   1.000  O
  O3       1.0000 0.74960  0.03826  0.54354  Biso   1.000  O
  O4       1.0000 0.62100  0.06268  0.38480  Biso   1.000  O
  O5       1.0000 0.63270  0.82267  0.48885  Biso   1.000  O
  O6       1.0000 0.51050  0.83858  0.32432  Biso   1.000  O
  O7       1.0000 0.75040  0.54354  0.03826  Biso   1.000  O
  O8       1.0000 0.87900  0.38480  0.06268  Biso   1.000  O
  O9       1.0000 0.13270  0.51115  0.17733  Biso   1.000  O
  O10      1.0000 0.01050  0.67568  0.16142  Biso   1.000  O
  O11      1.0000 0.25040  0.96174  0.45646  Biso   1.000  O
  O12      1.0000 0.37900  0.93732  0.61520  Biso   1.000  O
  O13      1.0000 0.36730  0.17733  0.51115  Biso   1.000  O
  O14      1.0000 0.48950  0.16142  0.67568  Biso   1.000  O
  O15      1.0000 0.24960  0.45646  0.96174  Biso   1.000  O
  O16      1.0000 0.12100  0.61520  0.93732  Biso   1.000  O
