data_image0
_cell_length_a       8.6313
_cell_length_b       13.0527
_cell_length_c       13.7646
_cell_angle_alpha    118.303
_cell_angle_beta     91.2969
_cell_angle_gamma    90

_symmetry_space_group_name_H-M    P 1
_symmetry_int_tables_number       1

loop_
  _symmetry_equiv_pos_as_xyz
  'x, y, z'

loop_
  _atom_site_label
  _atom_site_occupancy
  _atom_site_fract_x
  _atom_site_fract_y
  _atom_site_fract_z
  _atom_site_thermal_displace_type
  _atom_site_B_iso_or_equiv
  _atom_site_type_symbol
  Cu1      1.0000 0.55394  0.99905  0.58950  Biso   1.000  Cu
  Cu2      1.0000 0.94606  0.40955  0.41050  Biso   1.000  Cu
  Cu3      1.0000 0.44606  0.00095  0.41050  Biso   1.000  Cu
  Cu4      1.0000 0.05394  0.59045  0.58950  Biso   1.000  Cu
  H1       1.0000 0.27530  0.65700  0.39460  Biso   1.000  H
  H2       1.0000 0.37100  0.62710  0.28660  Biso   1.000  H
  H3       1.0000 0.58540  0.57260  0.35680  Biso   1.000  H
  H4       1.0000 0.50470  0.61610  0.47340  Biso   1.000  H
  H5       1.0000 0.48350  0.41040  0.36740  Biso   1.000  H
  H6       1.0000 0.39520  0.42310  0.27020  Biso   1.000  H
  H7       1.0000 0.71790  0.82920  0.65140  Biso   1.000  H
  H8       1.0000 0.90740  0.82570  0.77200  Biso   1.000  H
  H9       1.0000 0.90000  0.17600  0.93600  Biso   1.000  H
  H10      1.0000 0.71210  0.17070  0.81160  Biso   1.000  H
  H11      1.0000 0.10810  0.93300  0.91620  Biso   1.000  H
  H12      1.0000 0.10640  0.07240  0.98060  Biso   1.000  H
  H13      1.0000 0.22470  0.26240  0.60540  Biso   1.000  H
  H14      1.0000 0.12900  0.34050  0.71340  Biso   1.000  H
  H15      1.0000 0.91460  0.21580  0.64320  Biso   1.000  H
  H16      1.0000 0.99530  0.14270  0.52660  Biso   1.000  H
  H17      1.0000 0.01650  0.04300  0.63260  Biso   1.000  H
  H18      1.0000 0.10480  0.15290  0.72980  Biso   1.000  H
  H19      1.0000 0.78210  0.17780  0.34860  Biso   1.000  H
  H20      1.0000 0.59260  0.05370  0.22800  Biso   1.000  H
  H21      1.0000 0.60000  0.24000  0.06400  Biso   1.000  H
  H22      1.0000 0.78790  0.35910  0.18840  Biso   1.000  H
  H23      1.0000 0.39190  0.01680  0.08380  Biso   1.000  H
  H24      1.0000 0.39360  0.09180  0.01940  Biso   1.000  H
  H25      1.0000 0.72470  0.34300  0.60540  Biso   1.000  H
  H26      1.0000 0.62900  0.37290  0.71340  Biso   1.000  H
  H27      1.0000 0.41460  0.42740  0.64320  Biso   1.000  H
  H28      1.0000 0.49530  0.38390  0.52660  Biso   1.000  H
  H29      1.0000 0.51650  0.58960  0.63260  Biso   1.000  H
  H30      1.0000 0.60480  0.57690  0.72980  Biso   1.000  H
  H31      1.0000 0.28210  0.17080  0.34860  Biso   1.000  H
  H32      1.0000 0.09260  0.17430  0.22800  Biso   1.000  H
  H33      1.0000 0.10000  0.82400  0.06400  Biso   1.000  H
  H34      1.0000 0.28790  0.82930  0.18840  Biso   1.000  H
  H35      1.0000 0.89190  0.06700  0.08380  Biso   1.000  H
  H36      1.0000 0.89360  0.92760  0.01940  Biso   1.000  H
  H37      1.0000 0.77530  0.73760  0.39460  Biso   1.000  H
  H38      1.0000 0.87100  0.65950  0.28660  Biso   1.000  H
  H39      1.0000 0.08540  0.78420  0.35680  Biso   1.000  H
  H40      1.0000 0.00470  0.85730  0.47340  Biso   1.000  H
  H41      1.0000 0.98350  0.95700  0.36740  Biso   1.000  H
  H42      1.0000 0.89520  0.84710  0.27020  Biso   1.000  H
  H43      1.0000 0.21790  0.82220  0.65140  Biso   1.000  H
  H44      1.0000 0.40740  0.94630  0.77200  Biso   1.000  H
  H45      1.0000 0.40000  0.76000  0.93600  Biso   1.000  H
  H46      1.0000 0.21210  0.64090  0.81160  Biso   1.000  H
  H47      1.0000 0.60810  0.98320  0.91620  Biso   1.000  H
  H48      1.0000 0.60640  0.90820  0.98060  Biso   1.000  H
  C1       1.0000 0.43260  0.78462  0.41764  Biso   1.000  C
  C2       1.0000 0.38000  0.65918  0.36776  Biso   1.000  C
  C3       1.0000 0.48470  0.58034  0.39268  Biso   1.000  C
  C4       1.0000 0.41130  0.45966  0.35132  Biso   1.000  C
  C5       1.0000 0.25740  0.46383  0.40406  Biso   1.000  C
  C6       1.0000 0.75480  0.90070  0.71040  Biso   1.000  C
  C7       1.0000 0.86820  0.89799  0.78218  Biso   1.000  C
  C8       1.0000 0.92380  0.00118  0.86856  Biso   1.000  C
  C9       1.0000 0.86400  0.10324  0.87828  Biso   1.000  C
  C10      1.0000 0.75160  0.09931  0.80382  Biso   1.000  C
  C11      1.0000 0.04040  0.00152  0.95224  Biso   1.000  C
  C12      1.0000 0.06740  0.36698  0.58236  Biso   1.000  C
  C13      1.0000 0.12000  0.29142  0.63224  Biso   1.000  C
  C14      1.0000 0.01530  0.18766  0.60732  Biso   1.000  C
  C15      1.0000 0.08870  0.10834  0.64868  Biso   1.000  C
  C16      1.0000 0.24260  0.05977  0.59594  Biso   1.000  C
  C17      1.0000 0.74520  0.19030  0.28960  Biso   1.000  C
  C18      1.0000 0.63180  0.11581  0.21782  Biso   1.000  C
  C19      1.0000 0.57620  0.13262  0.13144  Biso   1.000  C
  C20      1.0000 0.63600  0.22496  0.12172  Biso   1.000  C
  C21      1.0000 0.74840  0.29549  0.19618  Biso   1.000  C
  C22      1.0000 0.45960  0.04928  0.04776  Biso   1.000  C
  C23      1.0000 0.56740  0.21538  0.58236  Biso   1.000  C
  C24      1.0000 0.62000  0.34082  0.63224  Biso   1.000  C
  C25      1.0000 0.51530  0.41966  0.60732  Biso   1.000  C
  C26      1.0000 0.58870  0.54034  0.64868  Biso   1.000  C
  C27      1.0000 0.74260  0.53617  0.59594  Biso   1.000  C
  C28      1.0000 0.24520  0.09930  0.28960  Biso   1.000  C
  C29      1.0000 0.13180  0.10201  0.21782  Biso   1.000  C
  C30      1.0000 0.07620  0.99882  0.13144  Biso   1.000  C
  C31      1.0000 0.13600  0.89676  0.12172  Biso   1.000  C
  C32      1.0000 0.24840  0.90069  0.19618  Biso   1.000  C
  C33      1.0000 0.95960  0.99848  0.04776  Biso   1.000  C
  C34      1.0000 0.93260  0.63302  0.41764  Biso   1.000  C
  C35      1.0000 0.88000  0.70858  0.36776  Biso   1.000  C
  C36      1.0000 0.98470  0.81234  0.39268  Biso   1.000  C
  C37      1.0000 0.91130  0.89166  0.35132  Biso   1.000  C
  C38      1.0000 0.75740  0.94023  0.40406  Biso   1.000  C
  C39      1.0000 0.25480  0.80970  0.71040  Biso   1.000  C
  C40      1.0000 0.36820  0.88419  0.78218  Biso   1.000  C
  C41      1.0000 0.42380  0.86738  0.86856  Biso   1.000  C
  C42      1.0000 0.36400  0.77504  0.87828  Biso   1.000  C
  C43      1.0000 0.25160  0.70451  0.80382  Biso   1.000  C
  C44      1.0000 0.54040  0.95072  0.95224  Biso   1.000  C
  N1       1.0000 0.69550  0.99986  0.72098  Biso   1.000  N
  N2       1.0000 0.80450  0.27888  0.27902  Biso   1.000  N
  N3       1.0000 0.30450  0.00014  0.27902  Biso   1.000  N
  N4       1.0000 0.19550  0.72112  0.72098  Biso   1.000  N
  O1       1.0000 0.49270  0.83308  0.51336  Biso   1.000  O
  O2       1.0000 0.40840  0.83471  0.36028  Biso   1.000  O
  O3       1.0000 0.15360  0.39001  0.34678  Biso   1.000  O
  O4       1.0000 0.24290  0.54084  0.50090  Biso   1.000  O
  O5       1.0000 0.00730  0.31972  0.48664  Biso   1.000  O
  O6       1.0000 0.09160  0.47443  0.63972  Biso   1.000  O
  O7       1.0000 0.34640  0.04323  0.65322  Biso   1.000  O
  O8       1.0000 0.25710  0.03994  0.49910  Biso   1.000  O
  O9       1.0000 0.50730  0.16692  0.48664  Biso   1.000  O
  O10      1.0000 0.59160  0.16529  0.63972  Biso   1.000  O
  O11      1.0000 0.84640  0.60999  0.65322  Biso   1.000  O
  O12      1.0000 0.75710  0.45916  0.49910  Biso   1.000  O
  O13      1.0000 0.99270  0.68028  0.51336  Biso   1.000  O
  O14      1.0000 0.90840  0.52557  0.36028  Biso   1.000  O
  O15      1.0000 0.65360  0.95677  0.34678  Biso   1.000  O
  O16      1.0000 0.74290  0.96006  0.50090  Biso   1.000  O
