data_image0
_cell_length_a       9.52299
_cell_length_b       11.3555
_cell_length_c       25.874
_cell_angle_alpha    87.4044
_cell_angle_beta     83.7999
_cell_angle_gamma    65.2088

_symmetry_space_group_name_H-M    P 1
_symmetry_int_tables_number       1

loop_
  _symmetry_equiv_pos_as_xyz
  'x, y, z'

loop_
  _atom_site_label
  _atom_site_occupancy
  _atom_site_fract_x
  _atom_site_fract_y
  _atom_site_fract_z
  _atom_site_thermal_displace_type
  _atom_site_B_iso_or_equiv
  _atom_site_type_symbol
  Co1      1.0000 0.10253  0.60554  0.95575  Biso   1.000  Co
  Co2      1.0000 0.29193  0.60554  0.54425  Biso   1.000  Co
  Co3      1.0000 0.89747  0.39446  0.04425  Biso   1.000  Co
  Co4      1.0000 0.70807  0.39446  0.45575  Biso   1.000  Co
  H1       1.0000 0.50450  0.72020  0.89450  Biso   1.000  H
  H2       1.0000 0.66090  0.76180  0.83220  Biso   1.000  H
  H3       1.0000 0.40150  0.76360  0.72360  Biso   1.000  H
  H4       1.0000 0.23570  0.72340  0.78570  Biso   1.000  H
  H5       1.0000 0.97860  0.50060  0.15710  Biso   1.000  H
  H6       1.0000 0.01090  0.53580  0.24260  Biso   1.000  H
  H7       1.0000 0.33450  0.65640  0.18650  Biso   1.000  H
  H8       1.0000 0.27950  0.64320  0.10270  Biso   1.000  H
  H9       1.0000 0.96550  0.86660  0.01550  Biso   1.000  H
  H10      1.0000 0.76210  0.06580  0.01800  Biso   1.000  H
  H11      1.0000 0.60980  0.95720  0.90200  Biso   1.000  H
  H12      1.0000 0.81360  0.75940  0.90330  Biso   1.000  H
  H13      1.0000 0.60330  0.25780  0.00810  Biso   1.000  H
  H14      1.0000 0.40810  0.45780  0.00190  Biso   1.000  H
  H15      1.0000 0.22560  0.34260  0.90080  Biso   1.000  H
  H16      1.0000 0.42170  0.13380  0.90330  Biso   1.000  H
  H17      1.0000 0.77530  0.72020  0.60550  Biso   1.000  H
  H18      1.0000 0.57730  0.76180  0.66780  Biso   1.000  H
  H19      1.0000 0.83490  0.76360  0.77640  Biso   1.000  H
  H20      1.0000 0.04090  0.72340  0.71430  Biso   1.000  H
  H21      1.0000 0.52080  0.50060  0.34290  Biso   1.000  H
  H22      1.0000 0.45330  0.53580  0.25740  Biso   1.000  H
  H23      1.0000 0.00910  0.65640  0.31350  Biso   1.000  H
  H24      1.0000 0.07730  0.64320  0.39730  Biso   1.000  H
  H25      1.0000 0.16790  0.86660  0.48450  Biso   1.000  H
  H26      1.0000 0.17210  0.06580  0.48200  Biso   1.000  H
  H27      1.0000 0.43300  0.95720  0.59800  Biso   1.000  H
  H28      1.0000 0.42700  0.75940  0.59670  Biso   1.000  H
  H29      1.0000 0.13890  0.25780  0.49190  Biso   1.000  H
  H30      1.0000 0.13410  0.45780  0.49810  Biso   1.000  H
  H31      1.0000 0.43180  0.34260  0.59920  Biso   1.000  H
  H32      1.0000 0.44450  0.13380  0.59670  Biso   1.000  H
  H33      1.0000 0.49550  0.27980  0.10550  Biso   1.000  H
  H34      1.0000 0.33910  0.23820  0.16780  Biso   1.000  H
  H35      1.0000 0.59850  0.23640  0.27640  Biso   1.000  H
  H36      1.0000 0.76430  0.27660  0.21430  Biso   1.000  H
  H37      1.0000 0.02140  0.49940  0.84290  Biso   1.000  H
  H38      1.0000 0.98910  0.46420  0.75740  Biso   1.000  H
  H39      1.0000 0.66550  0.34360  0.81350  Biso   1.000  H
  H40      1.0000 0.72050  0.35680  0.89730  Biso   1.000  H
  H41      1.0000 0.03450  0.13340  0.98450  Biso   1.000  H
  H42      1.0000 0.23790  0.93420  0.98200  Biso   1.000  H
  H43      1.0000 0.39020  0.04280  0.09800  Biso   1.000  H
  H44      1.0000 0.18640  0.24060  0.09670  Biso   1.000  H
  H45      1.0000 0.39670  0.74220  0.99190  Biso   1.000  H
  H46      1.0000 0.59190  0.54220  0.99810  Biso   1.000  H
  H47      1.0000 0.77440  0.65740  0.09920  Biso   1.000  H
  H48      1.0000 0.57830  0.86620  0.09670  Biso   1.000  H
  H49      1.0000 0.22470  0.27980  0.39450  Biso   1.000  H
  H50      1.0000 0.42270  0.23820  0.33220  Biso   1.000  H
  H51      1.0000 0.16510  0.23640  0.22360  Biso   1.000  H
  H52      1.0000 0.95910  0.27660  0.28570  Biso   1.000  H
  H53      1.0000 0.47920  0.49940  0.65710  Biso   1.000  H
  H54      1.0000 0.54670  0.46420  0.74260  Biso   1.000  H
  H55      1.0000 0.99090  0.34360  0.68650  Biso   1.000  H
  H56      1.0000 0.92270  0.35680  0.60270  Biso   1.000  H
  H57      1.0000 0.83210  0.13340  0.51550  Biso   1.000  H
  H58      1.0000 0.82790  0.93420  0.51800  Biso   1.000  H
  H59      1.0000 0.56700  0.04280  0.40200  Biso   1.000  H
  H60      1.0000 0.57300  0.24060  0.40330  Biso   1.000  H
  H61      1.0000 0.86110  0.74220  0.50810  Biso   1.000  H
  H62      1.0000 0.86590  0.54220  0.50190  Biso   1.000  H
  H63      1.0000 0.56820  0.65740  0.40080  Biso   1.000  H
  H64      1.0000 0.55550  0.86620  0.40330  Biso   1.000  H
  C1       1.0000 0.25140  0.68300  0.88680  Biso   1.000  C
  C2       1.0000 0.34870  0.71920  0.84720  Biso   1.000  C
  C3       1.0000 0.48140  0.72880  0.86010  Biso   1.000  C
  C4       1.0000 0.57660  0.75080  0.82190  Biso   1.000  C
  C5       1.0000 0.56190  0.75840  0.77100  Biso   1.000  C
  C6       1.0000 0.42410  0.75260  0.75800  Biso   1.000  C
  C7       1.0000 0.32280  0.73060  0.79560  Biso   1.000  C
  C8       1.0000 0.09170  0.55740  0.06750  Biso   1.000  C
  C9       1.0000 0.12010  0.57380  0.12200  Biso   1.000  C
  C10      1.0000 0.04630  0.53720  0.16310  Biso   1.000  C
  C11      1.0000 0.06990  0.55300  0.21470  Biso   1.000  C
  C12      1.0000 0.18370  0.59500  0.22310  Biso   1.000  C
  C13      1.0000 0.25920  0.62740  0.18120  Biso   1.000  C
  C14      1.0000 0.22750  0.61840  0.13060  Biso   1.000  C
  C15      1.0000 0.89140  0.88520  0.99200  Biso   1.000  C
  C16      1.0000 0.77300  0.00600  0.99270  Biso   1.000  C
  C17      1.0000 0.67030  0.03880  0.95610  Biso   1.000  C
  C18      1.0000 0.68390  0.94220  0.92510  Biso   1.000  C
  C19      1.0000 0.80490  0.82220  0.92680  Biso   1.000  C
  C20      1.0000 0.54200  0.17240  0.95510  Biso   1.000  C
  C21      1.0000 0.52920  0.27120  0.98520  Biso   1.000  C
  C22      1.0000 0.40890  0.39060  0.98240  Biso   1.000  C
  C23      1.0000 0.30170  0.32460  0.92350  Biso   1.000  C
  C24      1.0000 0.42260  0.19880  0.92380  Biso   1.000  C
  C25      1.0000 0.06560  0.68300  0.61320  Biso   1.000  C
  C26      1.0000 0.93210  0.71920  0.65280  Biso   1.000  C
  C27      1.0000 0.78980  0.72880  0.63990  Biso   1.000  C
  C28      1.0000 0.67260  0.75080  0.67810  Biso   1.000  C
  C29      1.0000 0.67970  0.75840  0.72900  Biso   1.000  C
  C30      1.0000 0.82330  0.75260  0.74200  Biso   1.000  C
  C31      1.0000 0.94660  0.73060  0.70440  Biso   1.000  C
  C32      1.0000 0.35090  0.55740  0.43250  Biso   1.000  C
  C33      1.0000 0.30610  0.57380  0.37800  Biso   1.000  C
  C34      1.0000 0.41650  0.53720  0.33690  Biso   1.000  C
  C35      1.0000 0.37710  0.55300  0.28530  Biso   1.000  C
  C36      1.0000 0.22130  0.59500  0.27690  Biso   1.000  C
  C37      1.0000 0.11340  0.62740  0.31880  Biso   1.000  C
  C38      1.0000 0.15410  0.61840  0.36940  Biso   1.000  C
  C39      1.0000 0.22340  0.88520  0.50800  Biso   1.000  C
  C40      1.0000 0.22100  0.00600  0.50730  Biso   1.000  C
  C41      1.0000 0.29090  0.03880  0.54390  Biso   1.000  C
  C42      1.0000 0.37390  0.94220  0.57490  Biso   1.000  C
  C43      1.0000 0.37290  0.82220  0.57320  Biso   1.000  C
  C44      1.0000 0.28560  0.17240  0.54490  Biso   1.000  C
  C45      1.0000 0.19960  0.27120  0.51480  Biso   1.000  C
  C46      1.0000 0.20050  0.39060  0.51760  Biso   1.000  C
  C47      1.0000 0.37370  0.32460  0.57650  Biso   1.000  C
  C48      1.0000 0.37860  0.19880  0.57620  Biso   1.000  C
  C49      1.0000 0.74860  0.31700  0.11320  Biso   1.000  C
  C50      1.0000 0.65130  0.28080  0.15280  Biso   1.000  C
  C51      1.0000 0.51860  0.27120  0.13990  Biso   1.000  C
  C52      1.0000 0.42340  0.24920  0.17810  Biso   1.000  C
  C53      1.0000 0.43810  0.24160  0.22900  Biso   1.000  C
  C54      1.0000 0.57590  0.24740  0.24200  Biso   1.000  C
  C55      1.0000 0.67720  0.26940  0.20440  Biso   1.000  C
  C56      1.0000 0.90830  0.44260  0.93250  Biso   1.000  C
  C57      1.0000 0.87990  0.42620  0.87800  Biso   1.000  C
  C58      1.0000 0.95370  0.46280  0.83690  Biso   1.000  C
  C59      1.0000 0.93010  0.44700  0.78530  Biso   1.000  C
  C60      1.0000 0.81630  0.40500  0.77690  Biso   1.000  C
  C61      1.0000 0.74080  0.37260  0.81880  Biso   1.000  C
  C62      1.0000 0.77250  0.38160  0.86940  Biso   1.000  C
  C63      1.0000 0.10860  0.11480  0.00800  Biso   1.000  C
  C64      1.0000 0.22700  0.99400  0.00730  Biso   1.000  C
  C65      1.0000 0.32970  0.96120  0.04390  Biso   1.000  C
  C66      1.0000 0.31610  0.05780  0.07490  Biso   1.000  C
  C67      1.0000 0.19510  0.17780  0.07320  Biso   1.000  C
  C68      1.0000 0.45800  0.82760  0.04490  Biso   1.000  C
  C69      1.0000 0.47080  0.72880  0.01480  Biso   1.000  C
  C70      1.0000 0.59110  0.60940  0.01760  Biso   1.000  C
  C71      1.0000 0.69830  0.67540  0.07650  Biso   1.000  C
  C72      1.0000 0.57740  0.80120  0.07620  Biso   1.000  C
  C73      1.0000 0.93440  0.31700  0.38680  Biso   1.000  C
  C74      1.0000 0.06790  0.28080  0.34720  Biso   1.000  C
  C75      1.0000 0.21020  0.27120  0.36010  Biso   1.000  C
  C76      1.0000 0.32740  0.24920  0.32190  Biso   1.000  C
  C77      1.0000 0.32030  0.24160  0.27100  Biso   1.000  C
  C78      1.0000 0.17670  0.24740  0.25800  Biso   1.000  C
  C79      1.0000 0.05340  0.26940  0.29560  Biso   1.000  C
  C80      1.0000 0.64910  0.44260  0.56750  Biso   1.000  C
  C81      1.0000 0.69390  0.42620  0.62200  Biso   1.000  C
  C82      1.0000 0.58350  0.46280  0.66310  Biso   1.000  C
  C83      1.0000 0.62290  0.44700  0.71470  Biso   1.000  C
  C84      1.0000 0.77870  0.40500  0.72310  Biso   1.000  C
  C85      1.0000 0.88660  0.37260  0.68120  Biso   1.000  C
  C86      1.0000 0.84590  0.38160  0.63060  Biso   1.000  C
  C87      1.0000 0.77660  0.11480  0.49200  Biso   1.000  C
  C88      1.0000 0.77900  0.99400  0.49270  Biso   1.000  C
  C89      1.0000 0.70910  0.96120  0.45610  Biso   1.000  C
  C90      1.0000 0.62610  0.05780  0.42510  Biso   1.000  C
  C91      1.0000 0.62710  0.17780  0.42680  Biso   1.000  C
  C92      1.0000 0.71440  0.82760  0.45510  Biso   1.000  C
  C93      1.0000 0.80040  0.72880  0.48520  Biso   1.000  C
  C94      1.0000 0.79950  0.60940  0.48240  Biso   1.000  C
  C95      1.0000 0.62630  0.67540  0.42350  Biso   1.000  C
  C96      1.0000 0.62140  0.80120  0.42380  Biso   1.000  C
  N1       1.0000 0.90660  0.79260  0.95930  Biso   1.000  N
  N2       1.0000 0.29240  0.41560  0.95320  Biso   1.000  N
  N3       1.0000 0.30080  0.79260  0.54070  Biso   1.000  N
  N4       1.0000 0.29200  0.41560  0.54680  Biso   1.000  N
  N5       1.0000 0.09340  0.20740  0.04070  Biso   1.000  N
  N6       1.0000 0.70760  0.58440  0.04680  Biso   1.000  N
  N7       1.0000 0.69920  0.20740  0.45930  Biso   1.000  N
  N8       1.0000 0.70800  0.58440  0.45320  Biso   1.000  N
  O1       1.0000 0.26360  0.69540  0.93440  Biso   1.000  O
  O2       1.0000 0.16100  0.63880  0.87350  Biso   1.000  O
  O3       1.0000 0.12230  0.62140  0.03220  Biso   1.000  O
  O4       1.0000 0.04470  0.47280  0.06020  Biso   1.000  O
  O5       1.0000 0.04100  0.69540  0.56560  Biso   1.000  O
  O6       1.0000 0.20020  0.63880  0.62650  Biso   1.000  O
  O7       1.0000 0.25630  0.62140  0.46780  Biso   1.000  O
  O8       1.0000 0.48250  0.47280  0.43980  Biso   1.000  O
  O9       1.0000 0.73640  0.30460  0.06560  Biso   1.000  O
  O10      1.0000 0.83900  0.36120  0.12650  Biso   1.000  O
  O11      1.0000 0.87770  0.37860  0.96780  Biso   1.000  O
  O12      1.0000 0.95530  0.52720  0.93980  Biso   1.000  O
  O13      1.0000 0.95900  0.30460  0.43440  Biso   1.000  O
  O14      1.0000 0.79980  0.36120  0.37350  Biso   1.000  O
  O15      1.0000 0.74370  0.37860  0.53220  Biso   1.000  O
  O16      1.0000 0.51750  0.52720  0.56020  Biso   1.000  O
