data_image0
_cell_length_a       7.201
_cell_length_b       12.4
_cell_length_c       20.784
_cell_angle_alpha    90
_cell_angle_beta     90
_cell_angle_gamma    90

_symmetry_space_group_name_H-M    P 1
_symmetry_int_tables_number       1

loop_
  _symmetry_equiv_pos_as_xyz
  'x, y, z'

loop_
  _atom_site_label
  _atom_site_occupancy
  _atom_site_fract_x
  _atom_site_fract_y
  _atom_site_fract_z
  _atom_site_thermal_displace_type
  _atom_site_B_iso_or_equiv
  _atom_site_type_symbol
  Cu1      1.0000 0.23648  0.83781  0.75000  Biso   1.000  Cu
  Cu2      1.0000 0.26352  0.33781  0.25000  Biso   1.000  Cu
  Cu3      1.0000 0.76352  0.16219  0.25000  Biso   1.000  Cu
  Cu4      1.0000 0.73648  0.66219  0.75000  Biso   1.000  Cu
  H1       1.0000 0.35570  0.17570  0.89990  Biso   1.000  H
  H2       1.0000 0.50490  0.24860  0.98970  Biso   1.000  H
  H3       1.0000 0.28970  0.01080  0.10030  Biso   1.000  H
  H4       1.0000 0.15360  0.93440  0.00990  Biso   1.000  H
  H5       1.0000 0.10100  0.92740  0.89980  Biso   1.000  H
  H6       1.0000 0.11230  0.03350  0.86050  Biso   1.000  H
  H7       1.0000 0.37110  0.78010  0.90540  Biso   1.000  H
  H8       1.0000 0.55000  0.78080  0.86380  Biso   1.000  H
  H9       1.0000 0.14430  0.67570  0.10010  Biso   1.000  H
  H10      1.0000 0.99510  0.74860  0.01030  Biso   1.000  H
  H11      1.0000 0.21030  0.51080  0.89970  Biso   1.000  H
  H12      1.0000 0.34640  0.43440  0.99010  Biso   1.000  H
  H13      1.0000 0.39900  0.42740  0.10020  Biso   1.000  H
  H14      1.0000 0.38770  0.53350  0.13950  Biso   1.000  H
  H15      1.0000 0.12890  0.28010  0.09460  Biso   1.000  H
  H16      1.0000 0.95000  0.28080  0.13620  Biso   1.000  H
  H17      1.0000 0.64430  0.82430  0.39990  Biso   1.000  H
  H18      1.0000 0.49510  0.75140  0.48970  Biso   1.000  H
  H19      1.0000 0.71030  0.98920  0.60030  Biso   1.000  H
  H20      1.0000 0.84640  0.06560  0.50990  Biso   1.000  H
  H21      1.0000 0.89900  0.07260  0.39980  Biso   1.000  H
  H22      1.0000 0.88770  0.96650  0.36050  Biso   1.000  H
  H23      1.0000 0.62890  0.21990  0.40540  Biso   1.000  H
  H24      1.0000 0.45000  0.21920  0.36380  Biso   1.000  H
  H25      1.0000 0.85570  0.32430  0.60010  Biso   1.000  H
  H26      1.0000 0.00490  0.25140  0.51030  Biso   1.000  H
  H27      1.0000 0.78970  0.48920  0.39970  Biso   1.000  H
  H28      1.0000 0.65360  0.56560  0.49010  Biso   1.000  H
  H29      1.0000 0.60100  0.57260  0.60020  Biso   1.000  H
  H30      1.0000 0.61230  0.46650  0.63950  Biso   1.000  H
  H31      1.0000 0.87110  0.71990  0.59460  Biso   1.000  H
  H32      1.0000 0.05000  0.71920  0.63620  Biso   1.000  H
  H33      1.0000 0.64430  0.82430  0.10010  Biso   1.000  H
  H34      1.0000 0.49510  0.75140  0.01030  Biso   1.000  H
  H35      1.0000 0.71030  0.98920  0.89970  Biso   1.000  H
  H36      1.0000 0.84640  0.06560  0.99010  Biso   1.000  H
  H37      1.0000 0.89900  0.07260  0.10020  Biso   1.000  H
  H38      1.0000 0.88770  0.96650  0.13950  Biso   1.000  H
  H39      1.0000 0.62890  0.21990  0.09460  Biso   1.000  H
  H40      1.0000 0.45000  0.21920  0.13620  Biso   1.000  H
  H41      1.0000 0.85570  0.32430  0.89990  Biso   1.000  H
  H42      1.0000 0.00490  0.25140  0.98970  Biso   1.000  H
  H43      1.0000 0.78970  0.48920  0.10030  Biso   1.000  H
  H44      1.0000 0.65360  0.56560  0.00990  Biso   1.000  H
  H45      1.0000 0.60100  0.57260  0.89980  Biso   1.000  H
  H46      1.0000 0.61230  0.46650  0.86050  Biso   1.000  H
  H47      1.0000 0.87110  0.71990  0.90540  Biso   1.000  H
  H48      1.0000 0.05000  0.71920  0.86380  Biso   1.000  H
  H49      1.0000 0.35570  0.17570  0.60010  Biso   1.000  H
  H50      1.0000 0.50490  0.24860  0.51030  Biso   1.000  H
  H51      1.0000 0.28970  0.01080  0.39970  Biso   1.000  H
  H52      1.0000 0.15360  0.93440  0.49010  Biso   1.000  H
  H53      1.0000 0.10100  0.92740  0.60020  Biso   1.000  H
  H54      1.0000 0.11230  0.03350  0.63950  Biso   1.000  H
  H55      1.0000 0.37110  0.78010  0.59460  Biso   1.000  H
  H56      1.0000 0.55000  0.78080  0.63620  Biso   1.000  H
  H57      1.0000 0.14430  0.67570  0.39990  Biso   1.000  H
  H58      1.0000 0.99510  0.74860  0.48970  Biso   1.000  H
  H59      1.0000 0.21030  0.51080  0.60030  Biso   1.000  H
  H60      1.0000 0.34640  0.43440  0.50990  Biso   1.000  H
  H61      1.0000 0.39900  0.42740  0.39980  Biso   1.000  H
  H62      1.0000 0.38770  0.53350  0.36050  Biso   1.000  H
  H63      1.0000 0.12890  0.28010  0.40540  Biso   1.000  H
  H64      1.0000 0.95000  0.28080  0.36380  Biso   1.000  H
  C1       1.0000 0.34810  0.13980  0.94020  Biso   1.000  C
  C2       1.0000 0.43520  0.18390  0.99390  Biso   1.000  C
  C3       1.0000 0.42100  0.13390  0.05370  Biso   1.000  C
  C4       1.0000 0.30940  0.04250  0.05920  Biso   1.000  C
  C5       1.0000 0.22700  0.99760  0.00540  Biso   1.000  C
  C6       1.0000 0.24960  0.04310  0.94520  Biso   1.000  C
  C7       1.0000 0.18030  0.98430  0.88640  Biso   1.000  C
  C8       1.0000 0.46920  0.82370  0.88930  Biso   1.000  C
  C9       1.0000 0.15190  0.63980  0.05980  Biso   1.000  C
  C10      1.0000 0.06480  0.68390  0.00610  Biso   1.000  C
  C11      1.0000 0.07900  0.63390  0.94630  Biso   1.000  C
  C12      1.0000 0.19060  0.54250  0.94080  Biso   1.000  C
  C13      1.0000 0.27300  0.49760  0.99460  Biso   1.000  C
  C14      1.0000 0.25040  0.54310  0.05480  Biso   1.000  C
  C15      1.0000 0.31970  0.48430  0.11360  Biso   1.000  C
  C16      1.0000 0.03080  0.32370  0.11070  Biso   1.000  C
  C17      1.0000 0.65190  0.86020  0.44020  Biso   1.000  C
  C18      1.0000 0.56480  0.81610  0.49390  Biso   1.000  C
  C19      1.0000 0.57900  0.86610  0.55370  Biso   1.000  C
  C20      1.0000 0.69060  0.95750  0.55920  Biso   1.000  C
  C21      1.0000 0.77300  0.00240  0.50540  Biso   1.000  C
  C22      1.0000 0.75040  0.95690  0.44520  Biso   1.000  C
  C23      1.0000 0.81970  0.01570  0.38640  Biso   1.000  C
  C24      1.0000 0.53080  0.17630  0.38930  Biso   1.000  C
  C25      1.0000 0.84810  0.36020  0.55980  Biso   1.000  C
  C26      1.0000 0.93520  0.31610  0.50610  Biso   1.000  C
  C27      1.0000 0.92100  0.36610  0.44630  Biso   1.000  C
  C28      1.0000 0.80940  0.45750  0.44080  Biso   1.000  C
  C29      1.0000 0.72700  0.50240  0.49460  Biso   1.000  C
  C30      1.0000 0.74960  0.45690  0.55480  Biso   1.000  C
  C31      1.0000 0.68030  0.51570  0.61360  Biso   1.000  C
  C32      1.0000 0.96920  0.67630  0.61070  Biso   1.000  C
  C33      1.0000 0.65190  0.86020  0.05980  Biso   1.000  C
  C34      1.0000 0.56480  0.81610  0.00610  Biso   1.000  C
  C35      1.0000 0.57900  0.86610  0.94630  Biso   1.000  C
  C36      1.0000 0.69060  0.95750  0.94080  Biso   1.000  C
  C37      1.0000 0.77300  0.00240  0.99460  Biso   1.000  C
  C38      1.0000 0.75040  0.95690  0.05480  Biso   1.000  C
  C39      1.0000 0.81970  0.01570  0.11360  Biso   1.000  C
  C40      1.0000 0.53080  0.17630  0.11070  Biso   1.000  C
  C41      1.0000 0.84810  0.36020  0.94020  Biso   1.000  C
  C42      1.0000 0.93520  0.31610  0.99390  Biso   1.000  C
  C43      1.0000 0.92100  0.36610  0.05370  Biso   1.000  C
  C44      1.0000 0.80940  0.45750  0.05920  Biso   1.000  C
  C45      1.0000 0.72700  0.50240  0.00540  Biso   1.000  C
  C46      1.0000 0.74960  0.45690  0.94520  Biso   1.000  C
  C47      1.0000 0.68030  0.51570  0.88640  Biso   1.000  C
  C48      1.0000 0.96920  0.67630  0.88930  Biso   1.000  C
  C49      1.0000 0.34810  0.13980  0.55980  Biso   1.000  C
  C50      1.0000 0.43520  0.18390  0.50610  Biso   1.000  C
  C51      1.0000 0.42100  0.13390  0.44630  Biso   1.000  C
  C52      1.0000 0.30940  0.04250  0.44080  Biso   1.000  C
  C53      1.0000 0.22700  0.99760  0.49460  Biso   1.000  C
  C54      1.0000 0.24960  0.04310  0.55480  Biso   1.000  C
  C55      1.0000 0.18030  0.98430  0.61360  Biso   1.000  C
  C56      1.0000 0.46920  0.82370  0.61070  Biso   1.000  C
  C57      1.0000 0.15190  0.63980  0.44020  Biso   1.000  C
  C58      1.0000 0.06480  0.68390  0.49390  Biso   1.000  C
  C59      1.0000 0.07900  0.63390  0.55370  Biso   1.000  C
  C60      1.0000 0.19060  0.54250  0.55920  Biso   1.000  C
  C61      1.0000 0.27300  0.49760  0.50540  Biso   1.000  C
  C62      1.0000 0.25040  0.54310  0.44520  Biso   1.000  C
  C63      1.0000 0.31970  0.48430  0.38640  Biso   1.000  C
  C64      1.0000 0.03080  0.32370  0.38930  Biso   1.000  C
  S1       1.0000 0.36830  0.92702  0.83789  Biso   1.000  S
  S2       1.0000 0.13170  0.42702  0.16211  Biso   1.000  S
  S3       1.0000 0.63170  0.07298  0.33789  Biso   1.000  S
  S4       1.0000 0.86830  0.57298  0.66211  Biso   1.000  S
  S5       1.0000 0.63170  0.07298  0.16211  Biso   1.000  S
  S6       1.0000 0.86830  0.57298  0.83789  Biso   1.000  S
  S7       1.0000 0.36830  0.92702  0.66211  Biso   1.000  S
  S8       1.0000 0.13170  0.42702  0.33789  Biso   1.000  S
  I1       1.0000 0.87181  0.85935  0.75000  Biso   1.000  I
  I2       1.0000 0.62819  0.35935  0.25000  Biso   1.000  I
  I3       1.0000 0.12819  0.14065  0.25000  Biso   1.000  I
  I4       1.0000 0.37181  0.64065  0.75000  Biso   1.000  I
