data_image0
_cell_length_a       7.082
_cell_length_b       12.357
_cell_length_c       20.724
_cell_angle_alpha    90
_cell_angle_beta     90
_cell_angle_gamma    90

_symmetry_space_group_name_H-M    P 1
_symmetry_int_tables_number       1

loop_
  _symmetry_equiv_pos_as_xyz
  'x, y, z'

loop_
  _atom_site_label
  _atom_site_occupancy
  _atom_site_fract_x
  _atom_site_fract_y
  _atom_site_fract_z
  _atom_site_thermal_displace_type
  _atom_site_B_iso_or_equiv
  _atom_site_type_symbol
  Cu1      1.0000 0.24458  0.33266  0.25000  Biso   1.000  Cu
  Cu2      1.0000 0.25542  0.83266  0.75000  Biso   1.000  Cu
  Cu3      1.0000 0.75542  0.66734  0.75000  Biso   1.000  Cu
  Cu4      1.0000 0.74458  0.16734  0.25000  Biso   1.000  Cu
  H1       1.0000 0.48970  0.24770  0.51180  Biso   1.000  H
  H2       1.0000 0.63270  0.32150  0.60360  Biso   1.000  H
  H3       1.0000 0.84770  0.56400  0.49400  Biso   1.000  H
  H4       1.0000 0.71510  0.48650  0.40220  Biso   1.000  H
  H5       1.0000 0.36820  0.27850  0.40600  Biso   1.000  H
  H6       1.0000 0.55360  0.27570  0.36620  Biso   1.000  H
  H7       1.0000 0.12180  0.53690  0.35490  Biso   1.000  H
  H8       1.0000 0.09880  0.43190  0.39510  Biso   1.000  H
  H9       1.0000 0.01030  0.74770  0.48820  Biso   1.000  H
  H10      1.0000 0.86730  0.82150  0.39640  Biso   1.000  H
  H11      1.0000 0.65230  0.06400  0.50600  Biso   1.000  H
  H12      1.0000 0.78490  0.98650  0.59780  Biso   1.000  H
  H13      1.0000 0.13180  0.77850  0.59400  Biso   1.000  H
  H14      1.0000 0.94640  0.77570  0.63380  Biso   1.000  H
  H15      1.0000 0.37820  0.03690  0.64510  Biso   1.000  H
  H16      1.0000 0.40120  0.93190  0.60490  Biso   1.000  H
  H17      1.0000 0.51030  0.75230  0.01180  Biso   1.000  H
  H18      1.0000 0.36730  0.67850  0.10360  Biso   1.000  H
  H19      1.0000 0.15230  0.43600  0.99400  Biso   1.000  H
  H20      1.0000 0.28490  0.51350  0.90220  Biso   1.000  H
  H21      1.0000 0.63180  0.72150  0.90600  Biso   1.000  H
  H22      1.0000 0.44640  0.72430  0.86620  Biso   1.000  H
  H23      1.0000 0.87820  0.46310  0.85490  Biso   1.000  H
  H24      1.0000 0.90120  0.56810  0.89510  Biso   1.000  H
  H25      1.0000 0.98970  0.25230  0.98820  Biso   1.000  H
  H26      1.0000 0.13270  0.17850  0.89640  Biso   1.000  H
  H27      1.0000 0.34770  0.93600  0.00600  Biso   1.000  H
  H28      1.0000 0.21510  0.01350  0.09780  Biso   1.000  H
  H29      1.0000 0.86820  0.22150  0.09400  Biso   1.000  H
  H30      1.0000 0.05360  0.22430  0.13380  Biso   1.000  H
  H31      1.0000 0.62180  0.96310  0.14510  Biso   1.000  H
  H32      1.0000 0.59880  0.06810  0.10490  Biso   1.000  H
  H33      1.0000 0.51030  0.75230  0.48820  Biso   1.000  H
  H34      1.0000 0.36730  0.67850  0.39640  Biso   1.000  H
  H35      1.0000 0.15230  0.43600  0.50600  Biso   1.000  H
  H36      1.0000 0.28490  0.51350  0.59780  Biso   1.000  H
  H37      1.0000 0.63180  0.72150  0.59400  Biso   1.000  H
  H38      1.0000 0.44640  0.72430  0.63380  Biso   1.000  H
  H39      1.0000 0.87820  0.46310  0.64510  Biso   1.000  H
  H40      1.0000 0.90120  0.56810  0.60490  Biso   1.000  H
  H41      1.0000 0.98970  0.25230  0.51180  Biso   1.000  H
  H42      1.0000 0.13270  0.17850  0.60360  Biso   1.000  H
  H43      1.0000 0.34770  0.93600  0.49400  Biso   1.000  H
  H44      1.0000 0.21510  0.01350  0.40220  Biso   1.000  H
  H45      1.0000 0.86820  0.22150  0.40600  Biso   1.000  H
  H46      1.0000 0.05360  0.22430  0.36620  Biso   1.000  H
  H47      1.0000 0.62180  0.96310  0.35490  Biso   1.000  H
  H48      1.0000 0.59880  0.06810  0.39510  Biso   1.000  H
  H49      1.0000 0.48970  0.24770  0.98820  Biso   1.000  H
  H50      1.0000 0.63270  0.32150  0.89640  Biso   1.000  H
  H51      1.0000 0.84770  0.56400  0.00600  Biso   1.000  H
  H52      1.0000 0.71510  0.48650  0.09780  Biso   1.000  H
  H53      1.0000 0.36820  0.27850  0.09400  Biso   1.000  H
  H54      1.0000 0.55360  0.27570  0.13380  Biso   1.000  H
  H55      1.0000 0.12180  0.53690  0.14510  Biso   1.000  H
  H56      1.0000 0.09880  0.43190  0.10490  Biso   1.000  H
  H57      1.0000 0.01030  0.74770  0.01180  Biso   1.000  H
  H58      1.0000 0.86730  0.82150  0.10360  Biso   1.000  H
  H59      1.0000 0.65230  0.06400  0.99400  Biso   1.000  H
  H60      1.0000 0.78490  0.98650  0.90220  Biso   1.000  H
  H61      1.0000 0.13180  0.77850  0.90600  Biso   1.000  H
  H62      1.0000 0.94640  0.77570  0.86620  Biso   1.000  H
  H63      1.0000 0.37820  0.03690  0.85490  Biso   1.000  H
  H64      1.0000 0.40120  0.93190  0.89510  Biso   1.000  H
  C1       1.0000 0.56070  0.31300  0.50818  Biso   1.000  C
  C2       1.0000 0.64480  0.35740  0.56301  Biso   1.000  C
  C3       1.0000 0.74670  0.45410  0.55854  Biso   1.000  C
  C4       1.0000 0.77270  0.49980  0.49810  Biso   1.000  C
  C5       1.0000 0.69260  0.45470  0.44344  Biso   1.000  C
  C6       1.0000 0.57880  0.36310  0.44816  Biso   1.000  C
  C7       1.0000 0.47140  0.32060  0.39057  Biso   1.000  C
  C8       1.0000 0.18540  0.48700  0.38230  Biso   1.000  C
  C9       1.0000 0.93930  0.81300  0.49182  Biso   1.000  C
  C10      1.0000 0.85520  0.85740  0.43699  Biso   1.000  C
  C11      1.0000 0.75330  0.95410  0.44146  Biso   1.000  C
  C12      1.0000 0.72730  0.99980  0.50190  Biso   1.000  C
  C13      1.0000 0.80740  0.95470  0.55656  Biso   1.000  C
  C14      1.0000 0.92120  0.86310  0.55184  Biso   1.000  C
  C15      1.0000 0.02860  0.82060  0.60943  Biso   1.000  C
  C16      1.0000 0.31460  0.98700  0.61770  Biso   1.000  C
  C17      1.0000 0.43930  0.68700  0.00818  Biso   1.000  C
  C18      1.0000 0.35520  0.64260  0.06301  Biso   1.000  C
  C19      1.0000 0.25330  0.54590  0.05854  Biso   1.000  C
  C20      1.0000 0.22730  0.50020  0.99810  Biso   1.000  C
  C21      1.0000 0.30740  0.54530  0.94344  Biso   1.000  C
  C22      1.0000 0.42120  0.63690  0.94816  Biso   1.000  C
  C23      1.0000 0.52860  0.67940  0.89057  Biso   1.000  C
  C24      1.0000 0.81460  0.51300  0.88230  Biso   1.000  C
  C25      1.0000 0.06070  0.18700  0.99182  Biso   1.000  C
  C26      1.0000 0.14480  0.14260  0.93699  Biso   1.000  C
  C27      1.0000 0.24670  0.04590  0.94146  Biso   1.000  C
  C28      1.0000 0.27270  0.00020  0.00190  Biso   1.000  C
  C29      1.0000 0.19260  0.04530  0.05656  Biso   1.000  C
  C30      1.0000 0.07880  0.13690  0.05184  Biso   1.000  C
  C31      1.0000 0.97140  0.17940  0.10943  Biso   1.000  C
  C32      1.0000 0.68540  0.01300  0.11770  Biso   1.000  C
  C33      1.0000 0.43930  0.68700  0.49182  Biso   1.000  C
  C34      1.0000 0.35520  0.64260  0.43699  Biso   1.000  C
  C35      1.0000 0.25330  0.54590  0.44146  Biso   1.000  C
  C36      1.0000 0.22730  0.50020  0.50190  Biso   1.000  C
  C37      1.0000 0.30740  0.54530  0.55656  Biso   1.000  C
  C38      1.0000 0.42120  0.63690  0.55184  Biso   1.000  C
  C39      1.0000 0.52860  0.67940  0.60943  Biso   1.000  C
  C40      1.0000 0.81460  0.51300  0.61770  Biso   1.000  C
  C41      1.0000 0.06070  0.18700  0.50818  Biso   1.000  C
  C42      1.0000 0.14480  0.14260  0.56301  Biso   1.000  C
  C43      1.0000 0.24670  0.04590  0.55854  Biso   1.000  C
  C44      1.0000 0.27270  0.00020  0.49810  Biso   1.000  C
  C45      1.0000 0.19260  0.04530  0.44344  Biso   1.000  C
  C46      1.0000 0.07880  0.13690  0.44816  Biso   1.000  C
  C47      1.0000 0.97140  0.17940  0.39057  Biso   1.000  C
  C48      1.0000 0.68540  0.01300  0.38230  Biso   1.000  C
  C49      1.0000 0.56070  0.31300  0.99182  Biso   1.000  C
  C50      1.0000 0.64480  0.35740  0.93699  Biso   1.000  C
  C51      1.0000 0.74670  0.45410  0.94146  Biso   1.000  C
  C52      1.0000 0.77270  0.49980  0.00190  Biso   1.000  C
  C53      1.0000 0.69260  0.45470  0.05656  Biso   1.000  C
  C54      1.0000 0.57880  0.36310  0.05184  Biso   1.000  C
  C55      1.0000 0.47140  0.32060  0.10943  Biso   1.000  C
  C56      1.0000 0.18540  0.48700  0.11770  Biso   1.000  C
  C57      1.0000 0.93930  0.81300  0.00818  Biso   1.000  C
  C58      1.0000 0.85520  0.85740  0.06301  Biso   1.000  C
  C59      1.0000 0.75330  0.95410  0.05854  Biso   1.000  C
  C60      1.0000 0.72730  0.99980  0.99810  Biso   1.000  C
  C61      1.0000 0.80740  0.95470  0.94344  Biso   1.000  C
  C62      1.0000 0.92120  0.86310  0.94816  Biso   1.000  C
  C63      1.0000 0.02860  0.82060  0.89057  Biso   1.000  C
  C64      1.0000 0.31460  0.98700  0.88230  Biso   1.000  C
  S1       1.0000 0.37724  0.42406  0.33682  Biso   1.000  S
  S2       1.0000 0.12276  0.92406  0.66318  Biso   1.000  S
  S3       1.0000 0.62276  0.57594  0.83682  Biso   1.000  S
  S4       1.0000 0.87724  0.07594  0.16318  Biso   1.000  S
  S5       1.0000 0.62276  0.57594  0.66318  Biso   1.000  S
  S6       1.0000 0.87724  0.07594  0.33682  Biso   1.000  S
  S7       1.0000 0.37724  0.42406  0.16318  Biso   1.000  S
  S8       1.0000 0.12276  0.92406  0.83682  Biso   1.000  S
  Br1      1.0000 0.89496  0.34829  0.25000  Biso   1.000  Br
  Br2      1.0000 0.60504  0.84829  0.75000  Biso   1.000  Br
  Br3      1.0000 0.10504  0.65171  0.75000  Biso   1.000  Br
  Br4      1.0000 0.39496  0.15171  0.25000  Biso   1.000  Br
