data_image0
_cell_length_a       9.1743
_cell_length_b       10.8488
_cell_length_c       11.3458
_cell_angle_alpha    113.479
_cell_angle_beta     98.726
_cell_angle_gamma    98.016

_symmetry_space_group_name_H-M    "P 1"
_symmetry_int_tables_number       1

loop_
  _symmetry_equiv_pos_as_xyz
  'x, y, z'

loop_
  _atom_site_label
  _atom_site_occupancy
  _atom_site_fract_x
  _atom_site_fract_y
  _atom_site_fract_z
  _atom_site_thermal_displace_type
  _atom_site_B_iso_or_equiv
  _atom_site_type_symbol
  Zn1      1.0000 0.81965  0.38671  0.38601  Biso   1.000  Zn
  O1       1.0000 0.75010  0.21810  0.40570  Biso   1.000  O
  O2       1.0000 0.71540  0.40610  0.23620  Biso   1.000  O
  O3       1.0000 0.55040  0.52270  0.33380  Biso   1.000  O
  O4       1.0000 0.54480  0.30280  0.42980  Biso   1.000  O
  N1       1.0000 0.97140  0.62890  0.64510  Biso   1.000  N
  C1       1.0000 0.44450  0.56350  0.11100  Biso   1.000  C
  H1       1.0000 0.40740  0.60600  0.18560  Biso   1.000  H
  C2       1.0000 0.62110  0.21670  0.43260  Biso   1.000  C
  N2       1.0000 0.72570  0.59070  0.60700  Biso   1.000  N
  C3       1.0000 0.60780  0.47080  0.23860  Biso   1.000  C
  C4       1.0000 0.60720  0.42230  0.00170  Biso   1.000  C
  H2       1.0000 0.67920  0.37010  0.00310  Biso   1.000  H
  N3       1.0000 0.84250  0.55130  0.55870  Biso   1.000  N
  C5       1.0000 0.55770  0.10470  0.46730  Biso   1.000  C
  C6       1.0000 0.55300  0.48550  0.11440  Biso   1.000  C
  C7       1.0000 0.63210  0.99630  0.45410  Biso   1.000  C
  H3       1.0000 0.72060  0.99400  0.42350  Biso   1.000  H
  C8       1.0000 0.93330  0.71970  0.75040  Biso   1.000  C
  H4       1.0000 0.00020  0.78730  0.82610  Biso   1.000  H
  C9       1.0000 0.42780  0.10710  0.51280  Biso   1.000  C
  H5       1.0000 0.37910  0.17890  0.52170  Biso   1.000  H
  C10      1.0000 0.78230  0.69600  0.72720  Biso   1.000  C
  H6       1.0000 0.72610  0.74390  0.78440  Biso   1.000  H
  Zn2      1.0000 0.18035  0.61329  0.61399  Biso   1.000  Zn
  O5       1.0000 0.24990  0.78190  0.59430  Biso   1.000  O
  O6       1.0000 0.28460  0.59390  0.76380  Biso   1.000  O
  O7       1.0000 0.44960  0.47730  0.66620  Biso   1.000  O
  O8       1.0000 0.45520  0.69720  0.57020  Biso   1.000  O
  N4       1.0000 0.02860  0.37110  0.35490  Biso   1.000  N
  C11      1.0000 0.55550  0.43650  0.88900  Biso   1.000  C
  H7       1.0000 0.59260  0.39400  0.81440  Biso   1.000  H
  C12      1.0000 0.37890  0.78330  0.56740  Biso   1.000  C
  N5       1.0000 0.27430  0.40930  0.39300  Biso   1.000  N
  C13      1.0000 0.39220  0.52920  0.76140  Biso   1.000  C
  C14      1.0000 0.39280  0.57770  0.99830  Biso   1.000  C
  H8       1.0000 0.32080  0.62990  0.99690  Biso   1.000  H
  N6       1.0000 0.15750  0.44870  0.44130  Biso   1.000  N
  C15      1.0000 0.44230  0.89530  0.53270  Biso   1.000  C
  C16      1.0000 0.44700  0.51450  0.88560  Biso   1.000  C
  C17      1.0000 0.36790  0.00370  0.54590  Biso   1.000  C
  H9       1.0000 0.27940  0.00600  0.57650  Biso   1.000  H
  C18      1.0000 0.06670  0.28030  0.24960  Biso   1.000  C
  H10      1.0000 0.99980  0.21270  0.17390  Biso   1.000  H
  C19      1.0000 0.57220  0.89290  0.48720  Biso   1.000  C
  H11      1.0000 0.62090  0.82110  0.47830  Biso   1.000  H
  C20      1.0000 0.21770  0.30400  0.27280  Biso   1.000  C
  H12      1.0000 0.27390  0.25610  0.21560  Biso   1.000  H
  Zn3      1.0000 0.50000  0.50000  0.50000  Biso   1.000  Zn
