data_image0
_cell_length_a       28.54
_cell_length_b       12.983
_cell_length_c       15.834
_cell_angle_alpha    90
_cell_angle_beta     106.104
_cell_angle_gamma    90

_symmetry_space_group_name_H-M    "P 1"
_symmetry_int_tables_number       1

loop_
  _symmetry_equiv_pos_as_xyz
  'x, y, z'

loop_
  _atom_site_label
  _atom_site_occupancy
  _atom_site_fract_x
  _atom_site_fract_y
  _atom_site_fract_z
  _atom_site_thermal_displace_type
  _atom_site_B_iso_or_equiv
  _atom_site_type_symbol
  Zn1      1.0000 0.31811  0.36395  0.08244  Biso   1.000  Zn
  Zn2      1.0000 0.30689  0.10905  0.06775  Biso   1.000  Zn
  C1       1.0000 0.41965  0.21150  0.00260  Biso   1.000  C
  C2       1.0000 0.43076  0.11540  0.97410  Biso   1.000  C
  H1       1.0000 0.43070  0.05810  0.00930  Biso   1.000  H
  C3       1.0000 0.44184  0.10260  0.89540  Biso   1.000  C
  C4       1.0000 0.44020  0.18680  0.84260  Biso   1.000  C
  H2       1.0000 0.44710  0.17900  0.78890  Biso   1.000  H
  C5       1.0000 0.42860  0.28330  0.86770  Biso   1.000  C
  C6       1.0000 0.41823  0.29450  0.94780  Biso   1.000  C
  H3       1.0000 0.41020  0.35920  0.96470  Biso   1.000  H
  C7       1.0000 0.45540  0.99740  0.86870  Biso   1.000  C
  C8       1.0000 0.42780  0.37400  0.81040  Biso   1.000  C
  C9       1.0000 0.28622  0.25310  0.79740  Biso   1.000  C
  C10      1.0000 0.28840  0.16730  0.74720  Biso   1.000  C
  H4       1.0000 0.28360  0.10220  0.76790  Biso   1.000  H
  C11      1.0000 0.29762  0.17730  0.66600  Biso   1.000  C
  C12      1.0000 0.30391  0.27450  0.63480  Biso   1.000  C
  H5       1.0000 0.30950  0.28160  0.57990  Biso   1.000  H
  C13      1.0000 0.30195  0.36110  0.68450  Biso   1.000  C
  C14      1.0000 0.29273  0.34980  0.76480  Biso   1.000  C
  H6       1.0000 0.29080  0.40800  0.79790  Biso   1.000  H
  C15      1.0000 0.30083  0.08370  0.61270  Biso   1.000  C
  C16      1.0000 0.30967  0.46750  0.65370  Biso   1.000  C
  O1       1.0000 0.45856  0.21160  0.17570  Biso   1.000  O
  O2       1.0000 0.38666  0.32530  0.11760  Biso   1.000  O
  O3       1.0000 0.37623  0.12970  0.11670  Biso   1.000  O
  O4       1.0000 0.44938  0.92010  0.90890  Biso   1.000  O
  O5       1.0000 0.47273  0.99700  0.80420  Biso   1.000  O
  O6       1.0000 0.43356  0.35180  0.73370  Biso   1.000  O
  O7       1.0000 0.42310  0.46050  0.83230  Biso   1.000  O
  O8       1.0000 0.29834  0.33700  0.95501  Biso   1.000  O
  O9       1.0000 0.28850  0.14140  0.94277  Biso   1.000  O
  O10      1.0000 0.21745  0.25830  0.88473  Biso   1.000  O
  O11      1.0000 0.28876  0.99860  0.63900  Biso   1.000  O
  O12      1.0000 0.31544  0.09030  0.54610  Biso   1.000  O
  O13      1.0000 0.31593  0.47870  0.57800  Biso   1.000  O
  O14      1.0000 0.31061  0.54360  0.70140  Biso   1.000  O
  P1       1.0000 0.40904  0.21937  0.10915  Biso   1.000  P
  P2       1.0000 0.27331  0.24619  0.90248  Biso   1.000  P
  H7       1.0000 0.43400  0.40200  0.69800  Biso   1.000  H
  Zn3      1.0000 0.81811  0.86395  0.08244  Biso   1.000  Zn
  Zn4      1.0000 0.80689  0.60905  0.06775  Biso   1.000  Zn
  C17      1.0000 0.91965  0.71150  0.00260  Biso   1.000  C
  C18      1.0000 0.93076  0.61540  0.97410  Biso   1.000  C
  H8       1.0000 0.93070  0.55810  0.00930  Biso   1.000  H
  C19      1.0000 0.94184  0.60260  0.89540  Biso   1.000  C
  C20      1.0000 0.94020  0.68680  0.84260  Biso   1.000  C
  H9       1.0000 0.94710  0.67900  0.78890  Biso   1.000  H
  C21      1.0000 0.92860  0.78330  0.86770  Biso   1.000  C
  C22      1.0000 0.91823  0.79450  0.94780  Biso   1.000  C
  H10      1.0000 0.91020  0.85920  0.96470  Biso   1.000  H
  C23      1.0000 0.95540  0.49740  0.86870  Biso   1.000  C
  C24      1.0000 0.92780  0.87400  0.81040  Biso   1.000  C
  C25      1.0000 0.78622  0.75310  0.79740  Biso   1.000  C
  C26      1.0000 0.78840  0.66730  0.74720  Biso   1.000  C
  H11      1.0000 0.78360  0.60220  0.76790  Biso   1.000  H
  C27      1.0000 0.79762  0.67730  0.66600  Biso   1.000  C
  C28      1.0000 0.80391  0.77450  0.63480  Biso   1.000  C
  H12      1.0000 0.80950  0.78160  0.57990  Biso   1.000  H
  C29      1.0000 0.80195  0.86110  0.68450  Biso   1.000  C
  C30      1.0000 0.79273  0.84980  0.76480  Biso   1.000  C
  H13      1.0000 0.79080  0.90800  0.79790  Biso   1.000  H
  C31      1.0000 0.80083  0.58370  0.61270  Biso   1.000  C
  C32      1.0000 0.80967  0.96750  0.65370  Biso   1.000  C
  O15      1.0000 0.95856  0.71160  0.17570  Biso   1.000  O
  O16      1.0000 0.88666  0.82530  0.11760  Biso   1.000  O
  O17      1.0000 0.87623  0.62970  0.11670  Biso   1.000  O
  O18      1.0000 0.94938  0.42010  0.90890  Biso   1.000  O
  O19      1.0000 0.97273  0.49700  0.80420  Biso   1.000  O
  O20      1.0000 0.93356  0.85180  0.73370  Biso   1.000  O
  O21      1.0000 0.92310  0.96050  0.83230  Biso   1.000  O
  O22      1.0000 0.79834  0.83700  0.95501  Biso   1.000  O
  O23      1.0000 0.78850  0.64140  0.94277  Biso   1.000  O
  O24      1.0000 0.71745  0.75830  0.88473  Biso   1.000  O
  O25      1.0000 0.78876  0.49860  0.63900  Biso   1.000  O
  O26      1.0000 0.81544  0.59030  0.54610  Biso   1.000  O
  O27      1.0000 0.81593  0.97870  0.57800  Biso   1.000  O
  O28      1.0000 0.81061  0.04360  0.70140  Biso   1.000  O
  P3       1.0000 0.90904  0.71937  0.10915  Biso   1.000  P
  P4       1.0000 0.77331  0.74619  0.90248  Biso   1.000  P
  H14      1.0000 0.93400  0.90200  0.69800  Biso   1.000  H
  Zn5      1.0000 0.68189  0.36395  0.41756  Biso   1.000  Zn
  Zn6      1.0000 0.69311  0.10905  0.43225  Biso   1.000  Zn
  C33      1.0000 0.58035  0.21150  0.49740  Biso   1.000  C
  C34      1.0000 0.56924  0.11540  0.52590  Biso   1.000  C
  H15      1.0000 0.56930  0.05810  0.49070  Biso   1.000  H
  C35      1.0000 0.55816  0.10260  0.60460  Biso   1.000  C
  C36      1.0000 0.55980  0.18680  0.65740  Biso   1.000  C
  H16      1.0000 0.55290  0.17900  0.71110  Biso   1.000  H
  C37      1.0000 0.57140  0.28330  0.63230  Biso   1.000  C
  C38      1.0000 0.58177  0.29450  0.55220  Biso   1.000  C
  H17      1.0000 0.58980  0.35920  0.53530  Biso   1.000  H
  C39      1.0000 0.54460  0.99740  0.63130  Biso   1.000  C
  C40      1.0000 0.57220  0.37400  0.68960  Biso   1.000  C
  C41      1.0000 0.71378  0.25310  0.70260  Biso   1.000  C
  C42      1.0000 0.71160  0.16730  0.75280  Biso   1.000  C
  H18      1.0000 0.71640  0.10220  0.73210  Biso   1.000  H
  C43      1.0000 0.70238  0.17730  0.83400  Biso   1.000  C
  C44      1.0000 0.69609  0.27450  0.86520  Biso   1.000  C
  H19      1.0000 0.69050  0.28160  0.92010  Biso   1.000  H
  C45      1.0000 0.69805  0.36110  0.81550  Biso   1.000  C
  C46      1.0000 0.70727  0.34980  0.73520  Biso   1.000  C
  H20      1.0000 0.70920  0.40800  0.70210  Biso   1.000  H
  C47      1.0000 0.69917  0.08370  0.88730  Biso   1.000  C
  C48      1.0000 0.69033  0.46750  0.84630  Biso   1.000  C
  O29      1.0000 0.54144  0.21160  0.32430  Biso   1.000  O
  O30      1.0000 0.61334  0.32530  0.38240  Biso   1.000  O
  O31      1.0000 0.62377  0.12970  0.38330  Biso   1.000  O
  O32      1.0000 0.55062  0.92010  0.59110  Biso   1.000  O
  O33      1.0000 0.52727  0.99700  0.69580  Biso   1.000  O
  O34      1.0000 0.56644  0.35180  0.76630  Biso   1.000  O
  O35      1.0000 0.57690  0.46050  0.66770  Biso   1.000  O
  O36      1.0000 0.70166  0.33700  0.54499  Biso   1.000  O
  O37      1.0000 0.71150  0.14140  0.55723  Biso   1.000  O
  O38      1.0000 0.78255  0.25830  0.61527  Biso   1.000  O
  O39      1.0000 0.71124  0.99860  0.86100  Biso   1.000  O
  O40      1.0000 0.68456  0.09030  0.95390  Biso   1.000  O
  O41      1.0000 0.68407  0.47870  0.92200  Biso   1.000  O
  O42      1.0000 0.68939  0.54360  0.79860  Biso   1.000  O
  P5       1.0000 0.59096  0.21937  0.39085  Biso   1.000  P
  P6       1.0000 0.72669  0.24619  0.59752  Biso   1.000  P
  H21      1.0000 0.56600  0.40200  0.80200  Biso   1.000  H
  Zn7      1.0000 0.18189  0.86395  0.41756  Biso   1.000  Zn
  Zn8      1.0000 0.19311  0.60905  0.43225  Biso   1.000  Zn
  C49      1.0000 0.08035  0.71150  0.49740  Biso   1.000  C
  C50      1.0000 0.06924  0.61540  0.52590  Biso   1.000  C
  H22      1.0000 0.06930  0.55810  0.49070  Biso   1.000  H
  C51      1.0000 0.05816  0.60260  0.60460  Biso   1.000  C
  C52      1.0000 0.05980  0.68680  0.65740  Biso   1.000  C
  H23      1.0000 0.05290  0.67900  0.71110  Biso   1.000  H
  C53      1.0000 0.07140  0.78330  0.63230  Biso   1.000  C
  C54      1.0000 0.08177  0.79450  0.55220  Biso   1.000  C
  H24      1.0000 0.08980  0.85920  0.53530  Biso   1.000  H
  C55      1.0000 0.04460  0.49740  0.63130  Biso   1.000  C
  C56      1.0000 0.07220  0.87400  0.68960  Biso   1.000  C
  C57      1.0000 0.21378  0.75310  0.70260  Biso   1.000  C
  C58      1.0000 0.21160  0.66730  0.75280  Biso   1.000  C
  H25      1.0000 0.21640  0.60220  0.73210  Biso   1.000  H
  C59      1.0000 0.20238  0.67730  0.83400  Biso   1.000  C
  C60      1.0000 0.19609  0.77450  0.86520  Biso   1.000  C
  H26      1.0000 0.19050  0.78160  0.92010  Biso   1.000  H
  C61      1.0000 0.19805  0.86110  0.81550  Biso   1.000  C
  C62      1.0000 0.20727  0.84980  0.73520  Biso   1.000  C
  H27      1.0000 0.20920  0.90800  0.70210  Biso   1.000  H
  C63      1.0000 0.19917  0.58370  0.88730  Biso   1.000  C
  C64      1.0000 0.19033  0.96750  0.84630  Biso   1.000  C
  O43      1.0000 0.04144  0.71160  0.32430  Biso   1.000  O
  O44      1.0000 0.11334  0.82530  0.38240  Biso   1.000  O
  O45      1.0000 0.12377  0.62970  0.38330  Biso   1.000  O
  O46      1.0000 0.05062  0.42010  0.59110  Biso   1.000  O
  O47      1.0000 0.02727  0.49700  0.69580  Biso   1.000  O
  O48      1.0000 0.06644  0.85180  0.76630  Biso   1.000  O
  O49      1.0000 0.07690  0.96050  0.66770  Biso   1.000  O
  O50      1.0000 0.20166  0.83700  0.54499  Biso   1.000  O
  O51      1.0000 0.21150  0.64140  0.55723  Biso   1.000  O
  O52      1.0000 0.28255  0.75830  0.61527  Biso   1.000  O
  O53      1.0000 0.21124  0.49860  0.86100  Biso   1.000  O
  O54      1.0000 0.18456  0.59030  0.95390  Biso   1.000  O
  O55      1.0000 0.18407  0.97870  0.92200  Biso   1.000  O
  O56      1.0000 0.18939  0.04360  0.79860  Biso   1.000  O
  P7       1.0000 0.09096  0.71937  0.39085  Biso   1.000  P
  P8       1.0000 0.22669  0.74619  0.59752  Biso   1.000  P
  H28      1.0000 0.06600  0.90200  0.80200  Biso   1.000  H
  Zn9      1.0000 0.68189  0.63605  0.91756  Biso   1.000  Zn
  Zn10     1.0000 0.69311  0.89095  0.93225  Biso   1.000  Zn
  C65      1.0000 0.58035  0.78850  0.99740  Biso   1.000  C
  C66      1.0000 0.56924  0.88460  0.02590  Biso   1.000  C
  H29      1.0000 0.56930  0.94190  0.99070  Biso   1.000  H
  C67      1.0000 0.55816  0.89740  0.10460  Biso   1.000  C
  C68      1.0000 0.55980  0.81320  0.15740  Biso   1.000  C
  H30      1.0000 0.55290  0.82100  0.21110  Biso   1.000  H
  C69      1.0000 0.57140  0.71670  0.13230  Biso   1.000  C
  C70      1.0000 0.58177  0.70550  0.05220  Biso   1.000  C
  H31      1.0000 0.58980  0.64080  0.03530  Biso   1.000  H
  C71      1.0000 0.54460  0.00260  0.13130  Biso   1.000  C
  C72      1.0000 0.57220  0.62600  0.18960  Biso   1.000  C
  C73      1.0000 0.71378  0.74690  0.20260  Biso   1.000  C
  C74      1.0000 0.71160  0.83270  0.25280  Biso   1.000  C
  H32      1.0000 0.71640  0.89780  0.23210  Biso   1.000  H
  C75      1.0000 0.70238  0.82270  0.33400  Biso   1.000  C
  C76      1.0000 0.69609  0.72550  0.36520  Biso   1.000  C
  H33      1.0000 0.69050  0.71840  0.42010  Biso   1.000  H
  C77      1.0000 0.69805  0.63890  0.31550  Biso   1.000  C
  C78      1.0000 0.70727  0.65020  0.23520  Biso   1.000  C
  H34      1.0000 0.70920  0.59200  0.20210  Biso   1.000  H
  C79      1.0000 0.69917  0.91630  0.38730  Biso   1.000  C
  C80      1.0000 0.69033  0.53250  0.34630  Biso   1.000  C
  O57      1.0000 0.54144  0.78840  0.82430  Biso   1.000  O
  O58      1.0000 0.61334  0.67470  0.88240  Biso   1.000  O
  O59      1.0000 0.62377  0.87030  0.88330  Biso   1.000  O
  O60      1.0000 0.55062  0.07990  0.09110  Biso   1.000  O
  O61      1.0000 0.52727  0.00300  0.19580  Biso   1.000  O
  O62      1.0000 0.56644  0.64820  0.26630  Biso   1.000  O
  O63      1.0000 0.57690  0.53950  0.16770  Biso   1.000  O
  O64      1.0000 0.70166  0.66300  0.04499  Biso   1.000  O
  O65      1.0000 0.71150  0.85860  0.05723  Biso   1.000  O
  O66      1.0000 0.78255  0.74170  0.11527  Biso   1.000  O
  O67      1.0000 0.71124  0.00140  0.36100  Biso   1.000  O
  O68      1.0000 0.68456  0.90970  0.45390  Biso   1.000  O
  O69      1.0000 0.68407  0.52130  0.42200  Biso   1.000  O
  O70      1.0000 0.68939  0.45640  0.29860  Biso   1.000  O
  P9       1.0000 0.59096  0.78063  0.89085  Biso   1.000  P
  P10      1.0000 0.72669  0.75381  0.09752  Biso   1.000  P
  H35      1.0000 0.56600  0.59800  0.30200  Biso   1.000  H
  Zn11     1.0000 0.18189  0.13605  0.91756  Biso   1.000  Zn
  Zn12     1.0000 0.19311  0.39095  0.93225  Biso   1.000  Zn
  C81      1.0000 0.08035  0.28850  0.99740  Biso   1.000  C
  C82      1.0000 0.06924  0.38460  0.02590  Biso   1.000  C
  H36      1.0000 0.06930  0.44190  0.99070  Biso   1.000  H
  C83      1.0000 0.05816  0.39740  0.10460  Biso   1.000  C
  C84      1.0000 0.05980  0.31320  0.15740  Biso   1.000  C
  H37      1.0000 0.05290  0.32100  0.21110  Biso   1.000  H
  C85      1.0000 0.07140  0.21670  0.13230  Biso   1.000  C
  C86      1.0000 0.08177  0.20550  0.05220  Biso   1.000  C
  H38      1.0000 0.08980  0.14080  0.03530  Biso   1.000  H
  C87      1.0000 0.04460  0.50260  0.13130  Biso   1.000  C
  C88      1.0000 0.07220  0.12600  0.18960  Biso   1.000  C
  C89      1.0000 0.21378  0.24690  0.20260  Biso   1.000  C
  C90      1.0000 0.21160  0.33270  0.25280  Biso   1.000  C
  H39      1.0000 0.21640  0.39780  0.23210  Biso   1.000  H
  C91      1.0000 0.20238  0.32270  0.33400  Biso   1.000  C
  C92      1.0000 0.19609  0.22550  0.36520  Biso   1.000  C
  H40      1.0000 0.19050  0.21840  0.42010  Biso   1.000  H
  C93      1.0000 0.19805  0.13890  0.31550  Biso   1.000  C
  C94      1.0000 0.20727  0.15020  0.23520  Biso   1.000  C
  H41      1.0000 0.20920  0.09200  0.20210  Biso   1.000  H
  C95      1.0000 0.19917  0.41630  0.38730  Biso   1.000  C
  C96      1.0000 0.19033  0.03250  0.34630  Biso   1.000  C
  O71      1.0000 0.04144  0.28840  0.82430  Biso   1.000  O
  O72      1.0000 0.11334  0.17470  0.88240  Biso   1.000  O
  O73      1.0000 0.12377  0.37030  0.88330  Biso   1.000  O
  O74      1.0000 0.05062  0.57990  0.09110  Biso   1.000  O
  O75      1.0000 0.02727  0.50300  0.19580  Biso   1.000  O
  O76      1.0000 0.06644  0.14820  0.26630  Biso   1.000  O
  O77      1.0000 0.07690  0.03950  0.16770  Biso   1.000  O
  O78      1.0000 0.20166  0.16300  0.04499  Biso   1.000  O
  O79      1.0000 0.21150  0.35860  0.05723  Biso   1.000  O
  O80      1.0000 0.28255  0.24170  0.11527  Biso   1.000  O
  O81      1.0000 0.21124  0.50140  0.36100  Biso   1.000  O
  O82      1.0000 0.18456  0.40970  0.45390  Biso   1.000  O
  O83      1.0000 0.18407  0.02130  0.42200  Biso   1.000  O
  O84      1.0000 0.18939  0.95640  0.29860  Biso   1.000  O
  P11      1.0000 0.09096  0.28063  0.89085  Biso   1.000  P
  P12      1.0000 0.22669  0.25381  0.09752  Biso   1.000  P
  H42      1.0000 0.06600  0.09800  0.30200  Biso   1.000  H
  Zn13     1.0000 0.31811  0.63605  0.58244  Biso   1.000  Zn
  Zn14     1.0000 0.30689  0.89095  0.56775  Biso   1.000  Zn
  C97      1.0000 0.41965  0.78850  0.50260  Biso   1.000  C
  C98      1.0000 0.43076  0.88460  0.47410  Biso   1.000  C
  H43      1.0000 0.43070  0.94190  0.50930  Biso   1.000  H
  C99      1.0000 0.44184  0.89740  0.39540  Biso   1.000  C
  C100     1.0000 0.44020  0.81320  0.34260  Biso   1.000  C
  H44      1.0000 0.44710  0.82100  0.28890  Biso   1.000  H
  C101     1.0000 0.42860  0.71670  0.36770  Biso   1.000  C
  C102     1.0000 0.41823  0.70550  0.44780  Biso   1.000  C
  H45      1.0000 0.41020  0.64080  0.46470  Biso   1.000  H
  C103     1.0000 0.45540  0.00260  0.36870  Biso   1.000  C
  C104     1.0000 0.42780  0.62600  0.31040  Biso   1.000  C
  C105     1.0000 0.28622  0.74690  0.29740  Biso   1.000  C
  C106     1.0000 0.28840  0.83270  0.24720  Biso   1.000  C
  H46      1.0000 0.28360  0.89780  0.26790  Biso   1.000  H
  C107     1.0000 0.29762  0.82270  0.16600  Biso   1.000  C
  C108     1.0000 0.30391  0.72550  0.13480  Biso   1.000  C
  H47      1.0000 0.30950  0.71840  0.07990  Biso   1.000  H
  C109     1.0000 0.30195  0.63890  0.18450  Biso   1.000  C
  C110     1.0000 0.29273  0.65020  0.26480  Biso   1.000  C
  H48      1.0000 0.29080  0.59200  0.29790  Biso   1.000  H
  C111     1.0000 0.30083  0.91630  0.11270  Biso   1.000  C
  C112     1.0000 0.30967  0.53250  0.15370  Biso   1.000  C
  O85      1.0000 0.45856  0.78840  0.67570  Biso   1.000  O
  O86      1.0000 0.38666  0.67470  0.61760  Biso   1.000  O
  O87      1.0000 0.37623  0.87030  0.61670  Biso   1.000  O
  O88      1.0000 0.44938  0.07990  0.40890  Biso   1.000  O
  O89      1.0000 0.47273  0.00300  0.30420  Biso   1.000  O
  O90      1.0000 0.43356  0.64820  0.23370  Biso   1.000  O
  O91      1.0000 0.42310  0.53950  0.33230  Biso   1.000  O
  O92      1.0000 0.29834  0.66300  0.45501  Biso   1.000  O
  O93      1.0000 0.28850  0.85860  0.44277  Biso   1.000  O
  O94      1.0000 0.21745  0.74170  0.38473  Biso   1.000  O
  O95      1.0000 0.28876  0.00140  0.13900  Biso   1.000  O
  O96      1.0000 0.31544  0.90970  0.04610  Biso   1.000  O
  O97      1.0000 0.31593  0.52130  0.07800  Biso   1.000  O
  O98      1.0000 0.31061  0.45640  0.20140  Biso   1.000  O
  P13      1.0000 0.40904  0.78063  0.60915  Biso   1.000  P
  P14      1.0000 0.27331  0.75381  0.40248  Biso   1.000  P
  H49      1.0000 0.43400  0.59800  0.19800  Biso   1.000  H
  Zn15     1.0000 0.81811  0.13605  0.58244  Biso   1.000  Zn
  Zn16     1.0000 0.80689  0.39095  0.56775  Biso   1.000  Zn
  C113     1.0000 0.91965  0.28850  0.50260  Biso   1.000  C
  C114     1.0000 0.93076  0.38460  0.47410  Biso   1.000  C
  H50      1.0000 0.93070  0.44190  0.50930  Biso   1.000  H
  C115     1.0000 0.94184  0.39740  0.39540  Biso   1.000  C
  C116     1.0000 0.94020  0.31320  0.34260  Biso   1.000  C
  H51      1.0000 0.94710  0.32100  0.28890  Biso   1.000  H
  C117     1.0000 0.92860  0.21670  0.36770  Biso   1.000  C
  C118     1.0000 0.91823  0.20550  0.44780  Biso   1.000  C
  H52      1.0000 0.91020  0.14080  0.46470  Biso   1.000  H
  C119     1.0000 0.95540  0.50260  0.36870  Biso   1.000  C
  C120     1.0000 0.92780  0.12600  0.31040  Biso   1.000  C
  C121     1.0000 0.78622  0.24690  0.29740  Biso   1.000  C
  C122     1.0000 0.78840  0.33270  0.24720  Biso   1.000  C
  H53      1.0000 0.78360  0.39780  0.26790  Biso   1.000  H
  C123     1.0000 0.79762  0.32270  0.16600  Biso   1.000  C
  C124     1.0000 0.80391  0.22550  0.13480  Biso   1.000  C
  H54      1.0000 0.80950  0.21840  0.07990  Biso   1.000  H
  C125     1.0000 0.80195  0.13890  0.18450  Biso   1.000  C
  C126     1.0000 0.79273  0.15020  0.26480  Biso   1.000  C
  H55      1.0000 0.79080  0.09200  0.29790  Biso   1.000  H
  C127     1.0000 0.80083  0.41630  0.11270  Biso   1.000  C
  C128     1.0000 0.80967  0.03250  0.15370  Biso   1.000  C
  O99      1.0000 0.95856  0.28840  0.67570  Biso   1.000  O
  O100     1.0000 0.88666  0.17470  0.61760  Biso   1.000  O
  O101     1.0000 0.87623  0.37030  0.61670  Biso   1.000  O
  O102     1.0000 0.94938  0.57990  0.40890  Biso   1.000  O
  O103     1.0000 0.97273  0.50300  0.30420  Biso   1.000  O
  O104     1.0000 0.93356  0.14820  0.23370  Biso   1.000  O
  O105     1.0000 0.92310  0.03950  0.33230  Biso   1.000  O
  O106     1.0000 0.79834  0.16300  0.45501  Biso   1.000  O
  O107     1.0000 0.78850  0.35860  0.44277  Biso   1.000  O
  O108     1.0000 0.71745  0.24170  0.38473  Biso   1.000  O
  O109     1.0000 0.78876  0.50140  0.13900  Biso   1.000  O
  O110     1.0000 0.81544  0.40970  0.04610  Biso   1.000  O
  O111     1.0000 0.81593  0.02130  0.07800  Biso   1.000  O
  O112     1.0000 0.81061  0.95640  0.20140  Biso   1.000  O
  P15      1.0000 0.90904  0.28063  0.60915  Biso   1.000  P
  P16      1.0000 0.77331  0.25381  0.40248  Biso   1.000  P
  H56      1.0000 0.93400  0.09800  0.19800  Biso   1.000  H
  Zn17     1.0000 0.50000  0.11321  0.25000  Biso   1.000  Zn
  Zn18     1.0000 0.00000  0.61321  0.25000  Biso   1.000  Zn
  Zn19     1.0000 0.50000  0.88679  0.75000  Biso   1.000  Zn
  Zn20     1.0000 0.00000  0.38679  0.75000  Biso   1.000  Zn
