data_image0
_cell_length_a       14.713
_cell_length_b       14.713
_cell_length_c       37.436
_cell_angle_alpha    90
_cell_angle_beta     90
_cell_angle_gamma    120

_symmetry_space_group_name_H-M    "P 1"
_symmetry_int_tables_number       1

loop_
  _symmetry_equiv_pos_as_xyz
  'x, y, z'

loop_
  _atom_site_label
  _atom_site_occupancy
  _atom_site_fract_x
  _atom_site_fract_y
  _atom_site_fract_z
  _atom_site_thermal_displace_type
  _atom_site_B_iso_or_equiv
  _atom_site_type_symbol
  N1       1.0000 0.42020  0.80250  0.69941  Biso   1.000  N
  N2       1.0000 0.51890  0.02320  0.75393  Biso   1.000  N
  N3       1.0000 0.42670  0.99360  0.74886  Biso   1.000  N
  N4       1.0000 0.53940  0.21430  0.80129  Biso   1.000  N
  C1       1.0000 0.47650  0.87250  0.71540  Biso   1.000  C
  C2       1.0000 0.56020  0.96470  0.73430  Biso   1.000  C
  C3       1.0000 0.38670  0.05660  0.76710  Biso   1.000  C
  C4       1.0000 0.47470  0.14700  0.78621  Biso   1.000  C
  C5       1.0000 0.61150  0.92840  0.76180  Biso   1.000  C
  H1       1.0000 0.66610  0.98890  0.77430  Biso   1.000  H
  H2       1.0000 0.64200  0.89160  0.74980  Biso   1.000  H
  H3       1.0000 0.55910  0.88170  0.77880  Biso   1.000  H
  C6       1.0000 0.63680  0.04090  0.70620  Biso   1.000  C
  H4       1.0000 0.69240  0.10210  0.71810  Biso   1.000  H
  H5       1.0000 0.59930  0.06250  0.69020  Biso   1.000  H
  H6       1.0000 0.66680  0.00610  0.69270  Biso   1.000  H
  C7       1.0000 0.34360  0.09610  0.73770  Biso   1.000  C
  H7       1.0000 0.28630  0.03670  0.72560  Biso   1.000  H
  H8       1.0000 0.39880  0.13700  0.72060  Biso   1.000  H
  H9       1.0000 0.31820  0.13960  0.74810  Biso   1.000  H
  C8       1.0000 0.30430  0.98570  0.79360  Biso   1.000  C
  H10      1.0000 0.24720  0.92750  0.78100  Biso   1.000  H
  H11      1.0000 0.27760  0.02500  0.80620  Biso   1.000  H
  H12      1.0000 0.33510  0.95890  0.81050  Biso   1.000  H
  N5       1.0000 0.08687  0.13583  0.03274  Biso   1.000  N
  N6       1.0000 0.18557  0.35653  0.08726  Biso   1.000  N
  N7       1.0000 0.09337  0.32693  0.08219  Biso   1.000  N
  N8       1.0000 0.20607  0.54763  0.13462  Biso   1.000  N
  C9       1.0000 0.14317  0.20583  0.04873  Biso   1.000  C
  C10      1.0000 0.22687  0.29803  0.06763  Biso   1.000  C
  C11      1.0000 0.05337  0.38993  0.10043  Biso   1.000  C
  C12      1.0000 0.14137  0.48033  0.11954  Biso   1.000  C
  C13      1.0000 0.27817  0.26173  0.09513  Biso   1.000  C
  H13      1.0000 0.33277  0.32223  0.10763  Biso   1.000  H
  H14      1.0000 0.30867  0.22493  0.08313  Biso   1.000  H
  H15      1.0000 0.22577  0.21503  0.11213  Biso   1.000  H
  C14      1.0000 0.30347  0.37423  0.03953  Biso   1.000  C
  H16      1.0000 0.35907  0.43543  0.05143  Biso   1.000  H
  H17      1.0000 0.26597  0.39583  0.02353  Biso   1.000  H
  H18      1.0000 0.33347  0.33943  0.02603  Biso   1.000  H
  C15      1.0000 0.01027  0.42943  0.07103  Biso   1.000  C
  H19      1.0000 0.95297  0.37003  0.05893  Biso   1.000  H
  H20      1.0000 0.06547  0.47033  0.05393  Biso   1.000  H
  H21      1.0000 0.98487  0.47293  0.08143  Biso   1.000  H
  C16      1.0000 0.97097  0.31903  0.12693  Biso   1.000  C
  H22      1.0000 0.91387  0.26083  0.11433  Biso   1.000  H
  H23      1.0000 0.94427  0.35833  0.13953  Biso   1.000  H
  H24      1.0000 0.00177  0.29223  0.14383  Biso   1.000  H
  N9       1.0000 0.75353  0.46917  0.36608  Biso   1.000  N
  N10      1.0000 0.85223  0.68987  0.42060  Biso   1.000  N
  N11      1.0000 0.76003  0.66027  0.41553  Biso   1.000  N
  N12      1.0000 0.87273  0.88097  0.46796  Biso   1.000  N
  C17      1.0000 0.80983  0.53917  0.38207  Biso   1.000  C
  C18      1.0000 0.89353  0.63137  0.40097  Biso   1.000  C
  C19      1.0000 0.72003  0.72327  0.43377  Biso   1.000  C
  C20      1.0000 0.80803  0.81367  0.45288  Biso   1.000  C
  C21      1.0000 0.94483  0.59507  0.42847  Biso   1.000  C
  H25      1.0000 0.99943  0.65557  0.44097  Biso   1.000  H
  H26      1.0000 0.97533  0.55827  0.41647  Biso   1.000  H
  H27      1.0000 0.89243  0.54837  0.44547  Biso   1.000  H
  C22      1.0000 0.97013  0.70757  0.37287  Biso   1.000  C
  H28      1.0000 0.02573  0.76877  0.38477  Biso   1.000  H
  H29      1.0000 0.93263  0.72917  0.35687  Biso   1.000  H
  H30      1.0000 0.00013  0.67277  0.35937  Biso   1.000  H
  C23      1.0000 0.67693  0.76277  0.40437  Biso   1.000  C
  H31      1.0000 0.61963  0.70337  0.39227  Biso   1.000  H
  H32      1.0000 0.73213  0.80367  0.38727  Biso   1.000  H
  H33      1.0000 0.65153  0.80627  0.41477  Biso   1.000  H
  C24      1.0000 0.63763  0.65237  0.46027  Biso   1.000  C
  H34      1.0000 0.58053  0.59417  0.44767  Biso   1.000  H
  H35      1.0000 0.61093  0.69167  0.47287  Biso   1.000  H
  H36      1.0000 0.66843  0.62557  0.47717  Biso   1.000  H
  N13      1.0000 0.19750  0.61770  0.69941  Biso   1.000  N
  N14      1.0000 0.97680  0.49570  0.75393  Biso   1.000  N
  N15      1.0000 0.00640  0.43310  0.74886  Biso   1.000  N
  N16      1.0000 0.78570  0.32510  0.80129  Biso   1.000  N
  C25      1.0000 0.12750  0.60400  0.71540  Biso   1.000  C
  C26      1.0000 0.03530  0.59550  0.73430  Biso   1.000  C
  C27      1.0000 0.94340  0.33010  0.76710  Biso   1.000  C
  C28      1.0000 0.85300  0.32770  0.78621  Biso   1.000  C
  C29      1.0000 0.07160  0.68310  0.76180  Biso   1.000  C
  H37      1.0000 0.01110  0.67720  0.77430  Biso   1.000  H
  H38      1.0000 0.10840  0.75040  0.74980  Biso   1.000  H
  H39      1.0000 0.11830  0.67740  0.77880  Biso   1.000  H
  C30      1.0000 0.95910  0.59590  0.70620  Biso   1.000  C
  H40      1.0000 0.89790  0.59030  0.71810  Biso   1.000  H
  H41      1.0000 0.93750  0.53680  0.69020  Biso   1.000  H
  H42      1.0000 0.99390  0.66070  0.69270  Biso   1.000  H
  C31      1.0000 0.90390  0.24750  0.73770  Biso   1.000  C
  H43      1.0000 0.96330  0.24960  0.72560  Biso   1.000  H
  H44      1.0000 0.86300  0.26180  0.72060  Biso   1.000  H
  H45      1.0000 0.86040  0.17860  0.74810  Biso   1.000  H
  C32      1.0000 0.01430  0.31860  0.79360  Biso   1.000  C
  H46      1.0000 0.07250  0.31970  0.78100  Biso   1.000  H
  H47      1.0000 0.97500  0.25260  0.80620  Biso   1.000  H
  H48      1.0000 0.04110  0.37620  0.81050  Biso   1.000  H
  N17      1.0000 0.86417  0.95103  0.03274  Biso   1.000  N
  N18      1.0000 0.64347  0.82903  0.08726  Biso   1.000  N
  N19      1.0000 0.67307  0.76643  0.08219  Biso   1.000  N
  N20      1.0000 0.45237  0.65843  0.13462  Biso   1.000  N
  C33      1.0000 0.79417  0.93733  0.04873  Biso   1.000  C
  C34      1.0000 0.70197  0.92883  0.06763  Biso   1.000  C
  C35      1.0000 0.61007  0.66343  0.10043  Biso   1.000  C
  C36      1.0000 0.51967  0.66103  0.11954  Biso   1.000  C
  C37      1.0000 0.73827  0.01643  0.09513  Biso   1.000  C
  H49      1.0000 0.67777  0.01053  0.10763  Biso   1.000  H
  H50      1.0000 0.77507  0.08373  0.08313  Biso   1.000  H
  H51      1.0000 0.78497  0.01073  0.11213  Biso   1.000  H
  C38      1.0000 0.62577  0.92923  0.03953  Biso   1.000  C
  H52      1.0000 0.56457  0.92363  0.05143  Biso   1.000  H
  H53      1.0000 0.60417  0.87013  0.02353  Biso   1.000  H
  H54      1.0000 0.66057  0.99403  0.02603  Biso   1.000  H
  C39      1.0000 0.57057  0.58083  0.07103  Biso   1.000  C
  H55      1.0000 0.62997  0.58293  0.05893  Biso   1.000  H
  H56      1.0000 0.52967  0.59513  0.05393  Biso   1.000  H
  H57      1.0000 0.52707  0.51193  0.08143  Biso   1.000  H
  C40      1.0000 0.68097  0.65193  0.12693  Biso   1.000  C
  H58      1.0000 0.73917  0.65303  0.11433  Biso   1.000  H
  H59      1.0000 0.64167  0.58593  0.13953  Biso   1.000  H
  H60      1.0000 0.70777  0.70953  0.14383  Biso   1.000  H
  N21      1.0000 0.53083  0.28437  0.36608  Biso   1.000  N
  N22      1.0000 0.31013  0.16237  0.42060  Biso   1.000  N
  N23      1.0000 0.33973  0.09977  0.41553  Biso   1.000  N
  N24      1.0000 0.11903  0.99177  0.46796  Biso   1.000  N
  C41      1.0000 0.46083  0.27067  0.38207  Biso   1.000  C
  C42      1.0000 0.36863  0.26217  0.40097  Biso   1.000  C
  C43      1.0000 0.27673  0.99677  0.43377  Biso   1.000  C
  C44      1.0000 0.18633  0.99437  0.45288  Biso   1.000  C
  C45      1.0000 0.40493  0.34977  0.42847  Biso   1.000  C
  H61      1.0000 0.34443  0.34387  0.44097  Biso   1.000  H
  H62      1.0000 0.44173  0.41707  0.41647  Biso   1.000  H
  H63      1.0000 0.45163  0.34407  0.44547  Biso   1.000  H
  C46      1.0000 0.29243  0.26257  0.37287  Biso   1.000  C
  H64      1.0000 0.23123  0.25697  0.38477  Biso   1.000  H
  H65      1.0000 0.27083  0.20347  0.35687  Biso   1.000  H
  H66      1.0000 0.32723  0.32737  0.35937  Biso   1.000  H
  C47      1.0000 0.23723  0.91417  0.40437  Biso   1.000  C
  H67      1.0000 0.29663  0.91627  0.39227  Biso   1.000  H
  H68      1.0000 0.19633  0.92847  0.38727  Biso   1.000  H
  H69      1.0000 0.19373  0.84527  0.41477  Biso   1.000  H
  C48      1.0000 0.34763  0.98527  0.46027  Biso   1.000  C
  H70      1.0000 0.40583  0.98637  0.44767  Biso   1.000  H
  H71      1.0000 0.30833  0.91927  0.47287  Biso   1.000  H
  H72      1.0000 0.37443  0.04287  0.47717  Biso   1.000  H
  N25      1.0000 0.38230  0.57980  0.69941  Biso   1.000  N
  N26      1.0000 0.50430  0.48110  0.75393  Biso   1.000  N
  N27      1.0000 0.56690  0.57330  0.74886  Biso   1.000  N
  N28      1.0000 0.67490  0.46060  0.80129  Biso   1.000  N
  C49      1.0000 0.39600  0.52350  0.71540  Biso   1.000  C
  C50      1.0000 0.40450  0.43980  0.73430  Biso   1.000  C
  C51      1.0000 0.66990  0.61330  0.76710  Biso   1.000  C
  C52      1.0000 0.67230  0.52530  0.78621  Biso   1.000  C
  C53      1.0000 0.31690  0.38850  0.76180  Biso   1.000  C
  H73      1.0000 0.32280  0.33390  0.77430  Biso   1.000  H
  H74      1.0000 0.24960  0.35800  0.74980  Biso   1.000  H
  H75      1.0000 0.32260  0.44090  0.77880  Biso   1.000  H
  C54      1.0000 0.40410  0.36320  0.70620  Biso   1.000  C
  H76      1.0000 0.40970  0.30760  0.71810  Biso   1.000  H
  H77      1.0000 0.46320  0.40070  0.69020  Biso   1.000  H
  H78      1.0000 0.33930  0.33320  0.69270  Biso   1.000  H
  C55      1.0000 0.75250  0.65640  0.73770  Biso   1.000  C
  H79      1.0000 0.75040  0.71370  0.72560  Biso   1.000  H
  H80      1.0000 0.73820  0.60120  0.72060  Biso   1.000  H
  H81      1.0000 0.82140  0.68180  0.74810  Biso   1.000  H
  C56      1.0000 0.68140  0.69570  0.79360  Biso   1.000  C
  H82      1.0000 0.68030  0.75280  0.78100  Biso   1.000  H
  H83      1.0000 0.74740  0.72240  0.80620  Biso   1.000  H
  H84      1.0000 0.62380  0.66490  0.81050  Biso   1.000  H
  N29      1.0000 0.04897  0.91313  0.03274  Biso   1.000  N
  N30      1.0000 0.17097  0.81443  0.08726  Biso   1.000  N
  N31      1.0000 0.23357  0.90663  0.08219  Biso   1.000  N
  N32      1.0000 0.34157  0.79393  0.13462  Biso   1.000  N
  C57      1.0000 0.06267  0.85683  0.04873  Biso   1.000  C
  C58      1.0000 0.07117  0.77313  0.06763  Biso   1.000  C
  C59      1.0000 0.33657  0.94663  0.10043  Biso   1.000  C
  C60      1.0000 0.33897  0.85863  0.11954  Biso   1.000  C
  C61      1.0000 0.98357  0.72183  0.09513  Biso   1.000  C
  H85      1.0000 0.98947  0.66723  0.10763  Biso   1.000  H
  H86      1.0000 0.91627  0.69133  0.08313  Biso   1.000  H
  H87      1.0000 0.98927  0.77423  0.11213  Biso   1.000  H
  C62      1.0000 0.07077  0.69653  0.03953  Biso   1.000  C
  H88      1.0000 0.07637  0.64093  0.05143  Biso   1.000  H
  H89      1.0000 0.12987  0.73403  0.02353  Biso   1.000  H
  H90      1.0000 0.00597  0.66653  0.02603  Biso   1.000  H
  C63      1.0000 0.41917  0.98973  0.07103  Biso   1.000  C
  H91      1.0000 0.41707  0.04703  0.05893  Biso   1.000  H
  H92      1.0000 0.40487  0.93453  0.05393  Biso   1.000  H
  H93      1.0000 0.48807  0.01513  0.08143  Biso   1.000  H
  C64      1.0000 0.34807  0.02903  0.12693  Biso   1.000  C
  H94      1.0000 0.34697  0.08613  0.11433  Biso   1.000  H
  H95      1.0000 0.41407  0.05573  0.13953  Biso   1.000  H
  H96      1.0000 0.29047  0.99823  0.14383  Biso   1.000  H
  N33      1.0000 0.71563  0.24647  0.36608  Biso   1.000  N
  N34      1.0000 0.83763  0.14777  0.42060  Biso   1.000  N
  N35      1.0000 0.90023  0.23997  0.41553  Biso   1.000  N
  N36      1.0000 0.00823  0.12727  0.46796  Biso   1.000  N
  C65      1.0000 0.72933  0.19017  0.38207  Biso   1.000  C
  C66      1.0000 0.73783  0.10647  0.40097  Biso   1.000  C
  C67      1.0000 0.00323  0.27997  0.43377  Biso   1.000  C
  C68      1.0000 0.00563  0.19197  0.45288  Biso   1.000  C
  C69      1.0000 0.65023  0.05517  0.42847  Biso   1.000  C
  H97      1.0000 0.65613  0.00057  0.44097  Biso   1.000  H
  H98      1.0000 0.58293  0.02467  0.41647  Biso   1.000  H
  H99      1.0000 0.65593  0.10757  0.44547  Biso   1.000  H
  C70      1.0000 0.73743  0.02987  0.37287  Biso   1.000  C
  H100     1.0000 0.74303  0.97427  0.38477  Biso   1.000  H
  H101     1.0000 0.79653  0.06737  0.35687  Biso   1.000  H
  H102     1.0000 0.67263  0.99987  0.35937  Biso   1.000  H
  C71      1.0000 0.08583  0.32307  0.40437  Biso   1.000  C
  H103     1.0000 0.08373  0.38037  0.39227  Biso   1.000  H
  H104     1.0000 0.07153  0.26787  0.38727  Biso   1.000  H
  H105     1.0000 0.15473  0.34847  0.41477  Biso   1.000  H
  C72      1.0000 0.01473  0.36237  0.46027  Biso   1.000  C
  H106     1.0000 0.01363  0.41947  0.44767  Biso   1.000  H
  H107     1.0000 0.08073  0.38907  0.47287  Biso   1.000  H
  H108     1.0000 0.95713  0.33157  0.47717  Biso   1.000  H
  N37      1.0000 0.57980  0.19750  0.30059  Biso   1.000  N
  N38      1.0000 0.48110  0.97680  0.24607  Biso   1.000  N
  N39      1.0000 0.57330  0.00640  0.25114  Biso   1.000  N
  N40      1.0000 0.46060  0.78570  0.19871  Biso   1.000  N
  C73      1.0000 0.52350  0.12750  0.28460  Biso   1.000  C
  C74      1.0000 0.43980  0.03530  0.26570  Biso   1.000  C
  C75      1.0000 0.61330  0.94340  0.23290  Biso   1.000  C
  C76      1.0000 0.52530  0.85300  0.21379  Biso   1.000  C
  C77      1.0000 0.38850  0.07160  0.23820  Biso   1.000  C
  H109     1.0000 0.33390  0.01110  0.22570  Biso   1.000  H
  H110     1.0000 0.35800  0.10840  0.25020  Biso   1.000  H
  H111     1.0000 0.44090  0.11830  0.22120  Biso   1.000  H
  C78      1.0000 0.36320  0.95910  0.29380  Biso   1.000  C
  H112     1.0000 0.30760  0.89790  0.28190  Biso   1.000  H
  H113     1.0000 0.40070  0.93750  0.30980  Biso   1.000  H
  H114     1.0000 0.33320  0.99390  0.30730  Biso   1.000  H
  C79      1.0000 0.65640  0.90390  0.26230  Biso   1.000  C
  H115     1.0000 0.71370  0.96330  0.27440  Biso   1.000  H
  H116     1.0000 0.60120  0.86300  0.27940  Biso   1.000  H
  H117     1.0000 0.68180  0.86040  0.25190  Biso   1.000  H
  C80      1.0000 0.69570  0.01430  0.20640  Biso   1.000  C
  H118     1.0000 0.75280  0.07250  0.21900  Biso   1.000  H
  H119     1.0000 0.72240  0.97500  0.19380  Biso   1.000  H
  H120     1.0000 0.66490  0.04110  0.18950  Biso   1.000  H
  N41      1.0000 0.24647  0.53083  0.63392  Biso   1.000  N
  N42      1.0000 0.14777  0.31013  0.57940  Biso   1.000  N
  N43      1.0000 0.23997  0.33973  0.58447  Biso   1.000  N
  N44      1.0000 0.12727  0.11903  0.53204  Biso   1.000  N
  C81      1.0000 0.19017  0.46083  0.61793  Biso   1.000  C
  C82      1.0000 0.10647  0.36863  0.59903  Biso   1.000  C
  C83      1.0000 0.27997  0.27673  0.56623  Biso   1.000  C
  C84      1.0000 0.19197  0.18633  0.54712  Biso   1.000  C
  C85      1.0000 0.05517  0.40493  0.57153  Biso   1.000  C
  H121     1.0000 0.00057  0.34443  0.55903  Biso   1.000  H
  H122     1.0000 0.02467  0.44173  0.58353  Biso   1.000  H
  H123     1.0000 0.10757  0.45163  0.55453  Biso   1.000  H
  C86      1.0000 0.02987  0.29243  0.62713  Biso   1.000  C
  H124     1.0000 0.97427  0.23123  0.61523  Biso   1.000  H
  H125     1.0000 0.06737  0.27083  0.64313  Biso   1.000  H
  H126     1.0000 0.99987  0.32723  0.64063  Biso   1.000  H
  C87      1.0000 0.32307  0.23723  0.59563  Biso   1.000  C
  H127     1.0000 0.38037  0.29663  0.60773  Biso   1.000  H
  H128     1.0000 0.26787  0.19633  0.61273  Biso   1.000  H
  H129     1.0000 0.34847  0.19373  0.58523  Biso   1.000  H
  C88      1.0000 0.36237  0.34763  0.53973  Biso   1.000  C
  H130     1.0000 0.41947  0.40583  0.55233  Biso   1.000  H
  H131     1.0000 0.38907  0.30833  0.52713  Biso   1.000  H
  H132     1.0000 0.33157  0.37443  0.52283  Biso   1.000  H
  N45      1.0000 0.91313  0.86417  0.96726  Biso   1.000  N
  N46      1.0000 0.81443  0.64347  0.91274  Biso   1.000  N
  N47      1.0000 0.90663  0.67307  0.91781  Biso   1.000  N
  N48      1.0000 0.79393  0.45237  0.86538  Biso   1.000  N
  C89      1.0000 0.85683  0.79417  0.95127  Biso   1.000  C
  C90      1.0000 0.77313  0.70197  0.93237  Biso   1.000  C
  C91      1.0000 0.94663  0.61007  0.89957  Biso   1.000  C
  C92      1.0000 0.85863  0.51967  0.88046  Biso   1.000  C
  C93      1.0000 0.72183  0.73827  0.90487  Biso   1.000  C
  H133     1.0000 0.66723  0.67777  0.89237  Biso   1.000  H
  H134     1.0000 0.69133  0.77507  0.91687  Biso   1.000  H
  H135     1.0000 0.77423  0.78497  0.88787  Biso   1.000  H
  C94      1.0000 0.69653  0.62577  0.96047  Biso   1.000  C
  H136     1.0000 0.64093  0.56457  0.94857  Biso   1.000  H
  H137     1.0000 0.73403  0.60417  0.97647  Biso   1.000  H
  H138     1.0000 0.66653  0.66057  0.97397  Biso   1.000  H
  C95      1.0000 0.98973  0.57057  0.92897  Biso   1.000  C
  H139     1.0000 0.04703  0.62997  0.94107  Biso   1.000  H
  H140     1.0000 0.93453  0.52967  0.94607  Biso   1.000  H
  H141     1.0000 0.01513  0.52707  0.91857  Biso   1.000  H
  C96      1.0000 0.02903  0.68097  0.87307  Biso   1.000  C
  H142     1.0000 0.08613  0.73917  0.88567  Biso   1.000  H
  H143     1.0000 0.05573  0.64167  0.86047  Biso   1.000  H
  H144     1.0000 0.99823  0.70777  0.85617  Biso   1.000  H
  N49      1.0000 0.80250  0.38230  0.30059  Biso   1.000  N
  N50      1.0000 0.02320  0.50430  0.24607  Biso   1.000  N
  N51      1.0000 0.99360  0.56690  0.25114  Biso   1.000  N
  N52      1.0000 0.21430  0.67490  0.19871  Biso   1.000  N
  C97      1.0000 0.87250  0.39600  0.28460  Biso   1.000  C
  C98      1.0000 0.96470  0.40450  0.26570  Biso   1.000  C
  C99      1.0000 0.05660  0.66990  0.23290  Biso   1.000  C
  C100     1.0000 0.14700  0.67230  0.21379  Biso   1.000  C
  C101     1.0000 0.92840  0.31690  0.23820  Biso   1.000  C
  H145     1.0000 0.98890  0.32280  0.22570  Biso   1.000  H
  H146     1.0000 0.89160  0.24960  0.25020  Biso   1.000  H
  H147     1.0000 0.88170  0.32260  0.22120  Biso   1.000  H
  C102     1.0000 0.04090  0.40410  0.29380  Biso   1.000  C
  H148     1.0000 0.10210  0.40970  0.28190  Biso   1.000  H
  H149     1.0000 0.06250  0.46320  0.30980  Biso   1.000  H
  H150     1.0000 0.00610  0.33930  0.30730  Biso   1.000  H
  C103     1.0000 0.09610  0.75250  0.26230  Biso   1.000  C
  H151     1.0000 0.03670  0.75040  0.27440  Biso   1.000  H
  H152     1.0000 0.13700  0.73820  0.27940  Biso   1.000  H
  H153     1.0000 0.13960  0.82140  0.25190  Biso   1.000  H
  C104     1.0000 0.98570  0.68140  0.20640  Biso   1.000  C
  H154     1.0000 0.92750  0.68030  0.21900  Biso   1.000  H
  H155     1.0000 0.02500  0.74740  0.19380  Biso   1.000  H
  H156     1.0000 0.95890  0.62380  0.18950  Biso   1.000  H
  N53      1.0000 0.46917  0.71563  0.63392  Biso   1.000  N
  N54      1.0000 0.68987  0.83763  0.57940  Biso   1.000  N
  N55      1.0000 0.66027  0.90023  0.58447  Biso   1.000  N
  N56      1.0000 0.88097  0.00823  0.53204  Biso   1.000  N
  C105     1.0000 0.53917  0.72933  0.61793  Biso   1.000  C
  C106     1.0000 0.63137  0.73783  0.59903  Biso   1.000  C
  C107     1.0000 0.72327  0.00323  0.56623  Biso   1.000  C
  C108     1.0000 0.81367  0.00563  0.54712  Biso   1.000  C
  C109     1.0000 0.59507  0.65023  0.57153  Biso   1.000  C
  H157     1.0000 0.65557  0.65613  0.55903  Biso   1.000  H
  H158     1.0000 0.55827  0.58293  0.58353  Biso   1.000  H
  H159     1.0000 0.54837  0.65593  0.55453  Biso   1.000  H
  C110     1.0000 0.70757  0.73743  0.62713  Biso   1.000  C
  H160     1.0000 0.76877  0.74303  0.61523  Biso   1.000  H
  H161     1.0000 0.72917  0.79653  0.64313  Biso   1.000  H
  H162     1.0000 0.67277  0.67263  0.64063  Biso   1.000  H
  C111     1.0000 0.76277  0.08583  0.59563  Biso   1.000  C
  H163     1.0000 0.70337  0.08373  0.60773  Biso   1.000  H
  H164     1.0000 0.80367  0.07153  0.61273  Biso   1.000  H
  H165     1.0000 0.80627  0.15473  0.58523  Biso   1.000  H
  C112     1.0000 0.65237  0.01473  0.53973  Biso   1.000  C
  H166     1.0000 0.59417  0.01363  0.55233  Biso   1.000  H
  H167     1.0000 0.69167  0.08073  0.52713  Biso   1.000  H
  H168     1.0000 0.62557  0.95713  0.52283  Biso   1.000  H
  N57      1.0000 0.13583  0.04897  0.96726  Biso   1.000  N
  N58      1.0000 0.35653  0.17097  0.91274  Biso   1.000  N
  N59      1.0000 0.32693  0.23357  0.91781  Biso   1.000  N
  N60      1.0000 0.54763  0.34157  0.86538  Biso   1.000  N
  C113     1.0000 0.20583  0.06267  0.95127  Biso   1.000  C
  C114     1.0000 0.29803  0.07117  0.93237  Biso   1.000  C
  C115     1.0000 0.38993  0.33657  0.89957  Biso   1.000  C
  C116     1.0000 0.48033  0.33897  0.88046  Biso   1.000  C
  C117     1.0000 0.26173  0.98357  0.90487  Biso   1.000  C
  H169     1.0000 0.32223  0.98947  0.89237  Biso   1.000  H
  H170     1.0000 0.22493  0.91627  0.91687  Biso   1.000  H
  H171     1.0000 0.21503  0.98927  0.88787  Biso   1.000  H
  C118     1.0000 0.37423  0.07077  0.96047  Biso   1.000  C
  H172     1.0000 0.43543  0.07637  0.94857  Biso   1.000  H
  H173     1.0000 0.39583  0.12987  0.97647  Biso   1.000  H
  H174     1.0000 0.33943  0.00597  0.97397  Biso   1.000  H
  C119     1.0000 0.42943  0.41917  0.92897  Biso   1.000  C
  H175     1.0000 0.37003  0.41707  0.94107  Biso   1.000  H
  H176     1.0000 0.47033  0.40487  0.94607  Biso   1.000  H
  H177     1.0000 0.47293  0.48807  0.91857  Biso   1.000  H
  C120     1.0000 0.31903  0.34807  0.87307  Biso   1.000  C
  H178     1.0000 0.26083  0.34697  0.88567  Biso   1.000  H
  H179     1.0000 0.35833  0.41407  0.86047  Biso   1.000  H
  H180     1.0000 0.29223  0.29047  0.85617  Biso   1.000  H
  N61      1.0000 0.61770  0.42020  0.30059  Biso   1.000  N
  N62      1.0000 0.49570  0.51890  0.24607  Biso   1.000  N
  N63      1.0000 0.43310  0.42670  0.25114  Biso   1.000  N
  N64      1.0000 0.32510  0.53940  0.19871  Biso   1.000  N
  C121     1.0000 0.60400  0.47650  0.28460  Biso   1.000  C
  C122     1.0000 0.59550  0.56020  0.26570  Biso   1.000  C
  C123     1.0000 0.33010  0.38670  0.23290  Biso   1.000  C
  C124     1.0000 0.32770  0.47470  0.21379  Biso   1.000  C
  C125     1.0000 0.68310  0.61150  0.23820  Biso   1.000  C
  H181     1.0000 0.67720  0.66610  0.22570  Biso   1.000  H
  H182     1.0000 0.75040  0.64200  0.25020  Biso   1.000  H
  H183     1.0000 0.67740  0.55910  0.22120  Biso   1.000  H
  C126     1.0000 0.59590  0.63680  0.29380  Biso   1.000  C
  H184     1.0000 0.59030  0.69240  0.28190  Biso   1.000  H
  H185     1.0000 0.53680  0.59930  0.30980  Biso   1.000  H
  H186     1.0000 0.66070  0.66680  0.30730  Biso   1.000  H
  C127     1.0000 0.24750  0.34360  0.26230  Biso   1.000  C
  H187     1.0000 0.24960  0.28630  0.27440  Biso   1.000  H
  H188     1.0000 0.26180  0.39880  0.27940  Biso   1.000  H
  H189     1.0000 0.17860  0.31820  0.25190  Biso   1.000  H
  C128     1.0000 0.31860  0.30430  0.20640  Biso   1.000  C
  H190     1.0000 0.31970  0.24720  0.21900  Biso   1.000  H
  H191     1.0000 0.25260  0.27760  0.19380  Biso   1.000  H
  H192     1.0000 0.37620  0.33510  0.18950  Biso   1.000  H
  N65      1.0000 0.28437  0.75353  0.63392  Biso   1.000  N
  N66      1.0000 0.16237  0.85223  0.57940  Biso   1.000  N
  N67      1.0000 0.09977  0.76003  0.58447  Biso   1.000  N
  N68      1.0000 0.99177  0.87273  0.53204  Biso   1.000  N
  C129     1.0000 0.27067  0.80983  0.61793  Biso   1.000  C
  C130     1.0000 0.26217  0.89353  0.59903  Biso   1.000  C
  C131     1.0000 0.99677  0.72003  0.56623  Biso   1.000  C
  C132     1.0000 0.99437  0.80803  0.54712  Biso   1.000  C
  C133     1.0000 0.34977  0.94483  0.57153  Biso   1.000  C
  H193     1.0000 0.34387  0.99943  0.55903  Biso   1.000  H
  H194     1.0000 0.41707  0.97533  0.58353  Biso   1.000  H
  H195     1.0000 0.34407  0.89243  0.55453  Biso   1.000  H
  C134     1.0000 0.26257  0.97013  0.62713  Biso   1.000  C
  H196     1.0000 0.25697  0.02573  0.61523  Biso   1.000  H
  H197     1.0000 0.20347  0.93263  0.64313  Biso   1.000  H
  H198     1.0000 0.32737  0.00013  0.64063  Biso   1.000  H
  C135     1.0000 0.91417  0.67693  0.59563  Biso   1.000  C
  H199     1.0000 0.91627  0.61963  0.60773  Biso   1.000  H
  H200     1.0000 0.92847  0.73213  0.61273  Biso   1.000  H
  H201     1.0000 0.84527  0.65153  0.58523  Biso   1.000  H
  C136     1.0000 0.98527  0.63763  0.53973  Biso   1.000  C
  H202     1.0000 0.98637  0.58053  0.55233  Biso   1.000  H
  H203     1.0000 0.91927  0.61093  0.52713  Biso   1.000  H
  H204     1.0000 0.04287  0.66843  0.52283  Biso   1.000  H
  N69      1.0000 0.95103  0.08687  0.96726  Biso   1.000  N
  N70      1.0000 0.82903  0.18557  0.91274  Biso   1.000  N
  N71      1.0000 0.76643  0.09337  0.91781  Biso   1.000  N
  N72      1.0000 0.65843  0.20607  0.86538  Biso   1.000  N
  C137     1.0000 0.93733  0.14317  0.95127  Biso   1.000  C
  C138     1.0000 0.92883  0.22687  0.93237  Biso   1.000  C
  C139     1.0000 0.66343  0.05337  0.89957  Biso   1.000  C
  C140     1.0000 0.66103  0.14137  0.88046  Biso   1.000  C
  C141     1.0000 0.01643  0.27817  0.90487  Biso   1.000  C
  H205     1.0000 0.01053  0.33277  0.89237  Biso   1.000  H
  H206     1.0000 0.08373  0.30867  0.91687  Biso   1.000  H
  H207     1.0000 0.01073  0.22577  0.88787  Biso   1.000  H
  C142     1.0000 0.92923  0.30347  0.96047  Biso   1.000  C
  H208     1.0000 0.92363  0.35907  0.94857  Biso   1.000  H
  H209     1.0000 0.87013  0.26597  0.97647  Biso   1.000  H
  H210     1.0000 0.99403  0.33347  0.97397  Biso   1.000  H
  C143     1.0000 0.58083  0.01027  0.92897  Biso   1.000  C
  H211     1.0000 0.58293  0.95297  0.94107  Biso   1.000  H
  H212     1.0000 0.59513  0.06547  0.94607  Biso   1.000  H
  H213     1.0000 0.51193  0.98487  0.91857  Biso   1.000  H
  C144     1.0000 0.65193  0.97097  0.87307  Biso   1.000  C
  H214     1.0000 0.65303  0.91387  0.88567  Biso   1.000  H
  H215     1.0000 0.58593  0.94427  0.86047  Biso   1.000  H
  H216     1.0000 0.70953  0.00177  0.85617  Biso   1.000  H
  Fe1      1.0000 0.33333  0.66667  0.66667  Biso   1.000  Fe
  Fe2      1.0000 0.00000  0.00000  0.00000  Biso   1.000  Fe
  Fe3      1.0000 0.66667  0.33333  0.33333  Biso   1.000  Fe
  Fe4      1.0000 0.66667  0.33333  0.83333  Biso   1.000  Fe
  Fe5      1.0000 0.33333  0.66667  0.16667  Biso   1.000  Fe
  Fe6      1.0000 0.00000  0.00000  0.50000  Biso   1.000  Fe
