data_image0
_cell_length_a       18.45
_cell_length_b       18.45
_cell_length_c       23.201
_cell_angle_alpha    90
_cell_angle_beta     90
_cell_angle_gamma    90

_symmetry_space_group_name_H-M    "P 1"
_symmetry_int_tables_number       1

loop_
  _symmetry_equiv_pos_as_xyz
  'x, y, z'

loop_
  _atom_site_label
  _atom_site_occupancy
  _atom_site_fract_x
  _atom_site_fract_y
  _atom_site_fract_z
  _atom_site_thermal_displace_type
  _atom_site_B_iso_or_equiv
  _atom_site_type_symbol
  Zn1      1.0000 0.73032  0.72482  0.97313  Biso   1.000  Zn
  C1       1.0000 0.54530  0.73500  0.85280  Biso   1.000  C
  C2       1.0000 0.50290  0.73110  0.90350  Biso   1.000  C
  H1       1.0000 0.52560  0.73260  0.93930  Biso   1.000  H
  C3       1.0000 0.42840  0.72510  0.90080  Biso   1.000  C
  C4       1.0000 0.39460  0.72470  0.84840  Biso   1.000  C
  H2       1.0000 0.34430  0.72140  0.84670  Biso   1.000  H
  C5       1.0000 0.43420  0.72900  0.79760  Biso   1.000  C
  C6       1.0000 0.50900  0.73340  0.80060  Biso   1.000  C
  H3       1.0000 0.53550  0.73540  0.76660  Biso   1.000  H
  C7       1.0000 0.38660  0.72300  0.95620  Biso   1.000  C
  C8       1.0000 0.39480  0.72830  0.74100  Biso   1.000  C
  O1       1.0000 0.65870  0.82220  0.86190  Biso   1.000  O
  O2       1.0000 0.66360  0.70240  0.91350  Biso   1.000  O
  O3       1.0000 0.67270  0.70710  0.80470  Biso   1.000  O
  O4       1.0000 0.31770  0.72140  0.95090  Biso   1.000  O
  O5       1.0000 0.41730  0.72740  0.00210  Biso   1.000  O
  O6       1.0000 0.32920  0.72030  0.74240  Biso   1.000  O
  O7       1.0000 0.43220  0.73960  0.69570  Biso   1.000  O
  P1       1.0000 0.64134  0.74269  0.85834  Biso   1.000  P
  Zn2      1.0000 0.23032  0.22482  0.47313  Biso   1.000  Zn
  C9       1.0000 0.04530  0.23500  0.35280  Biso   1.000  C
  C10      1.0000 0.00290  0.23110  0.40350  Biso   1.000  C
  H4       1.0000 0.02560  0.23260  0.43930  Biso   1.000  H
  C11      1.0000 0.92840  0.22510  0.40080  Biso   1.000  C
  C12      1.0000 0.89460  0.22470  0.34840  Biso   1.000  C
  H5       1.0000 0.84430  0.22140  0.34670  Biso   1.000  H
  C13      1.0000 0.93420  0.22900  0.29760  Biso   1.000  C
  C14      1.0000 0.00900  0.23340  0.30060  Biso   1.000  C
  H6       1.0000 0.03550  0.23540  0.26660  Biso   1.000  H
  C15      1.0000 0.88660  0.22300  0.45620  Biso   1.000  C
  C16      1.0000 0.89480  0.22830  0.24100  Biso   1.000  C
  O8       1.0000 0.15870  0.32220  0.36190  Biso   1.000  O
  O9       1.0000 0.16360  0.20240  0.41350  Biso   1.000  O
  O10      1.0000 0.17270  0.20710  0.30470  Biso   1.000  O
  O11      1.0000 0.81770  0.22140  0.45090  Biso   1.000  O
  O12      1.0000 0.91730  0.22740  0.50210  Biso   1.000  O
  O13      1.0000 0.82920  0.22030  0.24240  Biso   1.000  O
  O14      1.0000 0.93220  0.23960  0.19570  Biso   1.000  O
  P2       1.0000 0.14134  0.24269  0.35834  Biso   1.000  P
  Zn3      1.0000 0.26968  0.27518  0.97313  Biso   1.000  Zn
  C17      1.0000 0.45470  0.26500  0.85280  Biso   1.000  C
  C18      1.0000 0.49710  0.26890  0.90350  Biso   1.000  C
  H7       1.0000 0.47440  0.26740  0.93930  Biso   1.000  H
  C19      1.0000 0.57160  0.27490  0.90080  Biso   1.000  C
  C20      1.0000 0.60540  0.27530  0.84840  Biso   1.000  C
  H8       1.0000 0.65570  0.27860  0.84670  Biso   1.000  H
  C21      1.0000 0.56580  0.27100  0.79760  Biso   1.000  C
  C22      1.0000 0.49100  0.26660  0.80060  Biso   1.000  C
  H9       1.0000 0.46450  0.26460  0.76660  Biso   1.000  H
  C23      1.0000 0.61340  0.27700  0.95620  Biso   1.000  C
  C24      1.0000 0.60520  0.27170  0.74100  Biso   1.000  C
  O15      1.0000 0.34130  0.17780  0.86190  Biso   1.000  O
  O16      1.0000 0.33640  0.29760  0.91350  Biso   1.000  O
  O17      1.0000 0.32730  0.29290  0.80470  Biso   1.000  O
  O18      1.0000 0.68230  0.27860  0.95090  Biso   1.000  O
  O19      1.0000 0.58270  0.27260  0.00210  Biso   1.000  O
  O20      1.0000 0.67080  0.27970  0.74240  Biso   1.000  O
  O21      1.0000 0.56780  0.26040  0.69570  Biso   1.000  O
  P3       1.0000 0.35866  0.25731  0.85834  Biso   1.000  P
  Zn4      1.0000 0.76968  0.77518  0.47313  Biso   1.000  Zn
  C25      1.0000 0.95470  0.76500  0.35280  Biso   1.000  C
  C26      1.0000 0.99710  0.76890  0.40350  Biso   1.000  C
  H10      1.0000 0.97440  0.76740  0.43930  Biso   1.000  H
  C27      1.0000 0.07160  0.77490  0.40080  Biso   1.000  C
  C28      1.0000 0.10540  0.77530  0.34840  Biso   1.000  C
  H11      1.0000 0.15570  0.77860  0.34670  Biso   1.000  H
  C29      1.0000 0.06580  0.77100  0.29760  Biso   1.000  C
  C30      1.0000 0.99100  0.76660  0.30060  Biso   1.000  C
  H12      1.0000 0.96450  0.76460  0.26660  Biso   1.000  H
  C31      1.0000 0.11340  0.77700  0.45620  Biso   1.000  C
  C32      1.0000 0.10520  0.77170  0.24100  Biso   1.000  C
  O22      1.0000 0.84130  0.67780  0.36190  Biso   1.000  O
  O23      1.0000 0.83640  0.79760  0.41350  Biso   1.000  O
  O24      1.0000 0.82730  0.79290  0.30470  Biso   1.000  O
  O25      1.0000 0.18230  0.77860  0.45090  Biso   1.000  O
  O26      1.0000 0.08270  0.77260  0.50210  Biso   1.000  O
  O27      1.0000 0.17080  0.77970  0.24240  Biso   1.000  O
  O28      1.0000 0.06780  0.76040  0.19570  Biso   1.000  O
  P4       1.0000 0.85866  0.75731  0.35834  Biso   1.000  P
  Zn5      1.0000 0.72482  0.26968  0.02687  Biso   1.000  Zn
  C33      1.0000 0.73500  0.45470  0.14720  Biso   1.000  C
  C34      1.0000 0.73110  0.49710  0.09650  Biso   1.000  C
  H13      1.0000 0.73260  0.47440  0.06070  Biso   1.000  H
  C35      1.0000 0.72510  0.57160  0.09920  Biso   1.000  C
  C36      1.0000 0.72470  0.60540  0.15160  Biso   1.000  C
  H14      1.0000 0.72140  0.65570  0.15330  Biso   1.000  H
  C37      1.0000 0.72900  0.56580  0.20240  Biso   1.000  C
  C38      1.0000 0.73340  0.49100  0.19940  Biso   1.000  C
  H15      1.0000 0.73540  0.46450  0.23340  Biso   1.000  H
  C39      1.0000 0.72300  0.61340  0.04380  Biso   1.000  C
  C40      1.0000 0.72830  0.60520  0.25900  Biso   1.000  C
  O29      1.0000 0.82220  0.34130  0.13810  Biso   1.000  O
  O30      1.0000 0.70240  0.33640  0.08650  Biso   1.000  O
  O31      1.0000 0.70710  0.32730  0.19530  Biso   1.000  O
  O32      1.0000 0.72140  0.68230  0.04910  Biso   1.000  O
  O33      1.0000 0.72740  0.58270  0.99790  Biso   1.000  O
  O34      1.0000 0.72030  0.67080  0.25760  Biso   1.000  O
  O35      1.0000 0.73960  0.56780  0.30430  Biso   1.000  O
  P5       1.0000 0.74269  0.35866  0.14166  Biso   1.000  P
  Zn6      1.0000 0.22482  0.76968  0.52687  Biso   1.000  Zn
  C41      1.0000 0.23500  0.95470  0.64720  Biso   1.000  C
  C42      1.0000 0.23110  0.99710  0.59650  Biso   1.000  C
  H16      1.0000 0.23260  0.97440  0.56070  Biso   1.000  H
  C43      1.0000 0.22510  0.07160  0.59920  Biso   1.000  C
  C44      1.0000 0.22470  0.10540  0.65160  Biso   1.000  C
  H17      1.0000 0.22140  0.15570  0.65330  Biso   1.000  H
  C45      1.0000 0.22900  0.06580  0.70240  Biso   1.000  C
  C46      1.0000 0.23340  0.99100  0.69940  Biso   1.000  C
  H18      1.0000 0.23540  0.96450  0.73340  Biso   1.000  H
  C47      1.0000 0.22300  0.11340  0.54380  Biso   1.000  C
  C48      1.0000 0.22830  0.10520  0.75900  Biso   1.000  C
  O36      1.0000 0.32220  0.84130  0.63810  Biso   1.000  O
  O37      1.0000 0.20240  0.83640  0.58650  Biso   1.000  O
  O38      1.0000 0.20710  0.82730  0.69530  Biso   1.000  O
  O39      1.0000 0.22140  0.18230  0.54910  Biso   1.000  O
  O40      1.0000 0.22740  0.08270  0.49790  Biso   1.000  O
  O41      1.0000 0.22030  0.17080  0.75760  Biso   1.000  O
  O42      1.0000 0.23960  0.06780  0.80430  Biso   1.000  O
  P6       1.0000 0.24269  0.85866  0.64166  Biso   1.000  P
  Zn7      1.0000 0.27518  0.73032  0.02687  Biso   1.000  Zn
  C49      1.0000 0.26500  0.54530  0.14720  Biso   1.000  C
  C50      1.0000 0.26890  0.50290  0.09650  Biso   1.000  C
  H19      1.0000 0.26740  0.52560  0.06070  Biso   1.000  H
  C51      1.0000 0.27490  0.42840  0.09920  Biso   1.000  C
  C52      1.0000 0.27530  0.39460  0.15160  Biso   1.000  C
  H20      1.0000 0.27860  0.34430  0.15330  Biso   1.000  H
  C53      1.0000 0.27100  0.43420  0.20240  Biso   1.000  C
  C54      1.0000 0.26660  0.50900  0.19940  Biso   1.000  C
  H21      1.0000 0.26460  0.53550  0.23340  Biso   1.000  H
  C55      1.0000 0.27700  0.38660  0.04380  Biso   1.000  C
  C56      1.0000 0.27170  0.39480  0.25900  Biso   1.000  C
  O43      1.0000 0.17780  0.65870  0.13810  Biso   1.000  O
  O44      1.0000 0.29760  0.66360  0.08650  Biso   1.000  O
  O45      1.0000 0.29290  0.67270  0.19530  Biso   1.000  O
  O46      1.0000 0.27860  0.31770  0.04910  Biso   1.000  O
  O47      1.0000 0.27260  0.41730  0.99790  Biso   1.000  O
  O48      1.0000 0.27970  0.32920  0.25760  Biso   1.000  O
  O49      1.0000 0.26040  0.43220  0.30430  Biso   1.000  O
  P7       1.0000 0.25731  0.64134  0.14166  Biso   1.000  P
  Zn8      1.0000 0.77518  0.23032  0.52687  Biso   1.000  Zn
  C57      1.0000 0.76500  0.04530  0.64720  Biso   1.000  C
  C58      1.0000 0.76890  0.00290  0.59650  Biso   1.000  C
  H22      1.0000 0.76740  0.02560  0.56070  Biso   1.000  H
  C59      1.0000 0.77490  0.92840  0.59920  Biso   1.000  C
  C60      1.0000 0.77530  0.89460  0.65160  Biso   1.000  C
  H23      1.0000 0.77860  0.84430  0.65330  Biso   1.000  H
  C61      1.0000 0.77100  0.93420  0.70240  Biso   1.000  C
  C62      1.0000 0.76660  0.00900  0.69940  Biso   1.000  C
  H24      1.0000 0.76460  0.03550  0.73340  Biso   1.000  H
  C63      1.0000 0.77700  0.88660  0.54380  Biso   1.000  C
  C64      1.0000 0.77170  0.89480  0.75900  Biso   1.000  C
  O50      1.0000 0.67780  0.15870  0.63810  Biso   1.000  O
  O51      1.0000 0.79760  0.16360  0.58650  Biso   1.000  O
  O52      1.0000 0.79290  0.17270  0.69530  Biso   1.000  O
  O53      1.0000 0.77860  0.81770  0.54910  Biso   1.000  O
  O54      1.0000 0.77260  0.91730  0.49790  Biso   1.000  O
  O55      1.0000 0.77970  0.82920  0.75760  Biso   1.000  O
  O56      1.0000 0.76040  0.93220  0.80430  Biso   1.000  O
  P8       1.0000 0.75731  0.14134  0.64166  Biso   1.000  P
  Zn9      1.0000 0.76968  0.72482  0.77687  Biso   1.000  Zn
  C65      1.0000 0.95470  0.73500  0.89720  Biso   1.000  C
  C66      1.0000 0.99710  0.73110  0.84650  Biso   1.000  C
  H25      1.0000 0.97440  0.73260  0.81070  Biso   1.000  H
  C67      1.0000 0.07160  0.72510  0.84920  Biso   1.000  C
  C68      1.0000 0.10540  0.72470  0.90160  Biso   1.000  C
  H26      1.0000 0.15570  0.72140  0.90330  Biso   1.000  H
  C69      1.0000 0.06580  0.72900  0.95240  Biso   1.000  C
  C70      1.0000 0.99100  0.73340  0.94940  Biso   1.000  C
  H27      1.0000 0.96450  0.73540  0.98340  Biso   1.000  H
  C71      1.0000 0.11340  0.72300  0.79380  Biso   1.000  C
  C72      1.0000 0.10520  0.72830  0.00900  Biso   1.000  C
  O57      1.0000 0.84130  0.82220  0.88810  Biso   1.000  O
  O58      1.0000 0.83640  0.70240  0.83650  Biso   1.000  O
  O59      1.0000 0.82730  0.70710  0.94530  Biso   1.000  O
  O60      1.0000 0.18230  0.72140  0.79910  Biso   1.000  O
  O61      1.0000 0.08270  0.72740  0.74790  Biso   1.000  O
  O62      1.0000 0.17080  0.72030  0.00760  Biso   1.000  O
  O63      1.0000 0.06780  0.73960  0.05430  Biso   1.000  O
  P9       1.0000 0.85866  0.74269  0.89166  Biso   1.000  P
  Zn10     1.0000 0.26968  0.22482  0.27687  Biso   1.000  Zn
  C73      1.0000 0.45470  0.23500  0.39720  Biso   1.000  C
  C74      1.0000 0.49710  0.23110  0.34650  Biso   1.000  C
  H28      1.0000 0.47440  0.23260  0.31070  Biso   1.000  H
  C75      1.0000 0.57160  0.22510  0.34920  Biso   1.000  C
  C76      1.0000 0.60540  0.22470  0.40160  Biso   1.000  C
  H29      1.0000 0.65570  0.22140  0.40330  Biso   1.000  H
  C77      1.0000 0.56580  0.22900  0.45240  Biso   1.000  C
  C78      1.0000 0.49100  0.23340  0.44940  Biso   1.000  C
  H30      1.0000 0.46450  0.23540  0.48340  Biso   1.000  H
  C79      1.0000 0.61340  0.22300  0.29380  Biso   1.000  C
  C80      1.0000 0.60520  0.22830  0.50900  Biso   1.000  C
  O64      1.0000 0.34130  0.32220  0.38810  Biso   1.000  O
  O65      1.0000 0.33640  0.20240  0.33650  Biso   1.000  O
  O66      1.0000 0.32730  0.20710  0.44530  Biso   1.000  O
  O67      1.0000 0.68230  0.22140  0.29910  Biso   1.000  O
  O68      1.0000 0.58270  0.22740  0.24790  Biso   1.000  O
  O69      1.0000 0.67080  0.22030  0.50760  Biso   1.000  O
  O70      1.0000 0.56780  0.23960  0.55430  Biso   1.000  O
  P10      1.0000 0.35866  0.24269  0.39166  Biso   1.000  P
  Zn11     1.0000 0.23032  0.27518  0.77687  Biso   1.000  Zn
  C81      1.0000 0.04530  0.26500  0.89720  Biso   1.000  C
  C82      1.0000 0.00290  0.26890  0.84650  Biso   1.000  C
  H31      1.0000 0.02560  0.26740  0.81070  Biso   1.000  H
  C83      1.0000 0.92840  0.27490  0.84920  Biso   1.000  C
  C84      1.0000 0.89460  0.27530  0.90160  Biso   1.000  C
  H32      1.0000 0.84430  0.27860  0.90330  Biso   1.000  H
  C85      1.0000 0.93420  0.27100  0.95240  Biso   1.000  C
  C86      1.0000 0.00900  0.26660  0.94940  Biso   1.000  C
  H33      1.0000 0.03550  0.26460  0.98340  Biso   1.000  H
  C87      1.0000 0.88660  0.27700  0.79380  Biso   1.000  C
  C88      1.0000 0.89480  0.27170  0.00900  Biso   1.000  C
  O71      1.0000 0.15870  0.17780  0.88810  Biso   1.000  O
  O72      1.0000 0.16360  0.29760  0.83650  Biso   1.000  O
  O73      1.0000 0.17270  0.29290  0.94530  Biso   1.000  O
  O74      1.0000 0.81770  0.27860  0.79910  Biso   1.000  O
  O75      1.0000 0.91730  0.27260  0.74790  Biso   1.000  O
  O76      1.0000 0.82920  0.27970  0.00760  Biso   1.000  O
  O77      1.0000 0.93220  0.26040  0.05430  Biso   1.000  O
  P11      1.0000 0.14134  0.25731  0.89166  Biso   1.000  P
  Zn12     1.0000 0.73032  0.77518  0.27687  Biso   1.000  Zn
  C89      1.0000 0.54530  0.76500  0.39720  Biso   1.000  C
  C90      1.0000 0.50290  0.76890  0.34650  Biso   1.000  C
  H34      1.0000 0.52560  0.76740  0.31070  Biso   1.000  H
  C91      1.0000 0.42840  0.77490  0.34920  Biso   1.000  C
  C92      1.0000 0.39460  0.77530  0.40160  Biso   1.000  C
  H35      1.0000 0.34430  0.77860  0.40330  Biso   1.000  H
  C93      1.0000 0.43420  0.77100  0.45240  Biso   1.000  C
  C94      1.0000 0.50900  0.76660  0.44940  Biso   1.000  C
  H36      1.0000 0.53550  0.76460  0.48340  Biso   1.000  H
  C95      1.0000 0.38660  0.77700  0.29380  Biso   1.000  C
  C96      1.0000 0.39480  0.77170  0.50900  Biso   1.000  C
  O78      1.0000 0.65870  0.67780  0.38810  Biso   1.000  O
  O79      1.0000 0.66360  0.79760  0.33650  Biso   1.000  O
  O80      1.0000 0.67270  0.79290  0.44530  Biso   1.000  O
  O81      1.0000 0.31770  0.77860  0.29910  Biso   1.000  O
  O82      1.0000 0.41730  0.77260  0.24790  Biso   1.000  O
  O83      1.0000 0.32920  0.77970  0.50760  Biso   1.000  O
  O84      1.0000 0.43220  0.76040  0.55430  Biso   1.000  O
  P12      1.0000 0.64134  0.75731  0.39166  Biso   1.000  P
  Zn13     1.0000 0.77518  0.26968  0.72313  Biso   1.000  Zn
  C97      1.0000 0.76500  0.45470  0.60280  Biso   1.000  C
  C98      1.0000 0.76890  0.49710  0.65350  Biso   1.000  C
  H37      1.0000 0.76740  0.47440  0.68930  Biso   1.000  H
  C99      1.0000 0.77490  0.57160  0.65080  Biso   1.000  C
  C100     1.0000 0.77530  0.60540  0.59840  Biso   1.000  C
  H38      1.0000 0.77860  0.65570  0.59670  Biso   1.000  H
  C101     1.0000 0.77100  0.56580  0.54760  Biso   1.000  C
  C102     1.0000 0.76660  0.49100  0.55060  Biso   1.000  C
  H39      1.0000 0.76460  0.46450  0.51660  Biso   1.000  H
  C103     1.0000 0.77700  0.61340  0.70620  Biso   1.000  C
  C104     1.0000 0.77170  0.60520  0.49100  Biso   1.000  C
  O85      1.0000 0.67780  0.34130  0.61190  Biso   1.000  O
  O86      1.0000 0.79760  0.33640  0.66350  Biso   1.000  O
  O87      1.0000 0.79290  0.32730  0.55470  Biso   1.000  O
  O88      1.0000 0.77860  0.68230  0.70090  Biso   1.000  O
  O89      1.0000 0.77260  0.58270  0.75210  Biso   1.000  O
  O90      1.0000 0.77970  0.67080  0.49240  Biso   1.000  O
  O91      1.0000 0.76040  0.56780  0.44570  Biso   1.000  O
  P13      1.0000 0.75731  0.35866  0.60834  Biso   1.000  P
  Zn14     1.0000 0.27518  0.76968  0.22313  Biso   1.000  Zn
  C105     1.0000 0.26500  0.95470  0.10280  Biso   1.000  C
  C106     1.0000 0.26890  0.99710  0.15350  Biso   1.000  C
  H40      1.0000 0.26740  0.97440  0.18930  Biso   1.000  H
  C107     1.0000 0.27490  0.07160  0.15080  Biso   1.000  C
  C108     1.0000 0.27530  0.10540  0.09840  Biso   1.000  C
  H41      1.0000 0.27860  0.15570  0.09670  Biso   1.000  H
  C109     1.0000 0.27100  0.06580  0.04760  Biso   1.000  C
  C110     1.0000 0.26660  0.99100  0.05060  Biso   1.000  C
  H42      1.0000 0.26460  0.96450  0.01660  Biso   1.000  H
  C111     1.0000 0.27700  0.11340  0.20620  Biso   1.000  C
  C112     1.0000 0.27170  0.10520  0.99100  Biso   1.000  C
  O92      1.0000 0.17780  0.84130  0.11190  Biso   1.000  O
  O93      1.0000 0.29760  0.83640  0.16350  Biso   1.000  O
  O94      1.0000 0.29290  0.82730  0.05470  Biso   1.000  O
  O95      1.0000 0.27860  0.18230  0.20090  Biso   1.000  O
  O96      1.0000 0.27260  0.08270  0.25210  Biso   1.000  O
  O97      1.0000 0.27970  0.17080  0.99240  Biso   1.000  O
  O98      1.0000 0.26040  0.06780  0.94570  Biso   1.000  O
  P14      1.0000 0.25731  0.85866  0.10834  Biso   1.000  P
  Zn15     1.0000 0.22482  0.73032  0.72313  Biso   1.000  Zn
  C113     1.0000 0.23500  0.54530  0.60280  Biso   1.000  C
  C114     1.0000 0.23110  0.50290  0.65350  Biso   1.000  C
  H43      1.0000 0.23260  0.52560  0.68930  Biso   1.000  H
  C115     1.0000 0.22510  0.42840  0.65080  Biso   1.000  C
  C116     1.0000 0.22470  0.39460  0.59840  Biso   1.000  C
  H44      1.0000 0.22140  0.34430  0.59670  Biso   1.000  H
  C117     1.0000 0.22900  0.43420  0.54760  Biso   1.000  C
  C118     1.0000 0.23340  0.50900  0.55060  Biso   1.000  C
  H45      1.0000 0.23540  0.53550  0.51660  Biso   1.000  H
  C119     1.0000 0.22300  0.38660  0.70620  Biso   1.000  C
  C120     1.0000 0.22830  0.39480  0.49100  Biso   1.000  C
  O99      1.0000 0.32220  0.65870  0.61190  Biso   1.000  O
  O100     1.0000 0.20240  0.66360  0.66350  Biso   1.000  O
  O101     1.0000 0.20710  0.67270  0.55470  Biso   1.000  O
  O102     1.0000 0.22140  0.31770  0.70090  Biso   1.000  O
  O103     1.0000 0.22740  0.41730  0.75210  Biso   1.000  O
  O104     1.0000 0.22030  0.32920  0.49240  Biso   1.000  O
  O105     1.0000 0.23960  0.43220  0.44570  Biso   1.000  O
  P15      1.0000 0.24269  0.64134  0.60834  Biso   1.000  P
  Zn16     1.0000 0.72482  0.23032  0.22313  Biso   1.000  Zn
  C121     1.0000 0.73500  0.04530  0.10280  Biso   1.000  C
  C122     1.0000 0.73110  0.00290  0.15350  Biso   1.000  C
  H46      1.0000 0.73260  0.02560  0.18930  Biso   1.000  H
  C123     1.0000 0.72510  0.92840  0.15080  Biso   1.000  C
  C124     1.0000 0.72470  0.89460  0.09840  Biso   1.000  C
  H47      1.0000 0.72140  0.84430  0.09670  Biso   1.000  H
  C125     1.0000 0.72900  0.93420  0.04760  Biso   1.000  C
  C126     1.0000 0.73340  0.00900  0.05060  Biso   1.000  C
  H48      1.0000 0.73540  0.03550  0.01660  Biso   1.000  H
  C127     1.0000 0.72300  0.88660  0.20620  Biso   1.000  C
  C128     1.0000 0.72830  0.89480  0.99100  Biso   1.000  C
  O106     1.0000 0.82220  0.15870  0.11190  Biso   1.000  O
  O107     1.0000 0.70240  0.16360  0.16350  Biso   1.000  O
  O108     1.0000 0.70710  0.17270  0.05470  Biso   1.000  O
  O109     1.0000 0.72140  0.81770  0.20090  Biso   1.000  O
  O110     1.0000 0.72740  0.91730  0.25210  Biso   1.000  O
  O111     1.0000 0.72030  0.82920  0.99240  Biso   1.000  O
  O112     1.0000 0.73960  0.93220  0.94570  Biso   1.000  O
  P16      1.0000 0.74269  0.14134  0.10834  Biso   1.000  P
  Zn17     1.0000 0.75000  0.87295  0.87500  Biso   1.000  Zn
  Zn18     1.0000 0.25000  0.37295  0.37500  Biso   1.000  Zn
  Zn19     1.0000 0.25000  0.12705  0.87500  Biso   1.000  Zn
  Zn20     1.0000 0.75000  0.62705  0.37500  Biso   1.000  Zn
  Zn21     1.0000 0.87295  0.25000  0.12500  Biso   1.000  Zn
  Zn22     1.0000 0.12705  0.75000  0.12500  Biso   1.000  Zn
  Zn23     1.0000 0.62705  0.25000  0.62500  Biso   1.000  Zn
  Zn24     1.0000 0.37295  0.75000  0.62500  Biso   1.000  Zn
