data_image0
_cell_length_a       10.9464
_cell_length_b       15.9076
_cell_length_c       16.1604
_cell_angle_alpha    89.592
_cell_angle_beta     89.682
_cell_angle_gamma    86.288

_symmetry_space_group_name_H-M    "P 1"
_symmetry_int_tables_number       1

loop_
  _symmetry_equiv_pos_as_xyz
  'x, y, z'

loop_
  _atom_site_label
  _atom_site_occupancy
  _atom_site_fract_x
  _atom_site_fract_y
  _atom_site_fract_z
  _atom_site_thermal_displace_type
  _atom_site_B_iso_or_equiv
  _atom_site_type_symbol
  Fe1      1.0000 0.97332  0.27936  0.24760  Biso   1.000  Fe
  N1       1.0000 0.01030  0.20069  0.14052  Biso   1.000  N
  N2       1.0000 0.98830  0.02749  0.02612  Biso   1.000  N
  N3       1.0000 0.93940  0.35747  0.35440  Biso   1.000  N
  N4       1.0000 0.96710  0.48743  0.52769  Biso   1.000  N
  N5       1.0000 0.95330  0.16981  0.32284  Biso   1.000  N
  N6       1.0000 0.99950  0.03318  0.48014  Biso   1.000  N
  N7       1.0000 0.99930  0.38767  0.17369  Biso   1.000  N
  N8       1.0000 0.04230  0.52230  0.00743  Biso   1.000  N
  N9       1.0000 0.16700  0.27182  0.27730  Biso   1.000  N
  N10      1.0000 0.48830  0.26432  0.28773  Biso   1.000  N
  N11      1.0000 0.77960  0.28212  0.22095  Biso   1.000  N
  N12      1.0000 0.45990  0.26284  0.21458  Biso   1.000  N
  C1       1.0000 0.03620  0.15610  0.08690  Biso   1.000  C
  C2       1.0000 0.06710  0.10030  0.01420  Biso   1.000  C
  C3       1.0000 0.20380  0.07360  0.01380  Biso   1.000  C
  H1       1.0000 0.22630  0.04710  0.06760  Biso   1.000  H
  H2       1.0000 0.22110  0.03120  0.97000  Biso   1.000  H
  C4       1.0000 0.28110  0.14750  0.99870  Biso   1.000  C
  H3       1.0000 0.36840  0.12720  0.99590  Biso   1.000  H
  H4       1.0000 0.27080  0.18700  0.04560  Biso   1.000  H
  C5       1.0000 0.24600  0.19390  0.91870  Biso   1.000  C
  H5       1.0000 0.29470  0.24390  0.91270  Biso   1.000  H
  H6       1.0000 0.26500  0.15640  0.87110  Biso   1.000  H
  C6       1.0000 0.11100  0.22140  0.91860  Biso   1.000  C
  H7       1.0000 0.08950  0.24750  0.86440  Biso   1.000  H
  H8       1.0000 0.09470  0.26460  0.96170  Biso   1.000  H
  C7       1.0000 0.03040  0.14870  0.93460  Biso   1.000  C
  H9       1.0000 0.03700  0.10970  0.88710  Biso   1.000  H
  H10      1.0000 0.94400  0.17080  0.93920  Biso   1.000  H
  C8       1.0000 0.92270  0.38692  0.41810  Biso   1.000  C
  C9       1.0000 0.89840  0.41333  0.50472  Biso   1.000  C
  C10      1.0000 0.94110  0.33930  0.56207  Biso   1.000  C
  H11      1.0000 0.02700  0.32100  0.54860  Biso   1.000  H
  H12      1.0000 0.93820  0.35860  0.62020  Biso   1.000  H
  C11      1.0000 0.86130  0.26490  0.55310  Biso   1.000  C
  H13      1.0000 0.87210  0.24120  0.49690  Biso   1.000  H
  H14      1.0000 0.88770  0.22040  0.59350  Biso   1.000  H
  C12      1.0000 0.72740  0.29100  0.56740  Biso   1.000  C
  H15      1.0000 0.71510  0.30860  0.62560  Biso   1.000  H
  H16      1.0000 0.67780  0.24220  0.55770  Biso   1.000  H
  C13      1.0000 0.68410  0.36290  0.51050  Biso   1.000  C
  H17      1.0000 0.59820  0.38080  0.52430  Biso   1.000  H
  H18      1.0000 0.68630  0.34280  0.45260  Biso   1.000  H
  C14      1.0000 0.76230  0.43830  0.51720  Biso   1.000  C
  H19      1.0000 0.74980  0.46410  0.57240  Biso   1.000  H
  H20      1.0000 0.73560  0.48100  0.47510  Biso   1.000  H
  C15      1.0000 0.94280  0.10890  0.35874  Biso   1.000  C
  C16      1.0000 0.91810  0.03100  0.40578  Biso   1.000  C
  C17      1.0000 0.94580  0.95300  0.35290  Biso   1.000  C
  H21      1.0000 0.93680  0.90190  0.38720  Biso   1.000  H
  H22      1.0000 0.03160  0.95200  0.33310  Biso   1.000  H
  C18      1.0000 0.86010  0.95170  0.27880  Biso   1.000  C
  H23      1.0000 0.87620  0.99900  0.24100  Biso   1.000  H
  H24      1.0000 0.87670  0.89850  0.24810  Biso   1.000  H
  C19      1.0000 0.72720  0.95910  0.30570  Biso   1.000  C
  H25      1.0000 0.70860  0.90810  0.33760  Biso   1.000  H
  H26      1.0000 0.67440  0.96220  0.25610  Biso   1.000  H
  C20      1.0000 0.69850  0.03690  0.35870  Biso   1.000  C
  H27      1.0000 0.70660  0.08810  0.32450  Biso   1.000  H
  H28      1.0000 0.61270  0.03720  0.37850  Biso   1.000  H
  C21      1.0000 0.78340  0.03910  0.43270  Biso   1.000  C
  H29      1.0000 0.76690  0.99240  0.47110  Biso   1.000  H
  H30      1.0000 0.76680  0.09270  0.46260  Biso   1.000  H
  C22      1.0000 0.03640  0.44210  0.13684  Biso   1.000  C
  C23      1.0000 0.09460  0.51032  0.09147  Biso   1.000  C
  C24      1.0000 0.23170  0.48620  0.08380  Biso   1.000  C
  H31      1.0000 0.24350  0.42890  0.06050  Biso   1.000  H
  H32      1.0000 0.26910  0.52570  0.04500  Biso   1.000  H
  C25      1.0000 0.29600  0.48840  0.16680  Biso   1.000  C
  H33      1.0000 0.26740  0.44300  0.20280  Biso   1.000  H
  H34      1.0000 0.38520  0.47750  0.15810  Biso   1.000  H
  C26      1.0000 0.27230  0.57230  0.20980  Biso   1.000  C
  H35      1.0000 0.30970  0.61690  0.17720  Biso   1.000  H
  H36      1.0000 0.31120  0.56960  0.26500  Biso   1.000  H
  C27      1.0000 0.13600  0.59440  0.21970  Biso   1.000  C
  H37      1.0000 0.12330  0.65090  0.24480  Biso   1.000  H
  H38      1.0000 0.10050  0.55310  0.25750  Biso   1.000  H
  C28      1.0000 0.07050  0.59405  0.13666  Biso   1.000  C
  H39      1.0000 0.09850  0.64030  0.10150  Biso   1.000  H
  H40      1.0000 0.98130  0.60450  0.14590  Biso   1.000  H
  C29      1.0000 0.26370  0.26483  0.30367  Biso   1.000  C
  C30      1.0000 0.38380  0.25949  0.34614  Biso   1.000  C
  C31      1.0000 0.40420  0.17510  0.39200  Biso   1.000  C
  H41      1.0000 0.39430  0.12870  0.35270  Biso   1.000  H
  H42      1.0000 0.48920  0.16960  0.41300  Biso   1.000  H
  C32      1.0000 0.31630  0.16660  0.46380  Biso   1.000  C
  H43      1.0000 0.33780  0.11330  0.49390  Biso   1.000  H
  H44      1.0000 0.23220  0.16390  0.44220  Biso   1.000  H
  C33      1.0000 0.31950  0.23990  0.52340  Biso   1.000  C
  H45      1.0000 0.25670  0.23430  0.56700  Biso   1.000  H
  H46      1.0000 0.40060  0.23850  0.55040  Biso   1.000  H
  C34      1.0000 0.29580  0.32320  0.47880  Biso   1.000  C
  H47      1.0000 0.30340  0.36970  0.51850  Biso   1.000  H
  H48      1.0000 0.21100  0.32720  0.45750  Biso   1.000  H
  C35      1.0000 0.38500  0.33360  0.40682  Biso   1.000  C
  H49      1.0000 0.46880  0.33710  0.42880  Biso   1.000  H
  H50      1.0000 0.36240  0.38690  0.37700  Biso   1.000  H
  C36      1.0000 0.68300  0.27394  0.19701  Biso   1.000  C
  C37      1.0000 0.56530  0.25946  0.15616  Biso   1.000  C
  C38      1.0000 0.57430  0.17020  0.11990  Biso   1.000  C
  H51      1.0000 0.60210  0.12950  0.16360  Biso   1.000  H
  H52      1.0000 0.49210  0.15570  0.10180  Biso   1.000  H
  C39      1.0000 0.66270  0.16220  0.04670  Biso   1.000  C
  H53      1.0000 0.74720  0.16770  0.06660  Biso   1.000  H
  H54      1.0000 0.65910  0.10560  0.02210  Biso   1.000  H
  C40      1.0000 0.63260  0.22890  0.98070  Biso   1.000  C
  H55      1.0000 0.69500  0.22390  0.93620  Biso   1.000  H
  H56      1.0000 0.55210  0.21930  0.95610  Biso   1.000  H
  C41      1.0000 0.62920  0.31660  0.01670  Biso   1.000  C
  H57      1.0000 0.60550  0.35830  0.97300  Biso   1.000  H
  H58      1.0000 0.71200  0.32820  0.03610  Biso   1.000  H
  C42      1.0000 0.53920  0.32660  0.08850  Biso   1.000  C
  H59      1.0000 0.45500  0.32220  0.06760  Biso   1.000  H
  H60      1.0000 0.54390  0.38330  0.11270  Biso   1.000  H
  Fe2      1.0000 0.02668  0.72064  0.75240  Biso   1.000  Fe
  N13      1.0000 0.98970  0.79931  0.85948  Biso   1.000  N
  N14      1.0000 0.01170  0.97251  0.97388  Biso   1.000  N
  N15      1.0000 0.06060  0.64253  0.64560  Biso   1.000  N
  N16      1.0000 0.03290  0.51257  0.47231  Biso   1.000  N
  N17      1.0000 0.04670  0.83019  0.67716  Biso   1.000  N
  N18      1.0000 0.00050  0.96682  0.51986  Biso   1.000  N
  N19      1.0000 0.00070  0.61233  0.82631  Biso   1.000  N
  N20      1.0000 0.95770  0.47770  0.99257  Biso   1.000  N
  N21      1.0000 0.83300  0.72818  0.72270  Biso   1.000  N
  N22      1.0000 0.51170  0.73568  0.71227  Biso   1.000  N
  N23      1.0000 0.22040  0.71788  0.77905  Biso   1.000  N
  N24      1.0000 0.54010  0.73716  0.78542  Biso   1.000  N
  C43      1.0000 0.96380  0.84390  0.91310  Biso   1.000  C
  C44      1.0000 0.93290  0.89970  0.98580  Biso   1.000  C
  C45      1.0000 0.79620  0.92640  0.98620  Biso   1.000  C
  H61      1.0000 0.77370  0.95290  0.93240  Biso   1.000  H
  H62      1.0000 0.77890  0.96880  0.03000  Biso   1.000  H
  C46      1.0000 0.71890  0.85250  0.00130  Biso   1.000  C
  H63      1.0000 0.63160  0.87280  0.00410  Biso   1.000  H
  H64      1.0000 0.72920  0.81300  0.95440  Biso   1.000  H
  C47      1.0000 0.75400  0.80610  0.08130  Biso   1.000  C
  H65      1.0000 0.70530  0.75610  0.08730  Biso   1.000  H
  H66      1.0000 0.73500  0.84360  0.12890  Biso   1.000  H
  C48      1.0000 0.88900  0.77860  0.08140  Biso   1.000  C
  H67      1.0000 0.91050  0.75250  0.13560  Biso   1.000  H
  H68      1.0000 0.90530  0.73540  0.03830  Biso   1.000  H
  C49      1.0000 0.96960  0.85130  0.06540  Biso   1.000  C
  H69      1.0000 0.96300  0.89030  0.11290  Biso   1.000  H
  H70      1.0000 0.05600  0.82920  0.06080  Biso   1.000  H
  C50      1.0000 0.07730  0.61308  0.58190  Biso   1.000  C
  C51      1.0000 0.10160  0.58667  0.49528  Biso   1.000  C
  C52      1.0000 0.05890  0.66070  0.43793  Biso   1.000  C
  H71      1.0000 0.97300  0.67900  0.45140  Biso   1.000  H
  H72      1.0000 0.06180  0.64140  0.37980  Biso   1.000  H
  C53      1.0000 0.13870  0.73510  0.44690  Biso   1.000  C
  H73      1.0000 0.12790  0.75880  0.50310  Biso   1.000  H
  H74      1.0000 0.11230  0.77960  0.40650  Biso   1.000  H
  C54      1.0000 0.27260  0.70900  0.43260  Biso   1.000  C
  H75      1.0000 0.28490  0.69140  0.37440  Biso   1.000  H
  H76      1.0000 0.32220  0.75780  0.44230  Biso   1.000  H
  C55      1.0000 0.31590  0.63710  0.48950  Biso   1.000  C
  H77      1.0000 0.40180  0.61920  0.47570  Biso   1.000  H
  H78      1.0000 0.31370  0.65720  0.54740  Biso   1.000  H
  C56      1.0000 0.23770  0.56170  0.48280  Biso   1.000  C
  H79      1.0000 0.25020  0.53590  0.42760  Biso   1.000  H
  H80      1.0000 0.26440  0.51900  0.52490  Biso   1.000  H
  C57      1.0000 0.05720  0.89110  0.64126  Biso   1.000  C
  C58      1.0000 0.08190  0.96900  0.59422  Biso   1.000  C
  C59      1.0000 0.05420  0.04700  0.64710  Biso   1.000  C
  H81      1.0000 0.06320  0.09810  0.61280  Biso   1.000  H
  H82      1.0000 0.96840  0.04800  0.66690  Biso   1.000  H
  C60      1.0000 0.13990  0.04830  0.72120  Biso   1.000  C
  H83      1.0000 0.12380  0.00100  0.75900  Biso   1.000  H
  H84      1.0000 0.12330  0.10150  0.75190  Biso   1.000  H
  C61      1.0000 0.27280  0.04090  0.69430  Biso   1.000  C
  H85      1.0000 0.29140  0.09190  0.66240  Biso   1.000  H
  H86      1.0000 0.32560  0.03780  0.74390  Biso   1.000  H
  C62      1.0000 0.30150  0.96310  0.64130  Biso   1.000  C
  H87      1.0000 0.29340  0.91190  0.67550  Biso   1.000  H
  H88      1.0000 0.38730  0.96280  0.62150  Biso   1.000  H
  C63      1.0000 0.21660  0.96090  0.56730  Biso   1.000  C
  H89      1.0000 0.23310  0.00760  0.52890  Biso   1.000  H
  H90      1.0000 0.23320  0.90730  0.53740  Biso   1.000  H
  C64      1.0000 0.96360  0.55790  0.86316  Biso   1.000  C
  C65      1.0000 0.90540  0.48968  0.90853  Biso   1.000  C
  C66      1.0000 0.76830  0.51380  0.91620  Biso   1.000  C
  H91      1.0000 0.75650  0.57110  0.93950  Biso   1.000  H
  H92      1.0000 0.73090  0.47430  0.95500  Biso   1.000  H
  C67      1.0000 0.70400  0.51160  0.83320  Biso   1.000  C
  H93      1.0000 0.73260  0.55700  0.79720  Biso   1.000  H
  H94      1.0000 0.61480  0.52250  0.84190  Biso   1.000  H
  C68      1.0000 0.72770  0.42770  0.79020  Biso   1.000  C
  H95      1.0000 0.69030  0.38310  0.82280  Biso   1.000  H
  H96      1.0000 0.68880  0.43040  0.73500  Biso   1.000  H
  C69      1.0000 0.86400  0.40560  0.78030  Biso   1.000  C
  H97      1.0000 0.87670  0.34910  0.75520  Biso   1.000  H
  H98      1.0000 0.89950  0.44690  0.74250  Biso   1.000  H
  C70      1.0000 0.92950  0.40595  0.86334  Biso   1.000  C
  H99      1.0000 0.90150  0.35970  0.89850  Biso   1.000  H
  H100     1.0000 0.01870  0.39550  0.85410  Biso   1.000  H
  C71      1.0000 0.73630  0.73517  0.69633  Biso   1.000  C
  C72      1.0000 0.61620  0.74051  0.65386  Biso   1.000  C
  C73      1.0000 0.59580  0.82490  0.60800  Biso   1.000  C
  H101     1.0000 0.60570  0.87130  0.64730  Biso   1.000  H
  H102     1.0000 0.51080  0.83040  0.58700  Biso   1.000  H
  C74      1.0000 0.68370  0.83340  0.53620  Biso   1.000  C
  H103     1.0000 0.66220  0.88670  0.50610  Biso   1.000  H
  H104     1.0000 0.76780  0.83610  0.55780  Biso   1.000  H
  C75      1.0000 0.68050  0.76010  0.47660  Biso   1.000  C
  H105     1.0000 0.74330  0.76570  0.43300  Biso   1.000  H
  H106     1.0000 0.59940  0.76150  0.44960  Biso   1.000  H
  C76      1.0000 0.70420  0.67680  0.52120  Biso   1.000  C
  H107     1.0000 0.69660  0.63030  0.48150  Biso   1.000  H
  H108     1.0000 0.78900  0.67280  0.54250  Biso   1.000  H
  C77      1.0000 0.61500  0.66640  0.59318  Biso   1.000  C
  H109     1.0000 0.53120  0.66290  0.57120  Biso   1.000  H
  H110     1.0000 0.63760  0.61310  0.62300  Biso   1.000  H
  C78      1.0000 0.31700  0.72606  0.80299  Biso   1.000  C
  C79      1.0000 0.43470  0.74054  0.84384  Biso   1.000  C
  C80      1.0000 0.42570  0.82980  0.88010  Biso   1.000  C
  H111     1.0000 0.39790  0.87050  0.83640  Biso   1.000  H
  H112     1.0000 0.50790  0.84430  0.89820  Biso   1.000  H
  C81      1.0000 0.33730  0.83780  0.95330  Biso   1.000  C
  H113     1.0000 0.25280  0.83230  0.93340  Biso   1.000  H
  H114     1.0000 0.34090  0.89440  0.97790  Biso   1.000  H
  C82      1.0000 0.36740  0.77110  0.01930  Biso   1.000  C
  H115     1.0000 0.30500  0.77610  0.06380  Biso   1.000  H
  H116     1.0000 0.44790  0.78070  0.04390  Biso   1.000  H
  C83      1.0000 0.37080  0.68340  0.98330  Biso   1.000  C
  H117     1.0000 0.39450  0.64170  0.02700  Biso   1.000  H
  H118     1.0000 0.28800  0.67180  0.96390  Biso   1.000  H
  C84      1.0000 0.46080  0.67340  0.91150  Biso   1.000  C
  H119     1.0000 0.54500  0.67780  0.93240  Biso   1.000  H
  H120     1.0000 0.45610  0.61670  0.88730  Biso   1.000  H
