data_image0
_cell_length_a       10.9068
_cell_length_b       15.858
_cell_length_c       16.1047
_cell_angle_alpha    89.575
_cell_angle_beta     89.485
_cell_angle_gamma    85.889

_symmetry_space_group_name_H-M    "P 1"
_symmetry_int_tables_number       1

loop_
  _symmetry_equiv_pos_as_xyz
  'x, y, z'

loop_
  _atom_site_label
  _atom_site_occupancy
  _atom_site_fract_x
  _atom_site_fract_y
  _atom_site_fract_z
  _atom_site_thermal_displace_type
  _atom_site_B_iso_or_equiv
  _atom_site_type_symbol
  Fe1      1.0000 0.97426  0.27905  0.74711  Biso   1.000  Fe
  N1       1.0000 0.01300  0.20030  0.63840  Biso   1.000  N
  N2       1.0000 0.98890  0.02760  0.52540  Biso   1.000  N
  N3       1.0000 0.93830  0.35730  0.85510  Biso   1.000  N
  N4       1.0000 0.96600  0.48730  0.02770  Biso   1.000  N
  N5       1.0000 0.95210  0.16800  0.82060  Biso   1.000  N
  N6       1.0000 0.99990  0.03340  0.98020  Biso   1.000  N
  N7       1.0000 0.00190  0.38820  0.67390  Biso   1.000  N
  N8       1.0000 0.04220  0.52310  0.50770  Biso   1.000  N
  N9       1.0000 0.16690  0.27000  0.77810  Biso   1.000  N
  N10      1.0000 0.49040  0.26420  0.78860  Biso   1.000  N
  N11      1.0000 0.78080  0.28270  0.71880  Biso   1.000  N
  N12      1.0000 0.45990  0.26260  0.71460  Biso   1.000  N
  C1       1.0000 0.03970  0.15650  0.58510  Biso   1.000  C
  C2       1.0000 0.06860  0.10040  0.51280  Biso   1.000  C
  C3       1.0000 0.20540  0.07000  0.51190  Biso   1.000  C
  H1       1.0000 0.22740  0.04340  0.56610  Biso   1.000  H
  H2       1.0000 0.22080  0.02680  0.46830  Biso   1.000  H
  C4       1.0000 0.28540  0.14260  0.49550  Biso   1.000  C
  H3       1.0000 0.37260  0.12070  0.49250  Biso   1.000  H
  H4       1.0000 0.27640  0.18300  0.54220  Biso   1.000  H
  C5       1.0000 0.25030  0.18860  0.41440  Biso   1.000  C
  H5       1.0000 0.30150  0.23720  0.40680  Biso   1.000  H
  H6       1.0000 0.26700  0.14970  0.36720  Biso   1.000  H
  C6       1.0000 0.11570  0.21990  0.41460  Biso   1.000  C
  H7       1.0000 0.09450  0.24540  0.35990  Biso   1.000  H
  H8       1.0000 0.10150  0.26440  0.45720  Biso   1.000  H
  C7       1.0000 0.03190  0.14860  0.43290  Biso   1.000  C
  H9       1.0000 0.03610  0.10880  0.38570  Biso   1.000  H
  H10      1.0000 0.94590  0.17260  0.43830  Biso   1.000  H
  C8       1.0000 0.92150  0.38580  0.91870  Biso   1.000  C
  C9       1.0000 0.89840  0.41320  0.00590  Biso   1.000  C
  C10      1.0000 0.94160  0.33950  0.06250  Biso   1.000  C
  H11      1.0000 0.93960  0.35900  0.12080  Biso   1.000  H
  H12      1.0000 0.02780  0.32090  0.04830  Biso   1.000  H
  C11      1.0000 0.86140  0.26360  0.05500  Biso   1.000  C
  H13      1.0000 0.87140  0.23910  0.99880  Biso   1.000  H
  H14      1.0000 0.88840  0.21940  0.09590  Biso   1.000  H
  C12      1.0000 0.72780  0.29170  0.07030  Biso   1.000  C
  H15      1.0000 0.67740  0.24280  0.06350  Biso   1.000  H
  H16      1.0000 0.71740  0.31150  0.12830  Biso   1.000  H
  C13      1.0000 0.68210  0.36160  0.01210  Biso   1.000  C
  H17      1.0000 0.59520  0.37900  0.02550  Biso   1.000  H
  H18      1.0000 0.68600  0.34060  0.95430  Biso   1.000  H
  C14      1.0000 0.76010  0.43810  0.01930  Biso   1.000  C
  H19      1.0000 0.74740  0.46340  0.07500  Biso   1.000  H
  H20      1.0000 0.73250  0.48130  0.97750  Biso   1.000  H
  C15      1.0000 0.94230  0.10710  0.85770  Biso   1.000  C
  C16      1.0000 0.91790  0.03010  0.90610  Biso   1.000  C
  C17      1.0000 0.94370  0.95030  0.85300  Biso   1.000  C
  H21      1.0000 0.02980  0.94780  0.83270  Biso   1.000  H
  H22      1.0000 0.93360  0.89960  0.88790  Biso   1.000  H
  C18      1.0000 0.85790  0.94960  0.77930  Biso   1.000  C
  H23      1.0000 0.87410  0.89620  0.74840  Biso   1.000  H
  H24      1.0000 0.87350  0.99710  0.74140  Biso   1.000  H
  C19      1.0000 0.72450  0.95760  0.80830  Biso   1.000  C
  H25      1.0000 0.67040  0.96000  0.75920  Biso   1.000  H
  H26      1.0000 0.70710  0.90680  0.84120  Biso   1.000  H
  C20      1.0000 0.69570  0.03520  0.86020  Biso   1.000  C
  H27      1.0000 0.60980  0.03550  0.88080  Biso   1.000  H
  H28      1.0000 0.70250  0.08620  0.82510  Biso   1.000  H
  C21      1.0000 0.78190  0.03890  0.93410  Biso   1.000  C
  H29      1.0000 0.76610  0.99290  0.97380  Biso   1.000  H
  H30      1.0000 0.76520  0.09350  0.96310  Biso   1.000  H
  C22      1.0000 0.03580  0.44330  0.63750  Biso   1.000  C
  C23      1.0000 0.09330  0.51210  0.59160  Biso   1.000  C
  C24      1.0000 0.23390  0.48960  0.58320  Biso   1.000  C
  H31      1.0000 0.24790  0.43240  0.55920  Biso   1.000  H
  H32      1.0000 0.26970  0.53010  0.54450  Biso   1.000  H
  C25      1.0000 0.29840  0.49170  0.66570  Biso   1.000  C
  H33      1.0000 0.38810  0.48120  0.65680  Biso   1.000  H
  H34      1.0000 0.27060  0.44610  0.70210  Biso   1.000  H
  C26      1.0000 0.27180  0.57710  0.70850  Biso   1.000  C
  H35      1.0000 0.31090  0.57540  0.76380  Biso   1.000  H
  H36      1.0000 0.30790  0.62200  0.67510  Biso   1.000  H
  C27      1.0000 0.13340  0.59810  0.71860  Biso   1.000  C
  H37      1.0000 0.09910  0.55650  0.75690  Biso   1.000  H
  H38      1.0000 0.11880  0.65480  0.74350  Biso   1.000  H
  C28      1.0000 0.06780  0.59660  0.63590  Biso   1.000  C
  H39      1.0000 0.09510  0.64270  0.59990  Biso   1.000  H
  H40      1.0000 0.97820  0.60700  0.64530  Biso   1.000  H
  C29      1.0000 0.26420  0.26440  0.80480  Biso   1.000  C
  C30      1.0000 0.38490  0.25920  0.84730  Biso   1.000  C
  C31      1.0000 0.40770  0.17460  0.89350  Biso   1.000  C
  H41      1.0000 0.39790  0.12780  0.85430  Biso   1.000  H
  H42      1.0000 0.49330  0.16940  0.91370  Biso   1.000  H
  C32      1.0000 0.32010  0.16600  0.96690  Biso   1.000  C
  H43      1.0000 0.34280  0.11270  0.99710  Biso   1.000  H
  H44      1.0000 0.23530  0.16330  0.94620  Biso   1.000  H
  C33      1.0000 0.32370  0.24080  0.02710  Biso   1.000  C
  H45      1.0000 0.26190  0.23540  0.07190  Biso   1.000  H
  H46      1.0000 0.40580  0.24020  0.05290  Biso   1.000  H
  C34      1.0000 0.29640  0.32390  0.98010  Biso   1.000  C
  H47      1.0000 0.21170  0.32590  0.95830  Biso   1.000  H
  H48      1.0000 0.30120  0.37160  0.01890  Biso   1.000  H
  C35      1.0000 0.38630  0.33400  0.90830  Biso   1.000  C
  H49      1.0000 0.47030  0.33710  0.93030  Biso   1.000  H
  H50      1.0000 0.36380  0.38760  0.87830  Biso   1.000  H
  C36      1.0000 0.68250  0.27440  0.69470  Biso   1.000  C
  C37      1.0000 0.56390  0.25980  0.65440  Biso   1.000  C
  C38      1.0000 0.53550  0.32780  0.58860  Biso   1.000  C
  H51      1.0000 0.54100  0.38420  0.61360  Biso   1.000  H
  H52      1.0000 0.45030  0.32410  0.56900  Biso   1.000  H
  C39      1.0000 0.62460  0.31850  0.51410  Biso   1.000  C
  H53      1.0000 0.59890  0.36060  0.47080  Biso   1.000  H
  H54      1.0000 0.70840  0.32980  0.53200  Biso   1.000  H
  C40      1.0000 0.62630  0.22900  0.47760  Biso   1.000  C
  H55      1.0000 0.54400  0.21950  0.45550  Biso   1.000  H
  H56      1.0000 0.68620  0.22390  0.43100  Biso   1.000  H
  C41      1.0000 0.66100  0.16260  0.54300  Biso   1.000  C
  H57      1.0000 0.74610  0.16920  0.56150  Biso   1.000  H
  H58      1.0000 0.65860  0.10570  0.51840  Biso   1.000  H
  C42      1.0000 0.57400  0.17000  0.61750  Biso   1.000  C
  H59      1.0000 0.60370  0.12910  0.66090  Biso   1.000  H
  H60      1.0000 0.49140  0.15510  0.60040  Biso   1.000  H
  Fe2      1.0000 0.02574  0.72095  0.25289  Biso   1.000  Fe
  N13      1.0000 0.98700  0.79970  0.36160  Biso   1.000  N
  N14      1.0000 0.01110  0.97240  0.47460  Biso   1.000  N
  N15      1.0000 0.06170  0.64270  0.14490  Biso   1.000  N
  N16      1.0000 0.03400  0.51270  0.97230  Biso   1.000  N
  N17      1.0000 0.04790  0.83200  0.17940  Biso   1.000  N
  N18      1.0000 0.00010  0.96660  0.01980  Biso   1.000  N
  N19      1.0000 0.99810  0.61180  0.32610  Biso   1.000  N
  N20      1.0000 0.95780  0.47690  0.49230  Biso   1.000  N
  N21      1.0000 0.83310  0.73000  0.22190  Biso   1.000  N
  N22      1.0000 0.50960  0.73580  0.21140  Biso   1.000  N
  N23      1.0000 0.21920  0.71730  0.28120  Biso   1.000  N
  N24      1.0000 0.54010  0.73740  0.28540  Biso   1.000  N
  C43      1.0000 0.96030  0.84350  0.41490  Biso   1.000  C
  C44      1.0000 0.93140  0.89960  0.48720  Biso   1.000  C
  C45      1.0000 0.79460  0.93000  0.48810  Biso   1.000  C
  H61      1.0000 0.77260  0.95660  0.43390  Biso   1.000  H
  H62      1.0000 0.77920  0.97320  0.53170  Biso   1.000  H
  C46      1.0000 0.71460  0.85740  0.50450  Biso   1.000  C
  H63      1.0000 0.62740  0.87930  0.50750  Biso   1.000  H
  H64      1.0000 0.72360  0.81700  0.45780  Biso   1.000  H
  C47      1.0000 0.74970  0.81140  0.58560  Biso   1.000  C
  H65      1.0000 0.69850  0.76280  0.59320  Biso   1.000  H
  H66      1.0000 0.73300  0.85030  0.63280  Biso   1.000  H
  C48      1.0000 0.88430  0.78010  0.58540  Biso   1.000  C
  H67      1.0000 0.90550  0.75460  0.64010  Biso   1.000  H
  H68      1.0000 0.89850  0.73560  0.54280  Biso   1.000  H
  C49      1.0000 0.96810  0.85140  0.56710  Biso   1.000  C
  H69      1.0000 0.96390  0.89120  0.61430  Biso   1.000  H
  H70      1.0000 0.05410  0.82740  0.56170  Biso   1.000  H
  C50      1.0000 0.07850  0.61420  0.08130  Biso   1.000  C
  C51      1.0000 0.10160  0.58680  0.99410  Biso   1.000  C
  C52      1.0000 0.05840  0.66050  0.93750  Biso   1.000  C
  H71      1.0000 0.06040  0.64100  0.87920  Biso   1.000  H
  H72      1.0000 0.97220  0.67910  0.95170  Biso   1.000  H
  C53      1.0000 0.13860  0.73640  0.94500  Biso   1.000  C
  H73      1.0000 0.12860  0.76090  0.00120  Biso   1.000  H
  H74      1.0000 0.11160  0.78060  0.90410  Biso   1.000  H
  C54      1.0000 0.27220  0.70830  0.92970  Biso   1.000  C
  H75      1.0000 0.32260  0.75720  0.93650  Biso   1.000  H
  H76      1.0000 0.28260  0.68850  0.87170  Biso   1.000  H
  C55      1.0000 0.31790  0.63840  0.98790  Biso   1.000  C
  H77      1.0000 0.40480  0.62100  0.97450  Biso   1.000  H
  H78      1.0000 0.31400  0.65940  0.04570  Biso   1.000  H
  C56      1.0000 0.23990  0.56190  0.98070  Biso   1.000  C
  H79      1.0000 0.25260  0.53660  0.92500  Biso   1.000  H
  H80      1.0000 0.26750  0.51870  0.02250  Biso   1.000  H
  C57      1.0000 0.05770  0.89290  0.14230  Biso   1.000  C
  C58      1.0000 0.08210  0.96990  0.09390  Biso   1.000  C
  C59      1.0000 0.05630  0.04970  0.14700  Biso   1.000  C
  H81      1.0000 0.97020  0.05220  0.16730  Biso   1.000  H
  H82      1.0000 0.06640  0.10040  0.11210  Biso   1.000  H
  C60      1.0000 0.14210  0.05040  0.22070  Biso   1.000  C
  H83      1.0000 0.12590  0.10380  0.25160  Biso   1.000  H
  H84      1.0000 0.12650  0.00290  0.25860  Biso   1.000  H
  C61      1.0000 0.27550  0.04240  0.19170  Biso   1.000  C
  H85      1.0000 0.32960  0.04000  0.24080  Biso   1.000  H
  H86      1.0000 0.29290  0.09320  0.15880  Biso   1.000  H
  C62      1.0000 0.30430  0.96480  0.13980  Biso   1.000  C
  H87      1.0000 0.39020  0.96450  0.11920  Biso   1.000  H
  H88      1.0000 0.29750  0.91380  0.17490  Biso   1.000  H
  C63      1.0000 0.21810  0.96110  0.06590  Biso   1.000  C
  H89      1.0000 0.23390  0.00710  0.02620  Biso   1.000  H
  H90      1.0000 0.23480  0.90650  0.03690  Biso   1.000  H
  C64      1.0000 0.96420  0.55670  0.36250  Biso   1.000  C
  C65      1.0000 0.90670  0.48790  0.40840  Biso   1.000  C
  C66      1.0000 0.76610  0.51040  0.41680  Biso   1.000  C
  H91      1.0000 0.75210  0.56760  0.44080  Biso   1.000  H
  H92      1.0000 0.73030  0.46990  0.45550  Biso   1.000  H
  C67      1.0000 0.70160  0.50830  0.33430  Biso   1.000  C
  H93      1.0000 0.61190  0.51880  0.34320  Biso   1.000  H
  H94      1.0000 0.72940  0.55390  0.29790  Biso   1.000  H
  C68      1.0000 0.72820  0.42290  0.29150  Biso   1.000  C
  H95      1.0000 0.68910  0.42460  0.23620  Biso   1.000  H
  H96      1.0000 0.69210  0.37800  0.32490  Biso   1.000  H
  C69      1.0000 0.86660  0.40190  0.28140  Biso   1.000  C
  H97      1.0000 0.90090  0.44350  0.24310  Biso   1.000  H
  H98      1.0000 0.88120  0.34520  0.25650  Biso   1.000  H
  C70      1.0000 0.93220  0.40340  0.36410  Biso   1.000  C
  H99      1.0000 0.90490  0.35730  0.40010  Biso   1.000  H
  H100     1.0000 0.02180  0.39300  0.35470  Biso   1.000  H
  C71      1.0000 0.73580  0.73560  0.19520  Biso   1.000  C
  C72      1.0000 0.61510  0.74080  0.15270  Biso   1.000  C
  C73      1.0000 0.59230  0.82540  0.10650  Biso   1.000  C
  H101     1.0000 0.60210  0.87220  0.14570  Biso   1.000  H
  H102     1.0000 0.50670  0.83060  0.08630  Biso   1.000  H
  C74      1.0000 0.67990  0.83400  0.03310  Biso   1.000  C
  H103     1.0000 0.65720  0.88730  0.00290  Biso   1.000  H
  H104     1.0000 0.76470  0.83670  0.05380  Biso   1.000  H
  C75      1.0000 0.67630  0.75920  0.97290  Biso   1.000  C
  H105     1.0000 0.73810  0.76460  0.92810  Biso   1.000  H
  H106     1.0000 0.59420  0.75980  0.94710  Biso   1.000  H
  C76      1.0000 0.70360  0.67610  0.01990  Biso   1.000  C
  H107     1.0000 0.78830  0.67410  0.04170  Biso   1.000  H
  H108     1.0000 0.69880  0.62840  0.98110  Biso   1.000  H
  C77      1.0000 0.61370  0.66600  0.09170  Biso   1.000  C
  H109     1.0000 0.52970  0.66290  0.06970  Biso   1.000  H
  H110     1.0000 0.63620  0.61240  0.12170  Biso   1.000  H
  C78      1.0000 0.31750  0.72560  0.30530  Biso   1.000  C
  C79      1.0000 0.43610  0.74020  0.34560  Biso   1.000  C
  C80      1.0000 0.46450  0.67220  0.41140  Biso   1.000  C
  H111     1.0000 0.45900  0.61580  0.38640  Biso   1.000  H
  H112     1.0000 0.54970  0.67590  0.43100  Biso   1.000  H
  C81      1.0000 0.37540  0.68150  0.48590  Biso   1.000  C
  H113     1.0000 0.40110  0.63940  0.52920  Biso   1.000  H
  H114     1.0000 0.29160  0.67020  0.46800  Biso   1.000  H
  C82      1.0000 0.37370  0.77100  0.52240  Biso   1.000  C
  H115     1.0000 0.45600  0.78050  0.54450  Biso   1.000  H
  H116     1.0000 0.31380  0.77610  0.56900  Biso   1.000  H
  C83      1.0000 0.33900  0.83740  0.45700  Biso   1.000  C
  H117     1.0000 0.25390  0.83080  0.43850  Biso   1.000  H
  H118     1.0000 0.34140  0.89430  0.48160  Biso   1.000  H
  C84      1.0000 0.42600  0.83000  0.38250  Biso   1.000  C
  H119     1.0000 0.39630  0.87090  0.33910  Biso   1.000  H
  H120     1.0000 0.50860  0.84490  0.39960  Biso   1.000  H
