data_image0
_cell_length_a       10.165
_cell_length_b       8.2955
_cell_length_c       11.1811
_cell_angle_alpha    90
_cell_angle_beta     90
_cell_angle_gamma    90

_symmetry_space_group_name_H-M    "P 1"
_symmetry_int_tables_number       1

loop_
  _symmetry_equiv_pos_as_xyz
  'x, y, z'

loop_
  _atom_site_label
  _atom_site_occupancy
  _atom_site_fract_x
  _atom_site_fract_y
  _atom_site_fract_z
  _atom_site_thermal_displace_type
  _atom_site_B_iso_or_equiv
  _atom_site_type_symbol
  Cu1      1.0000 0.20486  0.00078  0.26590  Biso   1.000  Cu
  O1       1.0000 0.46180  0.05440  0.32770  Biso   1.000  O
  O2       1.0000 0.31250  0.18730  0.22230  Biso   1.000  O
  O3       1.0000 0.01480  0.10150  0.18600  Biso   1.000  O
  O4       1.0000 0.87110  0.30040  0.17340  Biso   1.000  O
  O5       1.0000 0.18380  0.10440  0.42670  Biso   1.000  O
  O6       1.0000 0.24350  0.11200  0.61590  Biso   1.000  O
  C1       1.0000 0.42410  0.17210  0.26760  Biso   1.000  C
  H1       1.0000 0.48390  0.25540  0.25550  Biso   1.000  H
  C2       1.0000 0.96880  0.23250  0.21720  Biso   1.000  C
  H2       1.0000 0.01130  0.28550  0.27950  Biso   1.000  H
  C3       1.0000 0.23090  0.04050  0.51860  Biso   1.000  C
  H3       1.0000 0.25810  0.93360  0.51390  Biso   1.000  H
  Cu2      1.0000 0.29514  0.99922  0.76590  Biso   1.000  Cu
  O7       1.0000 0.03820  0.94560  0.82770  Biso   1.000  O
  O8       1.0000 0.18750  0.81270  0.72230  Biso   1.000  O
  O9       1.0000 0.48520  0.89850  0.68600  Biso   1.000  O
  O10      1.0000 0.62890  0.69960  0.67340  Biso   1.000  O
  O11      1.0000 0.31620  0.89560  0.92670  Biso   1.000  O
  O12      1.0000 0.25650  0.88800  0.11590  Biso   1.000  O
  C4       1.0000 0.07590  0.82790  0.76760  Biso   1.000  C
  H4       1.0000 0.01610  0.74460  0.75550  Biso   1.000  H
  C5       1.0000 0.53120  0.76750  0.71720  Biso   1.000  C
  H5       1.0000 0.48870  0.71450  0.77950  Biso   1.000  H
  C6       1.0000 0.26910  0.95950  0.01860  Biso   1.000  C
  H6       1.0000 0.24190  0.06640  0.01390  Biso   1.000  H
  Cu3      1.0000 0.79514  0.50078  0.23410  Biso   1.000  Cu
  O13      1.0000 0.53820  0.55440  0.17230  Biso   1.000  O
  O14      1.0000 0.68750  0.68730  0.27770  Biso   1.000  O
  O15      1.0000 0.98520  0.60150  0.31400  Biso   1.000  O
  O16      1.0000 0.12890  0.80040  0.32660  Biso   1.000  O
  O17      1.0000 0.81620  0.60440  0.07330  Biso   1.000  O
  O18      1.0000 0.75650  0.61200  0.88410  Biso   1.000  O
  C7       1.0000 0.57590  0.67210  0.23240  Biso   1.000  C
  H7       1.0000 0.51610  0.75540  0.24450  Biso   1.000  H
  C8       1.0000 0.03120  0.73250  0.28280  Biso   1.000  C
  H8       1.0000 0.98870  0.78550  0.22050  Biso   1.000  H
  C9       1.0000 0.76910  0.54050  0.98140  Biso   1.000  C
  H9       1.0000 0.74190  0.43360  0.98610  Biso   1.000  H
  Cu4      1.0000 0.70486  0.49922  0.73410  Biso   1.000  Cu
  O19      1.0000 0.96180  0.44560  0.67230  Biso   1.000  O
  O20      1.0000 0.81250  0.31270  0.77770  Biso   1.000  O
  O21      1.0000 0.51480  0.39850  0.81400  Biso   1.000  O
  O22      1.0000 0.37110  0.19960  0.82660  Biso   1.000  O
  O23      1.0000 0.68380  0.39560  0.57330  Biso   1.000  O
  O24      1.0000 0.74350  0.38800  0.38410  Biso   1.000  O
  C10      1.0000 0.92410  0.32790  0.73240  Biso   1.000  C
  H10      1.0000 0.98390  0.24460  0.74450  Biso   1.000  H
  C11      1.0000 0.46880  0.26750  0.78280  Biso   1.000  C
  H11      1.0000 0.51130  0.21450  0.72050  Biso   1.000  H
  C12      1.0000 0.73090  0.45950  0.48140  Biso   1.000  C
  H12      1.0000 0.75810  0.56640  0.48610  Biso   1.000  H
