data_image0
_cell_length_a       10.141
_cell_length_b       8.2329
_cell_length_c       11.099
_cell_angle_alpha    90
_cell_angle_beta     90
_cell_angle_gamma    90

_symmetry_space_group_name_H-M    "P 1"
_symmetry_int_tables_number       1

loop_
  _symmetry_equiv_pos_as_xyz
  'x, y, z'

loop_
  _atom_site_label
  _atom_site_occupancy
  _atom_site_fract_x
  _atom_site_fract_y
  _atom_site_fract_z
  _atom_site_thermal_displace_type
  _atom_site_B_iso_or_equiv
  _atom_site_type_symbol
  Cu1      1.0000 0.20497  0.00106  0.26598  Biso   1.000  Cu
  O1       1.0000 0.46330  0.05530  0.32780  Biso   1.000  O
  O2       1.0000 0.31210  0.18790  0.22300  Biso   1.000  O
  O3       1.0000 0.01460  0.10250  0.18450  Biso   1.000  O
  O4       1.0000 0.87210  0.30200  0.17520  Biso   1.000  O
  O5       1.0000 0.18330  0.10350  0.42760  Biso   1.000  O
  O6       1.0000 0.24360  0.11130  0.61610  Biso   1.000  O
  C1       1.0000 0.42480  0.17320  0.26830  Biso   1.000  C
  H1       1.0000 0.48410  0.25780  0.25630  Biso   1.000  H
  C2       1.0000 0.96830  0.23280  0.21770  Biso   1.000  C
  H2       1.0000 0.01050  0.28410  0.28170  Biso   1.000  H
  C3       1.0000 0.22990  0.04000  0.51850  Biso   1.000  C
  H3       1.0000 0.25650  0.93200  0.51370  Biso   1.000  H
  Cu2      1.0000 0.29503  0.99894  0.76598  Biso   1.000  Cu
  O7       1.0000 0.03670  0.94470  0.82780  Biso   1.000  O
  O8       1.0000 0.18790  0.81210  0.72300  Biso   1.000  O
  O9       1.0000 0.48540  0.89750  0.68450  Biso   1.000  O
  O10      1.0000 0.62790  0.69800  0.67520  Biso   1.000  O
  O11      1.0000 0.31670  0.89650  0.92760  Biso   1.000  O
  O12      1.0000 0.25640  0.88870  0.11610  Biso   1.000  O
  C4       1.0000 0.07520  0.82680  0.76830  Biso   1.000  C
  H4       1.0000 0.01590  0.74220  0.75630  Biso   1.000  H
  C5       1.0000 0.53170  0.76720  0.71770  Biso   1.000  C
  H5       1.0000 0.48950  0.71590  0.78170  Biso   1.000  H
  C6       1.0000 0.27010  0.96000  0.01850  Biso   1.000  C
  H6       1.0000 0.24350  0.06800  0.01370  Biso   1.000  H
  Cu3      1.0000 0.79503  0.50106  0.23402  Biso   1.000  Cu
  O13      1.0000 0.53670  0.55530  0.17220  Biso   1.000  O
  O14      1.0000 0.68790  0.68790  0.27700  Biso   1.000  O
  O15      1.0000 0.98540  0.60250  0.31550  Biso   1.000  O
  O16      1.0000 0.12790  0.80200  0.32480  Biso   1.000  O
  O17      1.0000 0.81670  0.60350  0.07240  Biso   1.000  O
  O18      1.0000 0.75640  0.61130  0.88390  Biso   1.000  O
  C7       1.0000 0.57520  0.67320  0.23170  Biso   1.000  C
  H7       1.0000 0.51590  0.75780  0.24370  Biso   1.000  H
  C8       1.0000 0.03170  0.73280  0.28230  Biso   1.000  C
  H8       1.0000 0.98950  0.78410  0.21830  Biso   1.000  H
  C9       1.0000 0.77010  0.54000  0.98150  Biso   1.000  C
  H9       1.0000 0.74350  0.43200  0.98630  Biso   1.000  H
  Cu4      1.0000 0.70497  0.49894  0.73402  Biso   1.000  Cu
  O19      1.0000 0.96330  0.44470  0.67220  Biso   1.000  O
  O20      1.0000 0.81210  0.31210  0.77700  Biso   1.000  O
  O21      1.0000 0.51460  0.39750  0.81550  Biso   1.000  O
  O22      1.0000 0.37210  0.19800  0.82480  Biso   1.000  O
  O23      1.0000 0.68330  0.39650  0.57240  Biso   1.000  O
  O24      1.0000 0.74360  0.38870  0.38390  Biso   1.000  O
  C10      1.0000 0.92480  0.32680  0.73170  Biso   1.000  C
  H10      1.0000 0.98410  0.24220  0.74370  Biso   1.000  H
  C11      1.0000 0.46830  0.26720  0.78230  Biso   1.000  C
  H11      1.0000 0.51050  0.21590  0.71830  Biso   1.000  H
  C12      1.0000 0.72990  0.46000  0.48150  Biso   1.000  C
  H12      1.0000 0.75650  0.56800  0.48630  Biso   1.000  H
