data_image0
_cell_length_a       10.4618
_cell_length_b       10.4947
_cell_length_c       6.313
_cell_angle_alpha    90
_cell_angle_beta     115.318
_cell_angle_gamma    90

_symmetry_space_group_name_H-M    "P 1"
_symmetry_int_tables_number       1

loop_
  _symmetry_equiv_pos_as_xyz
  'x, y, z'

loop_
  _atom_site_label
  _atom_site_occupancy
  _atom_site_fract_x
  _atom_site_fract_y
  _atom_site_fract_z
  _atom_site_thermal_displace_type
  _atom_site_B_iso_or_equiv
  _atom_site_type_symbol
  C1       1.0000 0.31540  0.21000  0.54620  Biso   1.000  C
  H1       1.0000 0.39680  0.26460  0.58170  Biso   1.000  H
  H2       1.0000 0.32580  0.17000  0.69120  Biso   1.000  H
  N1       1.0000 0.31400  0.11090  0.38170  Biso   1.000  N
  H3       1.0000 0.30070  0.14820  0.24540  Biso   1.000  H
  H4       1.0000 0.24000  0.05890  0.35300  Biso   1.000  H
  C2       1.0000 0.81540  0.71000  0.54620  Biso   1.000  C
  H5       1.0000 0.89680  0.76460  0.58170  Biso   1.000  H
  H6       1.0000 0.82580  0.67000  0.69120  Biso   1.000  H
  N2       1.0000 0.81400  0.61090  0.38170  Biso   1.000  N
  H7       1.0000 0.80070  0.64820  0.24540  Biso   1.000  H
  H8       1.0000 0.74000  0.55890  0.35300  Biso   1.000  H
  C3       1.0000 0.68460  0.21000  0.95380  Biso   1.000  C
  H9       1.0000 0.60320  0.26460  0.91830  Biso   1.000  H
  H10      1.0000 0.67420  0.17000  0.80880  Biso   1.000  H
  N3       1.0000 0.68600  0.11090  0.11830  Biso   1.000  N
  H11      1.0000 0.69930  0.14820  0.25460  Biso   1.000  H
  H12      1.0000 0.76000  0.05890  0.14700  Biso   1.000  H
  C4       1.0000 0.18460  0.71000  0.95380  Biso   1.000  C
  H13      1.0000 0.10320  0.76460  0.91830  Biso   1.000  H
  H14      1.0000 0.17420  0.67000  0.80880  Biso   1.000  H
  N4       1.0000 0.18600  0.61090  0.11830  Biso   1.000  N
  H15      1.0000 0.19930  0.64820  0.25460  Biso   1.000  H
  H16      1.0000 0.26000  0.55890  0.14700  Biso   1.000  H
  C5       1.0000 0.68460  0.79000  0.45380  Biso   1.000  C
  H17      1.0000 0.60320  0.73540  0.41830  Biso   1.000  H
  H18      1.0000 0.67420  0.83000  0.30880  Biso   1.000  H
  N5       1.0000 0.68600  0.88910  0.61830  Biso   1.000  N
  H19      1.0000 0.69930  0.85180  0.75460  Biso   1.000  H
  H20      1.0000 0.76000  0.94110  0.64700  Biso   1.000  H
  C6       1.0000 0.18460  0.29000  0.45380  Biso   1.000  C
  H21      1.0000 0.10320  0.23540  0.41830  Biso   1.000  H
  H22      1.0000 0.17420  0.33000  0.30880  Biso   1.000  H
  N6       1.0000 0.18600  0.38910  0.61830  Biso   1.000  N
  H23      1.0000 0.19930  0.35180  0.75460  Biso   1.000  H
  H24      1.0000 0.26000  0.44110  0.64700  Biso   1.000  H
  C7       1.0000 0.31540  0.79000  0.04620  Biso   1.000  C
  H25      1.0000 0.39680  0.73540  0.08170  Biso   1.000  H
  H26      1.0000 0.32580  0.83000  0.19120  Biso   1.000  H
  N7       1.0000 0.31400  0.88910  0.88170  Biso   1.000  N
  H27      1.0000 0.30070  0.85180  0.74540  Biso   1.000  H
  H28      1.0000 0.24000  0.94110  0.85300  Biso   1.000  H
  C8       1.0000 0.81540  0.29000  0.04620  Biso   1.000  C
  H29      1.0000 0.89680  0.23540  0.08170  Biso   1.000  H
  H30      1.0000 0.82580  0.33000  0.19120  Biso   1.000  H
  N8       1.0000 0.81400  0.38910  0.88170  Biso   1.000  N
  H31      1.0000 0.80070  0.35180  0.74540  Biso   1.000  H
  H32      1.0000 0.74000  0.44110  0.85300  Biso   1.000  H
  Ag1      1.0000 0.50000  0.00000  0.50000  Biso   1.000  Ag
  Ag2      1.0000 0.00000  0.50000  0.50000  Biso   1.000  Ag
  Ag3      1.0000 0.50000  0.00000  0.00000  Biso   1.000  Ag
  Ag4      1.0000 0.00000  0.50000  0.00000  Biso   1.000  Ag
