data_image0
_cell_length_a       10.2551
_cell_length_b       10.6342
_cell_length_c       6.2296
_cell_angle_alpha    90
_cell_angle_beta     114.568
_cell_angle_gamma    90

_symmetry_space_group_name_H-M    "P 1"
_symmetry_int_tables_number       1

loop_
  _symmetry_equiv_pos_as_xyz
  'x, y, z'

loop_
  _atom_site_label
  _atom_site_occupancy
  _atom_site_fract_x
  _atom_site_fract_y
  _atom_site_fract_z
  _atom_site_thermal_displace_type
  _atom_site_B_iso_or_equiv
  _atom_site_type_symbol
  C1       1.0000 0.31770  0.21100  0.54540  Biso   1.000  C
  H1       1.0000 0.40060  0.26600  0.56960  Biso   1.000  H
  H2       1.0000 0.33290  0.17410  0.69990  Biso   1.000  H
  N1       1.0000 0.31080  0.10910  0.38020  Biso   1.000  N
  H3       1.0000 0.29500  0.14360  0.23600  Biso   1.000  H
  H4       1.0000 0.23440  0.05760  0.35950  Biso   1.000  H
  C2       1.0000 0.81770  0.71100  0.54540  Biso   1.000  C
  H5       1.0000 0.90060  0.76600  0.56960  Biso   1.000  H
  H6       1.0000 0.83290  0.67410  0.69990  Biso   1.000  H
  N2       1.0000 0.81080  0.60910  0.38020  Biso   1.000  N
  H7       1.0000 0.79500  0.64360  0.23600  Biso   1.000  H
  H8       1.0000 0.73440  0.55760  0.35950  Biso   1.000  H
  C3       1.0000 0.68230  0.21100  0.95460  Biso   1.000  C
  H9       1.0000 0.59940  0.26600  0.93040  Biso   1.000  H
  H10      1.0000 0.66710  0.17410  0.80010  Biso   1.000  H
  N3       1.0000 0.68920  0.10910  0.11980  Biso   1.000  N
  H11      1.0000 0.70500  0.14360  0.26400  Biso   1.000  H
  H12      1.0000 0.76560  0.05760  0.14050  Biso   1.000  H
  C4       1.0000 0.18230  0.71100  0.95460  Biso   1.000  C
  H13      1.0000 0.09940  0.76600  0.93040  Biso   1.000  H
  H14      1.0000 0.16710  0.67410  0.80010  Biso   1.000  H
  N4       1.0000 0.18920  0.60910  0.11980  Biso   1.000  N
  H15      1.0000 0.20500  0.64360  0.26400  Biso   1.000  H
  H16      1.0000 0.26560  0.55760  0.14050  Biso   1.000  H
  C5       1.0000 0.68230  0.78900  0.45460  Biso   1.000  C
  H17      1.0000 0.59940  0.73400  0.43040  Biso   1.000  H
  H18      1.0000 0.66710  0.82590  0.30010  Biso   1.000  H
  N5       1.0000 0.68920  0.89090  0.61980  Biso   1.000  N
  H19      1.0000 0.70500  0.85640  0.76400  Biso   1.000  H
  H20      1.0000 0.76560  0.94240  0.64050  Biso   1.000  H
  C6       1.0000 0.18230  0.28900  0.45460  Biso   1.000  C
  H21      1.0000 0.09940  0.23400  0.43040  Biso   1.000  H
  H22      1.0000 0.16710  0.32590  0.30010  Biso   1.000  H
  N6       1.0000 0.18920  0.39090  0.61980  Biso   1.000  N
  H23      1.0000 0.20500  0.35640  0.76400  Biso   1.000  H
  H24      1.0000 0.26560  0.44240  0.64050  Biso   1.000  H
  C7       1.0000 0.31770  0.78900  0.04540  Biso   1.000  C
  H25      1.0000 0.40060  0.73400  0.06960  Biso   1.000  H
  H26      1.0000 0.33290  0.82590  0.19990  Biso   1.000  H
  N7       1.0000 0.31080  0.89090  0.88020  Biso   1.000  N
  H27      1.0000 0.29500  0.85640  0.73600  Biso   1.000  H
  H28      1.0000 0.23440  0.94240  0.85950  Biso   1.000  H
  C8       1.0000 0.81770  0.28900  0.04540  Biso   1.000  C
  H29      1.0000 0.90060  0.23400  0.06960  Biso   1.000  H
  H30      1.0000 0.83290  0.32590  0.19990  Biso   1.000  H
  N8       1.0000 0.81080  0.39090  0.88020  Biso   1.000  N
  H31      1.0000 0.79500  0.35640  0.73600  Biso   1.000  H
  H32      1.0000 0.73440  0.44240  0.85950  Biso   1.000  H
  Ag1      1.0000 0.50000  0.00000  0.50000  Biso   1.000  Ag
  Ag2      1.0000 0.00000  0.50000  0.50000  Biso   1.000  Ag
  Ag3      1.0000 0.50000  0.00000  0.00000  Biso   1.000  Ag
  Ag4      1.0000 0.00000  0.50000  0.00000  Biso   1.000  Ag
