data_image0
_cell_length_a       10.2997
_cell_length_b       10.6107
_cell_length_c       6.243
_cell_angle_alpha    90
_cell_angle_beta     114.713
_cell_angle_gamma    90

_symmetry_space_group_name_H-M    "P 1"
_symmetry_int_tables_number       1

loop_
  _symmetry_equiv_pos_as_xyz
  'x, y, z'

loop_
  _atom_site_label
  _atom_site_occupancy
  _atom_site_fract_x
  _atom_site_fract_y
  _atom_site_fract_z
  _atom_site_thermal_displace_type
  _atom_site_B_iso_or_equiv
  _atom_site_type_symbol
  C1       1.0000 0.31740  0.21090  0.54550  Biso   1.000  C
  H1       1.0000 0.39930  0.26550  0.57120  Biso   1.000  H
  H2       1.0000 0.33190  0.17370  0.69750  Biso   1.000  H
  N1       1.0000 0.31120  0.10950  0.38030  Biso   1.000  N
  H3       1.0000 0.29590  0.14420  0.23840  Biso   1.000  H
  H4       1.0000 0.23580  0.05830  0.35830  Biso   1.000  H
  C2       1.0000 0.81740  0.71090  0.54550  Biso   1.000  C
  H5       1.0000 0.89930  0.76550  0.57120  Biso   1.000  H
  H6       1.0000 0.83190  0.67370  0.69750  Biso   1.000  H
  N2       1.0000 0.81120  0.60950  0.38030  Biso   1.000  N
  H7       1.0000 0.79590  0.64420  0.23840  Biso   1.000  H
  H8       1.0000 0.73580  0.55830  0.35830  Biso   1.000  H
  C3       1.0000 0.68260  0.21090  0.95450  Biso   1.000  C
  H9       1.0000 0.60070  0.26550  0.92880  Biso   1.000  H
  H10      1.0000 0.66810  0.17370  0.80250  Biso   1.000  H
  N3       1.0000 0.68880  0.10950  0.11970  Biso   1.000  N
  H11      1.0000 0.70410  0.14420  0.26160  Biso   1.000  H
  H12      1.0000 0.76420  0.05830  0.14170  Biso   1.000  H
  C4       1.0000 0.18260  0.71090  0.95450  Biso   1.000  C
  H13      1.0000 0.10070  0.76550  0.92880  Biso   1.000  H
  H14      1.0000 0.16810  0.67370  0.80250  Biso   1.000  H
  N4       1.0000 0.18880  0.60950  0.11970  Biso   1.000  N
  H15      1.0000 0.20410  0.64420  0.26160  Biso   1.000  H
  H16      1.0000 0.26420  0.55830  0.14170  Biso   1.000  H
  C5       1.0000 0.68260  0.78910  0.45450  Biso   1.000  C
  H17      1.0000 0.60070  0.73450  0.42880  Biso   1.000  H
  H18      1.0000 0.66810  0.82630  0.30250  Biso   1.000  H
  N5       1.0000 0.68880  0.89050  0.61970  Biso   1.000  N
  H19      1.0000 0.70410  0.85580  0.76160  Biso   1.000  H
  H20      1.0000 0.76420  0.94170  0.64170  Biso   1.000  H
  C6       1.0000 0.18260  0.28910  0.45450  Biso   1.000  C
  H21      1.0000 0.10070  0.23450  0.42880  Biso   1.000  H
  H22      1.0000 0.16810  0.32630  0.30250  Biso   1.000  H
  N6       1.0000 0.18880  0.39050  0.61970  Biso   1.000  N
  H23      1.0000 0.20410  0.35580  0.76160  Biso   1.000  H
  H24      1.0000 0.26420  0.44170  0.64170  Biso   1.000  H
  C7       1.0000 0.31740  0.78910  0.04550  Biso   1.000  C
  H25      1.0000 0.39930  0.73450  0.07120  Biso   1.000  H
  H26      1.0000 0.33190  0.82630  0.19750  Biso   1.000  H
  N7       1.0000 0.31120  0.89050  0.88030  Biso   1.000  N
  H27      1.0000 0.29590  0.85580  0.73840  Biso   1.000  H
  H28      1.0000 0.23580  0.94170  0.85830  Biso   1.000  H
  C8       1.0000 0.81740  0.28910  0.04550  Biso   1.000  C
  H29      1.0000 0.89930  0.23450  0.07120  Biso   1.000  H
  H30      1.0000 0.83190  0.32630  0.19750  Biso   1.000  H
  N8       1.0000 0.81120  0.39050  0.88030  Biso   1.000  N
  H31      1.0000 0.79590  0.35580  0.73840  Biso   1.000  H
  H32      1.0000 0.73580  0.44170  0.85830  Biso   1.000  H
  Ag1      1.0000 0.50000  0.00000  0.50000  Biso   1.000  Ag
  Ag2      1.0000 0.00000  0.50000  0.50000  Biso   1.000  Ag
  Ag3      1.0000 0.50000  0.00000  0.00000  Biso   1.000  Ag
  Ag4      1.0000 0.00000  0.50000  0.00000  Biso   1.000  Ag
