data_image0
_cell_length_a       10.4402
_cell_length_b       10.513
_cell_length_c       6.3021
_cell_angle_alpha    90
_cell_angle_beta     115.217
_cell_angle_gamma    90

_symmetry_space_group_name_H-M    "P 1"
_symmetry_int_tables_number       1

loop_
  _symmetry_equiv_pos_as_xyz
  'x, y, z'

loop_
  _atom_site_label
  _atom_site_occupancy
  _atom_site_fract_x
  _atom_site_fract_y
  _atom_site_fract_z
  _atom_site_thermal_displace_type
  _atom_site_B_iso_or_equiv
  _atom_site_type_symbol
  C1       1.0000 0.31600  0.21030  0.54600  Biso   1.000  C
  H1       1.0000 0.39700  0.26510  0.57870  Biso   1.000  H
  H2       1.0000 0.32760  0.17120  0.69250  Biso   1.000  H
  N1       1.0000 0.31360  0.11060  0.38170  Biso   1.000  N
  H3       1.0000 0.29970  0.14710  0.24440  Biso   1.000  H
  H4       1.0000 0.23960  0.05870  0.35480  Biso   1.000  H
  C2       1.0000 0.81600  0.71030  0.54600  Biso   1.000  C
  H5       1.0000 0.89700  0.76510  0.57870  Biso   1.000  H
  H6       1.0000 0.82760  0.67120  0.69250  Biso   1.000  H
  N2       1.0000 0.81360  0.61060  0.38170  Biso   1.000  N
  H7       1.0000 0.79970  0.64710  0.24440  Biso   1.000  H
  H8       1.0000 0.73960  0.55870  0.35480  Biso   1.000  H
  C3       1.0000 0.68400  0.21030  0.95400  Biso   1.000  C
  H9       1.0000 0.60300  0.26510  0.92130  Biso   1.000  H
  H10      1.0000 0.67240  0.17120  0.80750  Biso   1.000  H
  N3       1.0000 0.68640  0.11060  0.11830  Biso   1.000  N
  H11      1.0000 0.70030  0.14710  0.25560  Biso   1.000  H
  H12      1.0000 0.76040  0.05870  0.14520  Biso   1.000  H
  C4       1.0000 0.18400  0.71030  0.95400  Biso   1.000  C
  H13      1.0000 0.10300  0.76510  0.92130  Biso   1.000  H
  H14      1.0000 0.17240  0.67120  0.80750  Biso   1.000  H
  N4       1.0000 0.18640  0.61060  0.11830  Biso   1.000  N
  H15      1.0000 0.20030  0.64710  0.25560  Biso   1.000  H
  H16      1.0000 0.26040  0.55870  0.14520  Biso   1.000  H
  C5       1.0000 0.68400  0.78970  0.45400  Biso   1.000  C
  H17      1.0000 0.60300  0.73490  0.42130  Biso   1.000  H
  H18      1.0000 0.67240  0.82880  0.30750  Biso   1.000  H
  N5       1.0000 0.68640  0.88940  0.61830  Biso   1.000  N
  H19      1.0000 0.70030  0.85290  0.75560  Biso   1.000  H
  H20      1.0000 0.76040  0.94130  0.64520  Biso   1.000  H
  C6       1.0000 0.18400  0.28970  0.45400  Biso   1.000  C
  H21      1.0000 0.10300  0.23490  0.42130  Biso   1.000  H
  H22      1.0000 0.17240  0.32880  0.30750  Biso   1.000  H
  N6       1.0000 0.18640  0.38940  0.61830  Biso   1.000  N
  H23      1.0000 0.20030  0.35290  0.75560  Biso   1.000  H
  H24      1.0000 0.26040  0.44130  0.64520  Biso   1.000  H
  C7       1.0000 0.31600  0.78970  0.04600  Biso   1.000  C
  H25      1.0000 0.39700  0.73490  0.07870  Biso   1.000  H
  H26      1.0000 0.32760  0.82880  0.19250  Biso   1.000  H
  N7       1.0000 0.31360  0.88940  0.88170  Biso   1.000  N
  H27      1.0000 0.29970  0.85290  0.74440  Biso   1.000  H
  H28      1.0000 0.23960  0.94130  0.85480  Biso   1.000  H
  C8       1.0000 0.81600  0.28970  0.04600  Biso   1.000  C
  H29      1.0000 0.89700  0.23490  0.07870  Biso   1.000  H
  H30      1.0000 0.82760  0.32880  0.19250  Biso   1.000  H
  N8       1.0000 0.81360  0.38940  0.88170  Biso   1.000  N
  H31      1.0000 0.79970  0.35290  0.74440  Biso   1.000  H
  H32      1.0000 0.73960  0.44130  0.85480  Biso   1.000  H
  Ag1      1.0000 0.50000  0.00000  0.50000  Biso   1.000  Ag
  Ag2      1.0000 0.00000  0.50000  0.50000  Biso   1.000  Ag
  Ag3      1.0000 0.50000  0.00000  0.00000  Biso   1.000  Ag
  Ag4      1.0000 0.00000  0.50000  0.00000  Biso   1.000  Ag
