data_image0
_cell_length_a       20.855
_cell_length_b       19.6
_cell_length_c       6.0409
_cell_angle_alpha    90
_cell_angle_beta     114.215
_cell_angle_gamma    90

_symmetry_space_group_name_H-M    "P 1"
_symmetry_int_tables_number       1

loop_
  _symmetry_equiv_pos_as_xyz
  'x, y, z'

loop_
  _atom_site_label
  _atom_site_occupancy
  _atom_site_fract_x
  _atom_site_fract_y
  _atom_site_fract_z
  _atom_site_thermal_displace_type
  _atom_site_B_iso_or_equiv
  _atom_site_type_symbol
  N1       1.0000 0.60600  0.05190  0.12200  Biso   1.000  N
  H1       1.0000 0.62090  0.06540  0.27700  Biso   1.000  H
  H2       1.0000 0.63790  0.02280  0.11000  Biso   1.000  H
  N2       1.0000 0.65900  0.20850  0.87400  Biso   1.000  N
  H3       1.0000 0.62640  0.23790  0.87830  Biso   1.000  H
  H4       1.0000 0.64670  0.19500  0.71910  Biso   1.000  H
  N3       1.0000 0.85220  0.20000  0.62100  Biso   1.000  N
  H5       1.0000 0.88470  0.22880  0.61240  Biso   1.000  H
  H6       1.0000 0.86650  0.18530  0.77540  Biso   1.000  H
  N4       1.0000 0.90300  0.05040  0.39000  Biso   1.000  N
  H7       1.0000 0.88860  0.06470  0.23550  Biso   1.000  H
  H8       1.0000 0.87030  0.02180  0.39850  Biso   1.000  H
  C1       1.0000 0.59740  0.11050  0.96400  Biso   1.000  C
  H9       1.0000 0.56210  0.14080  0.97550  Biso   1.000  H
  H10      1.0000 0.58100  0.09520  0.79720  Biso   1.000  H
  C2       1.0000 0.66560  0.14890  0.03300  Biso   1.000  C
  H11      1.0000 0.68150  0.16440  0.19950  Biso   1.000  H
  H12      1.0000 0.70090  0.11810  0.02470  Biso   1.000  H
  C3       1.0000 0.84070  0.14290  0.45500  Biso   1.000  C
  H13      1.0000 0.82700  0.15830  0.28970  Biso   1.000  H
  H14      1.0000 0.80510  0.11200  0.46170  Biso   1.000  H
  C4       1.0000 0.91210  0.10980  0.55400  Biso   1.000  C
  H15      1.0000 0.94750  0.14090  0.54740  Biso   1.000  H
  H16      1.0000 0.92570  0.09500  0.72000  Biso   1.000  H
  N5       1.0000 0.10600  0.55190  0.12200  Biso   1.000  N
  H17      1.0000 0.12090  0.56540  0.27700  Biso   1.000  H
  H18      1.0000 0.13790  0.52280  0.11000  Biso   1.000  H
  N6       1.0000 0.15900  0.70850  0.87400  Biso   1.000  N
  H19      1.0000 0.12640  0.73790  0.87830  Biso   1.000  H
  H20      1.0000 0.14670  0.69500  0.71910  Biso   1.000  H
  N7       1.0000 0.35220  0.70000  0.62100  Biso   1.000  N
  H21      1.0000 0.38470  0.72880  0.61240  Biso   1.000  H
  H22      1.0000 0.36650  0.68530  0.77540  Biso   1.000  H
  N8       1.0000 0.40300  0.55040  0.39000  Biso   1.000  N
  H23      1.0000 0.38860  0.56470  0.23550  Biso   1.000  H
  H24      1.0000 0.37030  0.52180  0.39850  Biso   1.000  H
  C5       1.0000 0.09740  0.61050  0.96400  Biso   1.000  C
  H25      1.0000 0.06210  0.64080  0.97550  Biso   1.000  H
  H26      1.0000 0.08100  0.59520  0.79720  Biso   1.000  H
  C6       1.0000 0.16560  0.64890  0.03300  Biso   1.000  C
  H27      1.0000 0.18150  0.66440  0.19950  Biso   1.000  H
  H28      1.0000 0.20090  0.61810  0.02470  Biso   1.000  H
  C7       1.0000 0.34070  0.64290  0.45500  Biso   1.000  C
  H29      1.0000 0.32700  0.65830  0.28970  Biso   1.000  H
  H30      1.0000 0.30510  0.61200  0.46170  Biso   1.000  H
  C8       1.0000 0.41210  0.60980  0.55400  Biso   1.000  C
  H31      1.0000 0.44750  0.64090  0.54740  Biso   1.000  H
  H32      1.0000 0.42570  0.59500  0.72000  Biso   1.000  H
  N9       1.0000 0.39400  0.05190  0.37800  Biso   1.000  N
  H33      1.0000 0.37910  0.06540  0.22300  Biso   1.000  H
  H34      1.0000 0.36210  0.02280  0.39000  Biso   1.000  H
  N10      1.0000 0.34100  0.20850  0.62600  Biso   1.000  N
  H35      1.0000 0.37360  0.23790  0.62170  Biso   1.000  H
  H36      1.0000 0.35330  0.19500  0.78090  Biso   1.000  H
  N11      1.0000 0.14780  0.20000  0.87900  Biso   1.000  N
  H37      1.0000 0.11530  0.22880  0.88760  Biso   1.000  H
  H38      1.0000 0.13350  0.18530  0.72460  Biso   1.000  H
  N12      1.0000 0.09700  0.05040  0.11000  Biso   1.000  N
  H39      1.0000 0.11140  0.06470  0.26450  Biso   1.000  H
  H40      1.0000 0.12970  0.02180  0.10150  Biso   1.000  H
  C9       1.0000 0.40260  0.11050  0.53600  Biso   1.000  C
  H41      1.0000 0.43790  0.14080  0.52450  Biso   1.000  H
  H42      1.0000 0.41900  0.09520  0.70280  Biso   1.000  H
  C10      1.0000 0.33440  0.14890  0.46700  Biso   1.000  C
  H43      1.0000 0.31850  0.16440  0.30050  Biso   1.000  H
  H44      1.0000 0.29910  0.11810  0.47530  Biso   1.000  H
  C11      1.0000 0.15930  0.14290  0.04500  Biso   1.000  C
  H45      1.0000 0.17300  0.15830  0.21030  Biso   1.000  H
  H46      1.0000 0.19490  0.11200  0.03830  Biso   1.000  H
  C12      1.0000 0.08790  0.10980  0.94600  Biso   1.000  C
  H47      1.0000 0.05250  0.14090  0.95260  Biso   1.000  H
  H48      1.0000 0.07430  0.09500  0.78000  Biso   1.000  H
  N13      1.0000 0.89400  0.55190  0.37800  Biso   1.000  N
  H49      1.0000 0.87910  0.56540  0.22300  Biso   1.000  H
  H50      1.0000 0.86210  0.52280  0.39000  Biso   1.000  H
  N14      1.0000 0.84100  0.70850  0.62600  Biso   1.000  N
  H51      1.0000 0.87360  0.73790  0.62170  Biso   1.000  H
  H52      1.0000 0.85330  0.69500  0.78090  Biso   1.000  H
  N15      1.0000 0.64780  0.70000  0.87900  Biso   1.000  N
  H53      1.0000 0.61530  0.72880  0.88760  Biso   1.000  H
  H54      1.0000 0.63350  0.68530  0.72460  Biso   1.000  H
  N16      1.0000 0.59700  0.55040  0.11000  Biso   1.000  N
  H55      1.0000 0.61140  0.56470  0.26450  Biso   1.000  H
  H56      1.0000 0.62970  0.52180  0.10150  Biso   1.000  H
  C13      1.0000 0.90260  0.61050  0.53600  Biso   1.000  C
  H57      1.0000 0.93790  0.64080  0.52450  Biso   1.000  H
  H58      1.0000 0.91900  0.59520  0.70280  Biso   1.000  H
  C14      1.0000 0.83440  0.64890  0.46700  Biso   1.000  C
  H59      1.0000 0.81850  0.66440  0.30050  Biso   1.000  H
  H60      1.0000 0.79910  0.61810  0.47530  Biso   1.000  H
  C15      1.0000 0.65930  0.64290  0.04500  Biso   1.000  C
  H61      1.0000 0.67300  0.65830  0.21030  Biso   1.000  H
  H62      1.0000 0.69490  0.61200  0.03830  Biso   1.000  H
  C16      1.0000 0.58790  0.60980  0.94600  Biso   1.000  C
  H63      1.0000 0.55250  0.64090  0.95260  Biso   1.000  H
  H64      1.0000 0.57430  0.59500  0.78000  Biso   1.000  H
  N17      1.0000 0.39400  0.94810  0.87800  Biso   1.000  N
  H65      1.0000 0.37910  0.93460  0.72300  Biso   1.000  H
  H66      1.0000 0.36210  0.97720  0.89000  Biso   1.000  H
  N18      1.0000 0.34100  0.79150  0.12600  Biso   1.000  N
  H67      1.0000 0.37360  0.76210  0.12170  Biso   1.000  H
  H68      1.0000 0.35330  0.80500  0.28090  Biso   1.000  H
  N19      1.0000 0.14780  0.80000  0.37900  Biso   1.000  N
  H69      1.0000 0.11530  0.77120  0.38760  Biso   1.000  H
  H70      1.0000 0.13350  0.81470  0.22460  Biso   1.000  H
  N20      1.0000 0.09700  0.94960  0.61000  Biso   1.000  N
  H71      1.0000 0.11140  0.93530  0.76450  Biso   1.000  H
  H72      1.0000 0.12970  0.97820  0.60150  Biso   1.000  H
  C17      1.0000 0.40260  0.88950  0.03600  Biso   1.000  C
  H73      1.0000 0.43790  0.85920  0.02450  Biso   1.000  H
  H74      1.0000 0.41900  0.90480  0.20280  Biso   1.000  H
  C18      1.0000 0.33440  0.85110  0.96700  Biso   1.000  C
  H75      1.0000 0.31850  0.83560  0.80050  Biso   1.000  H
  H76      1.0000 0.29910  0.88190  0.97530  Biso   1.000  H
  C19      1.0000 0.15930  0.85710  0.54500  Biso   1.000  C
  H77      1.0000 0.17300  0.84170  0.71030  Biso   1.000  H
  H78      1.0000 0.19490  0.88800  0.53830  Biso   1.000  H
  C20      1.0000 0.08790  0.89020  0.44600  Biso   1.000  C
  H79      1.0000 0.05250  0.85910  0.45260  Biso   1.000  H
  H80      1.0000 0.07430  0.90500  0.28000  Biso   1.000  H
  N21      1.0000 0.89400  0.44810  0.87800  Biso   1.000  N
  H81      1.0000 0.87910  0.43460  0.72300  Biso   1.000  H
  H82      1.0000 0.86210  0.47720  0.89000  Biso   1.000  H
  N22      1.0000 0.84100  0.29150  0.12600  Biso   1.000  N
  H83      1.0000 0.87360  0.26210  0.12170  Biso   1.000  H
  H84      1.0000 0.85330  0.30500  0.28090  Biso   1.000  H
  N23      1.0000 0.64780  0.30000  0.37900  Biso   1.000  N
  H85      1.0000 0.61530  0.27120  0.38760  Biso   1.000  H
  H86      1.0000 0.63350  0.31470  0.22460  Biso   1.000  H
  N24      1.0000 0.59700  0.44960  0.61000  Biso   1.000  N
  H87      1.0000 0.61140  0.43530  0.76450  Biso   1.000  H
  H88      1.0000 0.62970  0.47820  0.60150  Biso   1.000  H
  C21      1.0000 0.90260  0.38950  0.03600  Biso   1.000  C
  H89      1.0000 0.93790  0.35920  0.02450  Biso   1.000  H
  H90      1.0000 0.91900  0.40480  0.20280  Biso   1.000  H
  C22      1.0000 0.83440  0.35110  0.96700  Biso   1.000  C
  H91      1.0000 0.81850  0.33560  0.80050  Biso   1.000  H
  H92      1.0000 0.79910  0.38190  0.97530  Biso   1.000  H
  C23      1.0000 0.65930  0.35710  0.54500  Biso   1.000  C
  H93      1.0000 0.67300  0.34170  0.71030  Biso   1.000  H
  H94      1.0000 0.69490  0.38800  0.53830  Biso   1.000  H
  C24      1.0000 0.58790  0.39020  0.44600  Biso   1.000  C
  H95      1.0000 0.55250  0.35910  0.45260  Biso   1.000  H
  H96      1.0000 0.57430  0.40500  0.28000  Biso   1.000  H
  N25      1.0000 0.60600  0.94810  0.62200  Biso   1.000  N
  H97      1.0000 0.62090  0.93460  0.77700  Biso   1.000  H
  H98      1.0000 0.63790  0.97720  0.61000  Biso   1.000  H
  N26      1.0000 0.65900  0.79150  0.37400  Biso   1.000  N
  H99      1.0000 0.62640  0.76210  0.37830  Biso   1.000  H
  H100     1.0000 0.64670  0.80500  0.21910  Biso   1.000  H
  N27      1.0000 0.85220  0.80000  0.12100  Biso   1.000  N
  H101     1.0000 0.88470  0.77120  0.11240  Biso   1.000  H
  H102     1.0000 0.86650  0.81470  0.27540  Biso   1.000  H
  N28      1.0000 0.90300  0.94960  0.89000  Biso   1.000  N
  H103     1.0000 0.88860  0.93530  0.73550  Biso   1.000  H
  H104     1.0000 0.87030  0.97820  0.89850  Biso   1.000  H
  C25      1.0000 0.59740  0.88950  0.46400  Biso   1.000  C
  H105     1.0000 0.56210  0.85920  0.47550  Biso   1.000  H
  H106     1.0000 0.58100  0.90480  0.29720  Biso   1.000  H
  C26      1.0000 0.66560  0.85110  0.53300  Biso   1.000  C
  H107     1.0000 0.68150  0.83560  0.69950  Biso   1.000  H
  H108     1.0000 0.70090  0.88190  0.52470  Biso   1.000  H
  C27      1.0000 0.84070  0.85710  0.95500  Biso   1.000  C
  H109     1.0000 0.82700  0.84170  0.78970  Biso   1.000  H
  H110     1.0000 0.80510  0.88800  0.96170  Biso   1.000  H
  C28      1.0000 0.91210  0.89020  0.05400  Biso   1.000  C
  H111     1.0000 0.94750  0.85910  0.04740  Biso   1.000  H
  H112     1.0000 0.92570  0.90500  0.22000  Biso   1.000  H
  N29      1.0000 0.10600  0.44810  0.62200  Biso   1.000  N
  H113     1.0000 0.12090  0.43460  0.77700  Biso   1.000  H
  H114     1.0000 0.13790  0.47720  0.61000  Biso   1.000  H
  N30      1.0000 0.15900  0.29150  0.37400  Biso   1.000  N
  H115     1.0000 0.12640  0.26210  0.37830  Biso   1.000  H
  H116     1.0000 0.14670  0.30500  0.21910  Biso   1.000  H
  N31      1.0000 0.35220  0.30000  0.12100  Biso   1.000  N
  H117     1.0000 0.38470  0.27120  0.11240  Biso   1.000  H
  H118     1.0000 0.36650  0.31470  0.27540  Biso   1.000  H
  N32      1.0000 0.40300  0.44960  0.89000  Biso   1.000  N
  H119     1.0000 0.38860  0.43530  0.73550  Biso   1.000  H
  H120     1.0000 0.37030  0.47820  0.89850  Biso   1.000  H
  C29      1.0000 0.09740  0.38950  0.46400  Biso   1.000  C
  H121     1.0000 0.06210  0.35920  0.47550  Biso   1.000  H
  H122     1.0000 0.08100  0.40480  0.29720  Biso   1.000  H
  C30      1.0000 0.16560  0.35110  0.53300  Biso   1.000  C
  H123     1.0000 0.18150  0.33560  0.69950  Biso   1.000  H
  H124     1.0000 0.20090  0.38190  0.52470  Biso   1.000  H
  C31      1.0000 0.34070  0.35710  0.95500  Biso   1.000  C
  H125     1.0000 0.32700  0.34170  0.78970  Biso   1.000  H
  H126     1.0000 0.30510  0.38800  0.96170  Biso   1.000  H
  C32      1.0000 0.41210  0.39020  0.05400  Biso   1.000  C
  H127     1.0000 0.44750  0.35910  0.04740  Biso   1.000  H
  H128     1.0000 0.42570  0.40500  0.22000  Biso   1.000  H
  Ag1      1.0000 0.50000  0.00000  0.00000  Biso   1.000  Ag
  Ag2      1.0000 0.00000  0.50000  0.00000  Biso   1.000  Ag
  Ag3      1.0000 0.50000  0.00000  0.50000  Biso   1.000  Ag
  Ag4      1.0000 0.00000  0.50000  0.50000  Biso   1.000  Ag
  Ag5      1.0000 0.75000  0.25000  0.00000  Biso   1.000  Ag
  Ag6      1.0000 0.25000  0.25000  0.50000  Biso   1.000  Ag
  Ag7      1.0000 0.25000  0.75000  0.00000  Biso   1.000  Ag
  Ag8      1.0000 0.75000  0.75000  0.50000  Biso   1.000  Ag
  Ag9      1.0000 0.75000  0.25000  0.50000  Biso   1.000  Ag
  Ag10     1.0000 0.25000  0.25000  0.00000  Biso   1.000  Ag
  Ag11     1.0000 0.25000  0.75000  0.50000  Biso   1.000  Ag
  Ag12     1.0000 0.75000  0.75000  0.00000  Biso   1.000  Ag
  Ag13     1.0000 0.00000  0.00000  0.50000  Biso   1.000  Ag
  Ag14     1.0000 0.50000  0.50000  0.50000  Biso   1.000  Ag
  Ag15     1.0000 0.00000  0.00000  0.00000  Biso   1.000  Ag
  Ag16     1.0000 0.50000  0.50000  0.00000  Biso   1.000  Ag
