data_image0
_cell_length_a       20.183
_cell_length_b       19.607
_cell_length_c       5.9778
_cell_angle_alpha    90
_cell_angle_beta     113.92
_cell_angle_gamma    90

_symmetry_space_group_name_H-M    "P 1"
_symmetry_int_tables_number       1

loop_
  _symmetry_equiv_pos_as_xyz
  'x, y, z'

loop_
  _atom_site_label
  _atom_site_occupancy
  _atom_site_fract_x
  _atom_site_fract_y
  _atom_site_fract_z
  _atom_site_thermal_displace_type
  _atom_site_B_iso_or_equiv
  _atom_site_type_symbol
  N1       1.0000 0.59300  0.05410  0.14100  Biso   1.000  N
  H1       1.0000 0.59890  0.07320  0.28500  Biso   1.000  H
  H2       1.0000 0.63160  0.02720  0.16540  Biso   1.000  H
  N2       1.0000 0.64390  0.20870  0.87000  Biso   1.000  N
  H3       1.0000 0.61230  0.23910  0.88280  Biso   1.000  H
  H4       1.0000 0.62870  0.19530  0.71310  Biso   1.000  H
  N3       1.0000 0.84250  0.19350  0.60800  Biso   1.000  N
  H5       1.0000 0.87970  0.22040  0.61730  Biso   1.000  H
  H6       1.0000 0.85270  0.17580  0.75680  Biso   1.000  H
  N4       1.0000 0.89940  0.04720  0.37200  Biso   1.000  N
  H7       1.0000 0.88690  0.06240  0.21800  Biso   1.000  H
  H8       1.0000 0.86520  0.01790  0.37280  Biso   1.000  H
  C1       1.0000 0.58540  0.10620  0.95900  Biso   1.000  C
  H9       1.0000 0.54410  0.13490  0.93770  Biso   1.000  H
  H10      1.0000 0.57620  0.08450  0.80320  Biso   1.000  H
  C2       1.0000 0.65270  0.14950  0.03400  Biso   1.000  C
  H11      1.0000 0.66530  0.16600  0.19950  Biso   1.000  H
  H12      1.0000 0.69240  0.12150  0.03580  Biso   1.000  H
  C3       1.0000 0.83350  0.13890  0.43400  Biso   1.000  C
  H13      1.0000 0.82270  0.15660  0.27100  Biso   1.000  H
  H14      1.0000 0.79540  0.10760  0.42630  Biso   1.000  H
  C4       1.0000 0.90690  0.10520  0.54100  Biso   1.000  C
  H15      1.0000 0.94460  0.13640  0.54430  Biso   1.000  H
  H16      1.0000 0.91810  0.08910  0.70580  Biso   1.000  H
  N5       1.0000 0.09300  0.55410  0.14100  Biso   1.000  N
  H17      1.0000 0.09890  0.57320  0.28500  Biso   1.000  H
  H18      1.0000 0.13160  0.52720  0.16540  Biso   1.000  H
  N6       1.0000 0.14390  0.70870  0.87000  Biso   1.000  N
  H19      1.0000 0.11230  0.73910  0.88280  Biso   1.000  H
  H20      1.0000 0.12870  0.69530  0.71310  Biso   1.000  H
  N7       1.0000 0.34250  0.69350  0.60800  Biso   1.000  N
  H21      1.0000 0.37970  0.72040  0.61730  Biso   1.000  H
  H22      1.0000 0.35270  0.67580  0.75680  Biso   1.000  H
  N8       1.0000 0.39940  0.54720  0.37200  Biso   1.000  N
  H23      1.0000 0.38690  0.56240  0.21800  Biso   1.000  H
  H24      1.0000 0.36520  0.51790  0.37280  Biso   1.000  H
  C5       1.0000 0.08540  0.60620  0.95900  Biso   1.000  C
  H25      1.0000 0.04410  0.63490  0.93770  Biso   1.000  H
  H26      1.0000 0.07620  0.58450  0.80320  Biso   1.000  H
  C6       1.0000 0.15270  0.64950  0.03400  Biso   1.000  C
  H27      1.0000 0.16530  0.66600  0.19950  Biso   1.000  H
  H28      1.0000 0.19240  0.62150  0.03580  Biso   1.000  H
  C7       1.0000 0.33350  0.63890  0.43400  Biso   1.000  C
  H29      1.0000 0.32270  0.65660  0.27100  Biso   1.000  H
  H30      1.0000 0.29540  0.60760  0.42630  Biso   1.000  H
  C8       1.0000 0.40690  0.60520  0.54100  Biso   1.000  C
  H31      1.0000 0.44460  0.63640  0.54430  Biso   1.000  H
  H32      1.0000 0.41810  0.58910  0.70580  Biso   1.000  H
  N9       1.0000 0.40700  0.05410  0.35900  Biso   1.000  N
  H33      1.0000 0.40110  0.07320  0.21500  Biso   1.000  H
  H34      1.0000 0.36840  0.02720  0.33460  Biso   1.000  H
  N10      1.0000 0.35610  0.20870  0.63000  Biso   1.000  N
  H35      1.0000 0.38770  0.23910  0.61720  Biso   1.000  H
  H36      1.0000 0.37130  0.19530  0.78690  Biso   1.000  H
  N11      1.0000 0.15750  0.19350  0.89200  Biso   1.000  N
  H37      1.0000 0.12030  0.22040  0.88270  Biso   1.000  H
  H38      1.0000 0.14730  0.17580  0.74320  Biso   1.000  H
  N12      1.0000 0.10060  0.04720  0.12800  Biso   1.000  N
  H39      1.0000 0.11310  0.06240  0.28200  Biso   1.000  H
  H40      1.0000 0.13480  0.01790  0.12720  Biso   1.000  H
  C9       1.0000 0.41460  0.10620  0.54100  Biso   1.000  C
  H41      1.0000 0.45590  0.13490  0.56230  Biso   1.000  H
  H42      1.0000 0.42380  0.08450  0.69680  Biso   1.000  H
  C10      1.0000 0.34730  0.14950  0.46600  Biso   1.000  C
  H43      1.0000 0.33470  0.16600  0.30050  Biso   1.000  H
  H44      1.0000 0.30760  0.12150  0.46420  Biso   1.000  H
  C11      1.0000 0.16650  0.13890  0.06600  Biso   1.000  C
  H45      1.0000 0.17730  0.15660  0.22900  Biso   1.000  H
  H46      1.0000 0.20460  0.10760  0.07370  Biso   1.000  H
  C12      1.0000 0.09310  0.10520  0.95900  Biso   1.000  C
  H47      1.0000 0.05540  0.13640  0.95570  Biso   1.000  H
  H48      1.0000 0.08190  0.08910  0.79420  Biso   1.000  H
  N13      1.0000 0.90700  0.55410  0.35900  Biso   1.000  N
  H49      1.0000 0.90110  0.57320  0.21500  Biso   1.000  H
  H50      1.0000 0.86840  0.52720  0.33460  Biso   1.000  H
  N14      1.0000 0.85610  0.70870  0.63000  Biso   1.000  N
  H51      1.0000 0.88770  0.73910  0.61720  Biso   1.000  H
  H52      1.0000 0.87130  0.69530  0.78690  Biso   1.000  H
  N15      1.0000 0.65750  0.69350  0.89200  Biso   1.000  N
  H53      1.0000 0.62030  0.72040  0.88270  Biso   1.000  H
  H54      1.0000 0.64730  0.67580  0.74320  Biso   1.000  H
  N16      1.0000 0.60060  0.54720  0.12800  Biso   1.000  N
  H55      1.0000 0.61310  0.56240  0.28200  Biso   1.000  H
  H56      1.0000 0.63480  0.51790  0.12720  Biso   1.000  H
  C13      1.0000 0.91460  0.60620  0.54100  Biso   1.000  C
  H57      1.0000 0.95590  0.63490  0.56230  Biso   1.000  H
  H58      1.0000 0.92380  0.58450  0.69680  Biso   1.000  H
  C14      1.0000 0.84730  0.64950  0.46600  Biso   1.000  C
  H59      1.0000 0.83470  0.66600  0.30050  Biso   1.000  H
  H60      1.0000 0.80760  0.62150  0.46420  Biso   1.000  H
  C15      1.0000 0.66650  0.63890  0.06600  Biso   1.000  C
  H61      1.0000 0.67730  0.65660  0.22900  Biso   1.000  H
  H62      1.0000 0.70460  0.60760  0.07370  Biso   1.000  H
  C16      1.0000 0.59310  0.60520  0.95900  Biso   1.000  C
  H63      1.0000 0.55540  0.63640  0.95570  Biso   1.000  H
  H64      1.0000 0.58190  0.58910  0.79420  Biso   1.000  H
  N17      1.0000 0.40700  0.94590  0.85900  Biso   1.000  N
  H65      1.0000 0.40110  0.92680  0.71500  Biso   1.000  H
  H66      1.0000 0.36840  0.97280  0.83460  Biso   1.000  H
  N18      1.0000 0.35610  0.79130  0.13000  Biso   1.000  N
  H67      1.0000 0.38770  0.76090  0.11720  Biso   1.000  H
  H68      1.0000 0.37130  0.80470  0.28690  Biso   1.000  H
  N19      1.0000 0.15750  0.80650  0.39200  Biso   1.000  N
  H69      1.0000 0.12030  0.77960  0.38270  Biso   1.000  H
  H70      1.0000 0.14730  0.82420  0.24320  Biso   1.000  H
  N20      1.0000 0.10060  0.95280  0.62800  Biso   1.000  N
  H71      1.0000 0.11310  0.93760  0.78200  Biso   1.000  H
  H72      1.0000 0.13480  0.98210  0.62720  Biso   1.000  H
  C17      1.0000 0.41460  0.89380  0.04100  Biso   1.000  C
  H73      1.0000 0.45590  0.86510  0.06230  Biso   1.000  H
  H74      1.0000 0.42380  0.91550  0.19680  Biso   1.000  H
  C18      1.0000 0.34730  0.85050  0.96600  Biso   1.000  C
  H75      1.0000 0.33470  0.83400  0.80050  Biso   1.000  H
  H76      1.0000 0.30760  0.87850  0.96420  Biso   1.000  H
  C19      1.0000 0.16650  0.86110  0.56600  Biso   1.000  C
  H77      1.0000 0.17730  0.84340  0.72900  Biso   1.000  H
  H78      1.0000 0.20460  0.89240  0.57370  Biso   1.000  H
  C20      1.0000 0.09310  0.89480  0.45900  Biso   1.000  C
  H79      1.0000 0.05540  0.86360  0.45570  Biso   1.000  H
  H80      1.0000 0.08190  0.91090  0.29420  Biso   1.000  H
  N21      1.0000 0.90700  0.44590  0.85900  Biso   1.000  N
  H81      1.0000 0.90110  0.42680  0.71500  Biso   1.000  H
  H82      1.0000 0.86840  0.47280  0.83460  Biso   1.000  H
  N22      1.0000 0.85610  0.29130  0.13000  Biso   1.000  N
  H83      1.0000 0.88770  0.26090  0.11720  Biso   1.000  H
  H84      1.0000 0.87130  0.30470  0.28690  Biso   1.000  H
  N23      1.0000 0.65750  0.30650  0.39200  Biso   1.000  N
  H85      1.0000 0.62030  0.27960  0.38270  Biso   1.000  H
  H86      1.0000 0.64730  0.32420  0.24320  Biso   1.000  H
  N24      1.0000 0.60060  0.45280  0.62800  Biso   1.000  N
  H87      1.0000 0.61310  0.43760  0.78200  Biso   1.000  H
  H88      1.0000 0.63480  0.48210  0.62720  Biso   1.000  H
  C21      1.0000 0.91460  0.39380  0.04100  Biso   1.000  C
  H89      1.0000 0.95590  0.36510  0.06230  Biso   1.000  H
  H90      1.0000 0.92380  0.41550  0.19680  Biso   1.000  H
  C22      1.0000 0.84730  0.35050  0.96600  Biso   1.000  C
  H91      1.0000 0.83470  0.33400  0.80050  Biso   1.000  H
  H92      1.0000 0.80760  0.37850  0.96420  Biso   1.000  H
  C23      1.0000 0.66650  0.36110  0.56600  Biso   1.000  C
  H93      1.0000 0.67730  0.34340  0.72900  Biso   1.000  H
  H94      1.0000 0.70460  0.39240  0.57370  Biso   1.000  H
  C24      1.0000 0.59310  0.39480  0.45900  Biso   1.000  C
  H95      1.0000 0.55540  0.36360  0.45570  Biso   1.000  H
  H96      1.0000 0.58190  0.41090  0.29420  Biso   1.000  H
  N25      1.0000 0.59300  0.94590  0.64100  Biso   1.000  N
  H97      1.0000 0.59890  0.92680  0.78500  Biso   1.000  H
  H98      1.0000 0.63160  0.97280  0.66540  Biso   1.000  H
  N26      1.0000 0.64390  0.79130  0.37000  Biso   1.000  N
  H99      1.0000 0.61230  0.76090  0.38280  Biso   1.000  H
  H100     1.0000 0.62870  0.80470  0.21310  Biso   1.000  H
  N27      1.0000 0.84250  0.80650  0.10800  Biso   1.000  N
  H101     1.0000 0.87970  0.77960  0.11730  Biso   1.000  H
  H102     1.0000 0.85270  0.82420  0.25680  Biso   1.000  H
  N28      1.0000 0.89940  0.95280  0.87200  Biso   1.000  N
  H103     1.0000 0.88690  0.93760  0.71800  Biso   1.000  H
  H104     1.0000 0.86520  0.98210  0.87280  Biso   1.000  H
  C25      1.0000 0.58540  0.89380  0.45900  Biso   1.000  C
  H105     1.0000 0.54410  0.86510  0.43770  Biso   1.000  H
  H106     1.0000 0.57620  0.91550  0.30320  Biso   1.000  H
  C26      1.0000 0.65270  0.85050  0.53400  Biso   1.000  C
  H107     1.0000 0.66530  0.83400  0.69950  Biso   1.000  H
  H108     1.0000 0.69240  0.87850  0.53580  Biso   1.000  H
  C27      1.0000 0.83350  0.86110  0.93400  Biso   1.000  C
  H109     1.0000 0.82270  0.84340  0.77100  Biso   1.000  H
  H110     1.0000 0.79540  0.89240  0.92630  Biso   1.000  H
  C28      1.0000 0.90690  0.89480  0.04100  Biso   1.000  C
  H111     1.0000 0.94460  0.86360  0.04430  Biso   1.000  H
  H112     1.0000 0.91810  0.91090  0.20580  Biso   1.000  H
  N29      1.0000 0.09300  0.44590  0.64100  Biso   1.000  N
  H113     1.0000 0.09890  0.42680  0.78500  Biso   1.000  H
  H114     1.0000 0.13160  0.47280  0.66540  Biso   1.000  H
  N30      1.0000 0.14390  0.29130  0.37000  Biso   1.000  N
  H115     1.0000 0.11230  0.26090  0.38280  Biso   1.000  H
  H116     1.0000 0.12870  0.30470  0.21310  Biso   1.000  H
  N31      1.0000 0.34250  0.30650  0.10800  Biso   1.000  N
  H117     1.0000 0.37970  0.27960  0.11730  Biso   1.000  H
  H118     1.0000 0.35270  0.32420  0.25680  Biso   1.000  H
  N32      1.0000 0.39940  0.45280  0.87200  Biso   1.000  N
  H119     1.0000 0.38690  0.43760  0.71800  Biso   1.000  H
  H120     1.0000 0.36520  0.48210  0.87280  Biso   1.000  H
  C29      1.0000 0.08540  0.39380  0.45900  Biso   1.000  C
  H121     1.0000 0.04410  0.36510  0.43770  Biso   1.000  H
  H122     1.0000 0.07620  0.41550  0.30320  Biso   1.000  H
  C30      1.0000 0.15270  0.35050  0.53400  Biso   1.000  C
  H123     1.0000 0.16530  0.33400  0.69950  Biso   1.000  H
  H124     1.0000 0.19240  0.37850  0.53580  Biso   1.000  H
  C31      1.0000 0.33350  0.36110  0.93400  Biso   1.000  C
  H125     1.0000 0.32270  0.34340  0.77100  Biso   1.000  H
  H126     1.0000 0.29540  0.39240  0.92630  Biso   1.000  H
  C32      1.0000 0.40690  0.39480  0.04100  Biso   1.000  C
  H127     1.0000 0.44460  0.36360  0.04430  Biso   1.000  H
  H128     1.0000 0.41810  0.41090  0.20580  Biso   1.000  H
  Ag1      1.0000 0.50000  0.00000  0.00000  Biso   1.000  Ag
  Ag2      1.0000 0.00000  0.50000  0.00000  Biso   1.000  Ag
  Ag3      1.0000 0.50000  0.00000  0.50000  Biso   1.000  Ag
  Ag4      1.0000 0.00000  0.50000  0.50000  Biso   1.000  Ag
  Ag5      1.0000 0.75000  0.25000  0.00000  Biso   1.000  Ag
  Ag6      1.0000 0.25000  0.25000  0.50000  Biso   1.000  Ag
  Ag7      1.0000 0.25000  0.75000  0.00000  Biso   1.000  Ag
  Ag8      1.0000 0.75000  0.75000  0.50000  Biso   1.000  Ag
  Ag9      1.0000 0.75000  0.25000  0.50000  Biso   1.000  Ag
  Ag10     1.0000 0.25000  0.25000  0.00000  Biso   1.000  Ag
  Ag11     1.0000 0.25000  0.75000  0.50000  Biso   1.000  Ag
  Ag12     1.0000 0.75000  0.75000  0.00000  Biso   1.000  Ag
  Ag13     1.0000 0.00000  0.00000  0.50000  Biso   1.000  Ag
  Ag14     1.0000 0.50000  0.50000  0.50000  Biso   1.000  Ag
  Ag15     1.0000 0.00000  0.00000  0.00000  Biso   1.000  Ag
  Ag16     1.0000 0.50000  0.50000  0.00000  Biso   1.000  Ag
