data_image0
_cell_length_a       10.4305
_cell_length_b       10.5272
_cell_length_c       6.2956
_cell_angle_alpha    90
_cell_angle_beta     115.16
_cell_angle_gamma    90

_symmetry_space_group_name_H-M    "P 1"
_symmetry_int_tables_number       1

loop_
  _symmetry_equiv_pos_as_xyz
  'x, y, z'

loop_
  _atom_site_label
  _atom_site_occupancy
  _atom_site_fract_x
  _atom_site_fract_y
  _atom_site_fract_z
  _atom_site_thermal_displace_type
  _atom_site_B_iso_or_equiv
  _atom_site_type_symbol
  C1       1.0000 0.31640  0.21040  0.54610  Biso   1.000  C
  H1       1.0000 0.39720  0.26520  0.57730  Biso   1.000  H
  H2       1.0000 0.32860  0.17170  0.69330  Biso   1.000  H
  N1       1.0000 0.31300  0.11040  0.38140  Biso   1.000  N
  H3       1.0000 0.29870  0.14660  0.24360  Biso   1.000  H
  H4       1.0000 0.23900  0.05880  0.35560  Biso   1.000  H
  C2       1.0000 0.81640  0.71040  0.54610  Biso   1.000  C
  H5       1.0000 0.89720  0.76520  0.57730  Biso   1.000  H
  H6       1.0000 0.82860  0.67170  0.69330  Biso   1.000  H
  N2       1.0000 0.81300  0.61040  0.38140  Biso   1.000  N
  H7       1.0000 0.79870  0.64660  0.24360  Biso   1.000  H
  H8       1.0000 0.73900  0.55880  0.35560  Biso   1.000  H
  C3       1.0000 0.68360  0.21040  0.95390  Biso   1.000  C
  H9       1.0000 0.60280  0.26520  0.92270  Biso   1.000  H
  H10      1.0000 0.67140  0.17170  0.80670  Biso   1.000  H
  N3       1.0000 0.68700  0.11040  0.11860  Biso   1.000  N
  H11      1.0000 0.70130  0.14660  0.25640  Biso   1.000  H
  H12      1.0000 0.76100  0.05880  0.14440  Biso   1.000  H
  C4       1.0000 0.18360  0.71040  0.95390  Biso   1.000  C
  H13      1.0000 0.10280  0.76520  0.92270  Biso   1.000  H
  H14      1.0000 0.17140  0.67170  0.80670  Biso   1.000  H
  N4       1.0000 0.18700  0.61040  0.11860  Biso   1.000  N
  H15      1.0000 0.20130  0.64660  0.25640  Biso   1.000  H
  H16      1.0000 0.26100  0.55880  0.14440  Biso   1.000  H
  C5       1.0000 0.68360  0.78960  0.45390  Biso   1.000  C
  H17      1.0000 0.60280  0.73480  0.42270  Biso   1.000  H
  H18      1.0000 0.67140  0.82830  0.30670  Biso   1.000  H
  N5       1.0000 0.68700  0.88960  0.61860  Biso   1.000  N
  H19      1.0000 0.70130  0.85340  0.75640  Biso   1.000  H
  H20      1.0000 0.76100  0.94120  0.64440  Biso   1.000  H
  C6       1.0000 0.18360  0.28960  0.45390  Biso   1.000  C
  H21      1.0000 0.10280  0.23480  0.42270  Biso   1.000  H
  H22      1.0000 0.17140  0.32830  0.30670  Biso   1.000  H
  N6       1.0000 0.18700  0.38960  0.61860  Biso   1.000  N
  H23      1.0000 0.20130  0.35340  0.75640  Biso   1.000  H
  H24      1.0000 0.26100  0.44120  0.64440  Biso   1.000  H
  C7       1.0000 0.31640  0.78960  0.04610  Biso   1.000  C
  H25      1.0000 0.39720  0.73480  0.07730  Biso   1.000  H
  H26      1.0000 0.32860  0.82830  0.19330  Biso   1.000  H
  N7       1.0000 0.31300  0.88960  0.88140  Biso   1.000  N
  H27      1.0000 0.29870  0.85340  0.74360  Biso   1.000  H
  H28      1.0000 0.23900  0.94120  0.85560  Biso   1.000  H
  C8       1.0000 0.81640  0.28960  0.04610  Biso   1.000  C
  H29      1.0000 0.89720  0.23480  0.07730  Biso   1.000  H
  H30      1.0000 0.82860  0.32830  0.19330  Biso   1.000  H
  N8       1.0000 0.81300  0.38960  0.88140  Biso   1.000  N
  H31      1.0000 0.79870  0.35340  0.74360  Biso   1.000  H
  H32      1.0000 0.73900  0.44120  0.85560  Biso   1.000  H
  Ag1      1.0000 0.50000  0.00000  0.50000  Biso   1.000  Ag
  Ag2      1.0000 0.00000  0.50000  0.50000  Biso   1.000  Ag
  Ag3      1.0000 0.50000  0.00000  0.00000  Biso   1.000  Ag
  Ag4      1.0000 0.00000  0.50000  0.00000  Biso   1.000  Ag
