data_image0
_cell_length_a       10.521
_cell_length_b       10.426
_cell_length_c       6.202
_cell_angle_alpha    90
_cell_angle_beta     115
_cell_angle_gamma    90

_symmetry_space_group_name_H-M    "P 1"
_symmetry_int_tables_number       1

loop_
  _symmetry_equiv_pos_as_xyz
  'x, y, z'

loop_
  _atom_site_label
  _atom_site_occupancy
  _atom_site_fract_x
  _atom_site_fract_y
  _atom_site_fract_z
  _atom_site_thermal_displace_type
  _atom_site_B_iso_or_equiv
  _atom_site_type_symbol
  C1       1.0000 0.31440  0.20980  0.54600  Biso   1.000  C
  H1       1.0000 0.39540  0.26340  0.57450  Biso   1.000  H
  H2       1.0000 0.32690  0.17130  0.69610  Biso   1.000  H
  N1       1.0000 0.30500  0.10830  0.37600  Biso   1.000  N
  H3       1.0000 0.28710  0.14360  0.23330  Biso   1.000  H
  H4       1.0000 0.23380  0.05510  0.35730  Biso   1.000  H
  C2       1.0000 0.81440  0.70980  0.54600  Biso   1.000  C
  H5       1.0000 0.89540  0.76340  0.57450  Biso   1.000  H
  H6       1.0000 0.82690  0.67130  0.69610  Biso   1.000  H
  N2       1.0000 0.80500  0.60830  0.37600  Biso   1.000  N
  H7       1.0000 0.78710  0.64360  0.23330  Biso   1.000  H
  H8       1.0000 0.73380  0.55510  0.35730  Biso   1.000  H
  C3       1.0000 0.68560  0.20980  0.95400  Biso   1.000  C
  H9       1.0000 0.60460  0.26340  0.92550  Biso   1.000  H
  H10      1.0000 0.67310  0.17130  0.80390  Biso   1.000  H
  N3       1.0000 0.69500  0.10830  0.12400  Biso   1.000  N
  H11      1.0000 0.71290  0.14360  0.26670  Biso   1.000  H
  H12      1.0000 0.76620  0.05510  0.14270  Biso   1.000  H
  C4       1.0000 0.18560  0.70980  0.95400  Biso   1.000  C
  H13      1.0000 0.10460  0.76340  0.92550  Biso   1.000  H
  H14      1.0000 0.17310  0.67130  0.80390  Biso   1.000  H
  N4       1.0000 0.19500  0.60830  0.12400  Biso   1.000  N
  H15      1.0000 0.21290  0.64360  0.26670  Biso   1.000  H
  H16      1.0000 0.26620  0.55510  0.14270  Biso   1.000  H
  C5       1.0000 0.68560  0.79020  0.45400  Biso   1.000  C
  H17      1.0000 0.60460  0.73660  0.42550  Biso   1.000  H
  H18      1.0000 0.67310  0.82870  0.30390  Biso   1.000  H
  N5       1.0000 0.69500  0.89170  0.62400  Biso   1.000  N
  H19      1.0000 0.71290  0.85640  0.76670  Biso   1.000  H
  H20      1.0000 0.76620  0.94490  0.64270  Biso   1.000  H
  C6       1.0000 0.18560  0.29020  0.45400  Biso   1.000  C
  H21      1.0000 0.10460  0.23660  0.42550  Biso   1.000  H
  H22      1.0000 0.17310  0.32870  0.30390  Biso   1.000  H
  N6       1.0000 0.19500  0.39170  0.62400  Biso   1.000  N
  H23      1.0000 0.21290  0.35640  0.76670  Biso   1.000  H
  H24      1.0000 0.26620  0.44490  0.64270  Biso   1.000  H
  C7       1.0000 0.31440  0.79020  0.04600  Biso   1.000  C
  H25      1.0000 0.39540  0.73660  0.07450  Biso   1.000  H
  H26      1.0000 0.32690  0.82870  0.19610  Biso   1.000  H
  N7       1.0000 0.30500  0.89170  0.87600  Biso   1.000  N
  H27      1.0000 0.28710  0.85640  0.73330  Biso   1.000  H
  H28      1.0000 0.23380  0.94490  0.85730  Biso   1.000  H
  C8       1.0000 0.81440  0.29020  0.04600  Biso   1.000  C
  H29      1.0000 0.89540  0.23660  0.07450  Biso   1.000  H
  H30      1.0000 0.82690  0.32870  0.19610  Biso   1.000  H
  N8       1.0000 0.80500  0.39170  0.87600  Biso   1.000  N
  H31      1.0000 0.78710  0.35640  0.73330  Biso   1.000  H
  H32      1.0000 0.73380  0.44490  0.85730  Biso   1.000  H
  Ag1      1.0000 0.50000  0.00000  0.50000  Biso   1.000  Ag
  Ag2      1.0000 0.00000  0.50000  0.50000  Biso   1.000  Ag
  Ag3      1.0000 0.50000  0.00000  0.00000  Biso   1.000  Ag
  Ag4      1.0000 0.00000  0.50000  0.00000  Biso   1.000  Ag
