data_image0
_cell_length_a       10.632
_cell_length_b       10.219
_cell_length_c       6.115
_cell_angle_alpha    90
_cell_angle_beta     114.46
_cell_angle_gamma    90

_symmetry_space_group_name_H-M    "P 1"
_symmetry_int_tables_number       1

loop_
  _symmetry_equiv_pos_as_xyz
  'x, y, z'

loop_
  _atom_site_label
  _atom_site_occupancy
  _atom_site_fract_x
  _atom_site_fract_y
  _atom_site_fract_z
  _atom_site_thermal_displace_type
  _atom_site_B_iso_or_equiv
  _atom_site_type_symbol
  C1       1.0000 0.31500  0.21390  0.53600  Biso   1.000  C
  H1       1.0000 0.34370  0.18200  0.69860  Biso   1.000  H
  H2       1.0000 0.38610  0.27200  0.53210  Biso   1.000  H
  N1       1.0000 0.29800  0.10300  0.37300  Biso   1.000  N
  H3       1.0000 0.27300  0.13180  0.22140  Biso   1.000  H
  H4       1.0000 0.23210  0.04830  0.37490  Biso   1.000  H
  C2       1.0000 0.81500  0.71390  0.53600  Biso   1.000  C
  H5       1.0000 0.84370  0.68200  0.69860  Biso   1.000  H
  H6       1.0000 0.88610  0.77200  0.53210  Biso   1.000  H
  N2       1.0000 0.79800  0.60300  0.37300  Biso   1.000  N
  H7       1.0000 0.77300  0.63180  0.22140  Biso   1.000  H
  H8       1.0000 0.73210  0.54830  0.37490  Biso   1.000  H
  C3       1.0000 0.68500  0.21390  0.96400  Biso   1.000  C
  H9       1.0000 0.65630  0.18200  0.80140  Biso   1.000  H
  H10      1.0000 0.61390  0.27200  0.96790  Biso   1.000  H
  N3       1.0000 0.70200  0.10300  0.12700  Biso   1.000  N
  H11      1.0000 0.72700  0.13180  0.27860  Biso   1.000  H
  H12      1.0000 0.76790  0.04830  0.12510  Biso   1.000  H
  C4       1.0000 0.18500  0.71390  0.96400  Biso   1.000  C
  H13      1.0000 0.15630  0.68200  0.80140  Biso   1.000  H
  H14      1.0000 0.11390  0.77200  0.96790  Biso   1.000  H
  N4       1.0000 0.20200  0.60300  0.12700  Biso   1.000  N
  H15      1.0000 0.22700  0.63180  0.27860  Biso   1.000  H
  H16      1.0000 0.26790  0.54830  0.12510  Biso   1.000  H
  C5       1.0000 0.68500  0.78610  0.46400  Biso   1.000  C
  H17      1.0000 0.65630  0.81800  0.30140  Biso   1.000  H
  H18      1.0000 0.61390  0.72800  0.46790  Biso   1.000  H
  N5       1.0000 0.70200  0.89700  0.62700  Biso   1.000  N
  H19      1.0000 0.72700  0.86820  0.77860  Biso   1.000  H
  H20      1.0000 0.76790  0.95170  0.62510  Biso   1.000  H
  C6       1.0000 0.18500  0.28610  0.46400  Biso   1.000  C
  H21      1.0000 0.15630  0.31800  0.30140  Biso   1.000  H
  H22      1.0000 0.11390  0.22800  0.46790  Biso   1.000  H
  N6       1.0000 0.20200  0.39700  0.62700  Biso   1.000  N
  H23      1.0000 0.22700  0.36820  0.77860  Biso   1.000  H
  H24      1.0000 0.26790  0.45170  0.62510  Biso   1.000  H
  C7       1.0000 0.31500  0.78610  0.03600  Biso   1.000  C
  H25      1.0000 0.34370  0.81800  0.19860  Biso   1.000  H
  H26      1.0000 0.38610  0.72800  0.03210  Biso   1.000  H
  N7       1.0000 0.29800  0.89700  0.87300  Biso   1.000  N
  H27      1.0000 0.27300  0.86820  0.72140  Biso   1.000  H
  H28      1.0000 0.23210  0.95170  0.87490  Biso   1.000  H
  C8       1.0000 0.81500  0.28610  0.03600  Biso   1.000  C
  H29      1.0000 0.84370  0.31800  0.19860  Biso   1.000  H
  H30      1.0000 0.88610  0.22800  0.03210  Biso   1.000  H
  N8       1.0000 0.79800  0.39700  0.87300  Biso   1.000  N
  H31      1.0000 0.77300  0.36820  0.72140  Biso   1.000  H
  H32      1.0000 0.73210  0.45170  0.87490  Biso   1.000  H
  Ag1      1.0000 0.50000  0.00000  0.50000  Biso   1.000  Ag
  Ag2      1.0000 0.00000  0.50000  0.50000  Biso   1.000  Ag
  Ag3      1.0000 0.50000  0.00000  0.00000  Biso   1.000  Ag
  Ag4      1.0000 0.00000  0.50000  0.00000  Biso   1.000  Ag
