data_image0
_cell_length_a       10.3159
_cell_length_b       10.5935
_cell_length_c       6.2495
_cell_angle_alpha    90
_cell_angle_beta     114.772
_cell_angle_gamma    90

_symmetry_space_group_name_H-M    "P 1"
_symmetry_int_tables_number       1

loop_
  _symmetry_equiv_pos_as_xyz
  'x, y, z'

loop_
  _atom_site_label
  _atom_site_occupancy
  _atom_site_fract_x
  _atom_site_fract_y
  _atom_site_fract_z
  _atom_site_thermal_displace_type
  _atom_site_B_iso_or_equiv
  _atom_site_type_symbol
  C1       1.0000 0.31740  0.21090  0.54590  Biso   1.000  C
  H1       1.0000 0.39920  0.26570  0.57220  Biso   1.000  H
  H2       1.0000 0.33160  0.17360  0.69760  Biso   1.000  H
  N1       1.0000 0.31150  0.10960  0.38100  Biso   1.000  N
  H3       1.0000 0.29610  0.14450  0.23930  Biso   1.000  H
  H4       1.0000 0.23630  0.05820  0.35880  Biso   1.000  H
  C2       1.0000 0.81740  0.71090  0.54590  Biso   1.000  C
  H5       1.0000 0.89920  0.76570  0.57220  Biso   1.000  H
  H6       1.0000 0.83160  0.67360  0.69760  Biso   1.000  H
  N2       1.0000 0.81150  0.60960  0.38100  Biso   1.000  N
  H7       1.0000 0.79610  0.64450  0.23930  Biso   1.000  H
  H8       1.0000 0.73630  0.55820  0.35880  Biso   1.000  H
  C3       1.0000 0.68260  0.21090  0.95410  Biso   1.000  C
  H9       1.0000 0.60080  0.26570  0.92780  Biso   1.000  H
  H10      1.0000 0.66840  0.17360  0.80240  Biso   1.000  H
  N3       1.0000 0.68850  0.10960  0.11900  Biso   1.000  N
  H11      1.0000 0.70390  0.14450  0.26070  Biso   1.000  H
  H12      1.0000 0.76370  0.05820  0.14120  Biso   1.000  H
  C4       1.0000 0.18260  0.71090  0.95410  Biso   1.000  C
  H13      1.0000 0.10080  0.76570  0.92780  Biso   1.000  H
  H14      1.0000 0.16840  0.67360  0.80240  Biso   1.000  H
  N4       1.0000 0.18850  0.60960  0.11900  Biso   1.000  N
  H15      1.0000 0.20390  0.64450  0.26070  Biso   1.000  H
  H16      1.0000 0.26370  0.55820  0.14120  Biso   1.000  H
  C5       1.0000 0.68260  0.78910  0.45410  Biso   1.000  C
  H17      1.0000 0.60080  0.73430  0.42780  Biso   1.000  H
  H18      1.0000 0.66840  0.82640  0.30240  Biso   1.000  H
  N5       1.0000 0.68850  0.89040  0.61900  Biso   1.000  N
  H19      1.0000 0.70390  0.85550  0.76070  Biso   1.000  H
  H20      1.0000 0.76370  0.94180  0.64120  Biso   1.000  H
  C6       1.0000 0.18260  0.28910  0.45410  Biso   1.000  C
  H21      1.0000 0.10080  0.23430  0.42780  Biso   1.000  H
  H22      1.0000 0.16840  0.32640  0.30240  Biso   1.000  H
  N6       1.0000 0.18850  0.39040  0.61900  Biso   1.000  N
  H23      1.0000 0.20390  0.35550  0.76070  Biso   1.000  H
  H24      1.0000 0.26370  0.44180  0.64120  Biso   1.000  H
  C7       1.0000 0.31740  0.78910  0.04590  Biso   1.000  C
  H25      1.0000 0.39920  0.73430  0.07220  Biso   1.000  H
  H26      1.0000 0.33160  0.82640  0.19760  Biso   1.000  H
  N7       1.0000 0.31150  0.89040  0.88100  Biso   1.000  N
  H27      1.0000 0.29610  0.85550  0.73930  Biso   1.000  H
  H28      1.0000 0.23630  0.94180  0.85880  Biso   1.000  H
  C8       1.0000 0.81740  0.28910  0.04590  Biso   1.000  C
  H29      1.0000 0.89920  0.23430  0.07220  Biso   1.000  H
  H30      1.0000 0.83160  0.32640  0.19760  Biso   1.000  H
  N8       1.0000 0.81150  0.39040  0.88100  Biso   1.000  N
  H31      1.0000 0.79610  0.35550  0.73930  Biso   1.000  H
  H32      1.0000 0.73630  0.44180  0.85880  Biso   1.000  H
  Ag1      1.0000 0.50000  0.00000  0.50000  Biso   1.000  Ag
  Ag2      1.0000 0.00000  0.50000  0.50000  Biso   1.000  Ag
  Ag3      1.0000 0.50000  0.00000  0.00000  Biso   1.000  Ag
  Ag4      1.0000 0.00000  0.50000  0.00000  Biso   1.000  Ag
