data_image0
_cell_length_a       19.202
_cell_length_b       21.012
_cell_length_c       6.277
_cell_angle_alpha    90
_cell_angle_beta     101.011
_cell_angle_gamma    90

_symmetry_space_group_name_H-M    "P 1"
_symmetry_int_tables_number       1

loop_
  _symmetry_equiv_pos_as_xyz
  'x, y, z'

loop_
  _atom_site_label
  _atom_site_occupancy
  _atom_site_fract_x
  _atom_site_fract_y
  _atom_site_fract_z
  _atom_site_thermal_displace_type
  _atom_site_B_iso_or_equiv
  _atom_site_type_symbol
  N1       1.0000 0.59420  0.94530  0.07120  Biso   1.000  N
  H1       1.0000 0.60220  0.92740  0.94780  Biso   1.000  H
  H2       1.0000 0.63090  0.97120  0.12200  Biso   1.000  H
  N2       1.0000 0.65760  0.80550  0.43410  Biso   1.000  N
  H3       1.0000 0.62030  0.77960  0.39010  Biso   1.000  H
  H4       1.0000 0.65140  0.82430  0.55800  Biso   1.000  H
  C1       1.0000 0.59110  0.89540  0.22980  Biso   1.000  C
  H5       1.0000 0.55030  0.86840  0.17900  Biso   1.000  H
  H6       1.0000 0.58520  0.91450  0.36590  Biso   1.000  H
  C2       1.0000 0.65760  0.85550  0.26700  Biso   1.000  C
  H7       1.0000 0.66250  0.83540  0.13140  Biso   1.000  H
  H8       1.0000 0.69840  0.88290  0.31170  Biso   1.000  H
  N3       1.0000 0.84410  0.80510  0.06940  Biso   1.000  N
  H9       1.0000 0.88100  0.77910  0.11850  Biso   1.000  H
  H10      1.0000 0.85170  0.82300  0.94550  Biso   1.000  H
  N4       1.0000 0.90730  0.94440  0.43600  Biso   1.000  N
  H11      1.0000 0.90110  0.92590  0.56030  Biso   1.000  H
  H12      1.0000 0.86990  0.97010  0.39090  Biso   1.000  H
  C3       1.0000 0.84240  0.85490  0.22810  Biso   1.000  C
  H13      1.0000 0.83580  0.83570  0.36340  Biso   1.000  H
  H14      1.0000 0.80210  0.88240  0.17740  Biso   1.000  H
  C4       1.0000 0.90820  0.89400  0.26930  Biso   1.000  C
  H15      1.0000 0.91430  0.91390  0.13450  Biso   1.000  H
  H16      1.0000 0.94870  0.86640  0.31700  Biso   1.000  H
  N5       1.0000 0.09420  0.44530  0.07120  Biso   1.000  N
  H17      1.0000 0.10220  0.42740  0.94780  Biso   1.000  H
  H18      1.0000 0.13090  0.47120  0.12200  Biso   1.000  H
  N6       1.0000 0.15760  0.30550  0.43410  Biso   1.000  N
  H19      1.0000 0.12030  0.27960  0.39010  Biso   1.000  H
  H20      1.0000 0.15140  0.32430  0.55800  Biso   1.000  H
  C5       1.0000 0.09110  0.39540  0.22980  Biso   1.000  C
  H21      1.0000 0.05030  0.36840  0.17900  Biso   1.000  H
  H22      1.0000 0.08520  0.41450  0.36590  Biso   1.000  H
  C6       1.0000 0.15760  0.35550  0.26700  Biso   1.000  C
  H23      1.0000 0.16250  0.33540  0.13140  Biso   1.000  H
  H24      1.0000 0.19840  0.38290  0.31170  Biso   1.000  H
  N7       1.0000 0.34410  0.30510  0.06940  Biso   1.000  N
  H25      1.0000 0.38100  0.27910  0.11850  Biso   1.000  H
  H26      1.0000 0.35170  0.32300  0.94550  Biso   1.000  H
  N8       1.0000 0.40730  0.44440  0.43600  Biso   1.000  N
  H27      1.0000 0.40110  0.42590  0.56030  Biso   1.000  H
  H28      1.0000 0.36990  0.47010  0.39090  Biso   1.000  H
  C7       1.0000 0.34240  0.35490  0.22810  Biso   1.000  C
  H29      1.0000 0.33580  0.33570  0.36340  Biso   1.000  H
  H30      1.0000 0.30210  0.38240  0.17740  Biso   1.000  H
  C8       1.0000 0.40820  0.39400  0.26930  Biso   1.000  C
  H31      1.0000 0.41430  0.41390  0.13450  Biso   1.000  H
  H32      1.0000 0.44870  0.36640  0.31700  Biso   1.000  H
  N9       1.0000 0.40580  0.94530  0.42880  Biso   1.000  N
  H33      1.0000 0.39780  0.92740  0.55220  Biso   1.000  H
  H34      1.0000 0.36910  0.97120  0.37800  Biso   1.000  H
  N10      1.0000 0.34240  0.80550  0.06590  Biso   1.000  N
  H35      1.0000 0.37970  0.77960  0.10990  Biso   1.000  H
  H36      1.0000 0.34860  0.82430  0.94200  Biso   1.000  H
  C9       1.0000 0.40890  0.89540  0.27020  Biso   1.000  C
  H37      1.0000 0.44970  0.86840  0.32100  Biso   1.000  H
  H38      1.0000 0.41480  0.91450  0.13410  Biso   1.000  H
  C10      1.0000 0.34240  0.85550  0.23300  Biso   1.000  C
  H39      1.0000 0.33750  0.83540  0.36860  Biso   1.000  H
  H40      1.0000 0.30160  0.88290  0.18830  Biso   1.000  H
  N11      1.0000 0.15590  0.80510  0.43060  Biso   1.000  N
  H41      1.0000 0.11900  0.77910  0.38150  Biso   1.000  H
  H42      1.0000 0.14830  0.82300  0.55450  Biso   1.000  H
  N12      1.0000 0.09270  0.94440  0.06400  Biso   1.000  N
  H43      1.0000 0.09890  0.92590  0.93970  Biso   1.000  H
  H44      1.0000 0.13010  0.97010  0.10910  Biso   1.000  H
  C11      1.0000 0.15760  0.85490  0.27190  Biso   1.000  C
  H45      1.0000 0.16420  0.83570  0.13660  Biso   1.000  H
  H46      1.0000 0.19790  0.88240  0.32260  Biso   1.000  H
  C12      1.0000 0.09180  0.89400  0.23070  Biso   1.000  C
  H47      1.0000 0.08570  0.91390  0.36550  Biso   1.000  H
  H48      1.0000 0.05130  0.86640  0.18300  Biso   1.000  H
  N13      1.0000 0.90580  0.44530  0.42880  Biso   1.000  N
  H49      1.0000 0.89780  0.42740  0.55220  Biso   1.000  H
  H50      1.0000 0.86910  0.47120  0.37800  Biso   1.000  H
  N14      1.0000 0.84240  0.30550  0.06590  Biso   1.000  N
  H51      1.0000 0.87970  0.27960  0.10990  Biso   1.000  H
  H52      1.0000 0.84860  0.32430  0.94200  Biso   1.000  H
  C13      1.0000 0.90890  0.39540  0.27020  Biso   1.000  C
  H53      1.0000 0.94970  0.36840  0.32100  Biso   1.000  H
  H54      1.0000 0.91480  0.41450  0.13410  Biso   1.000  H
  C14      1.0000 0.84240  0.35550  0.23300  Biso   1.000  C
  H55      1.0000 0.83750  0.33540  0.36860  Biso   1.000  H
  H56      1.0000 0.80160  0.38290  0.18830  Biso   1.000  H
  N15      1.0000 0.65590  0.30510  0.43060  Biso   1.000  N
  H57      1.0000 0.61900  0.27910  0.38150  Biso   1.000  H
  H58      1.0000 0.64830  0.32300  0.55450  Biso   1.000  H
  N16      1.0000 0.59270  0.44440  0.06400  Biso   1.000  N
  H59      1.0000 0.59890  0.42590  0.93970  Biso   1.000  H
  H60      1.0000 0.63010  0.47010  0.10910  Biso   1.000  H
  C15      1.0000 0.65760  0.35490  0.27190  Biso   1.000  C
  H61      1.0000 0.66420  0.33570  0.13660  Biso   1.000  H
  H62      1.0000 0.69790  0.38240  0.32260  Biso   1.000  H
  C16      1.0000 0.59180  0.39400  0.23070  Biso   1.000  C
  H63      1.0000 0.58570  0.41390  0.36550  Biso   1.000  H
  H64      1.0000 0.55130  0.36640  0.18300  Biso   1.000  H
  N17      1.0000 0.40580  0.05470  0.92880  Biso   1.000  N
  H65      1.0000 0.39780  0.07260  0.05220  Biso   1.000  H
  H66      1.0000 0.36910  0.02880  0.87800  Biso   1.000  H
  N18      1.0000 0.34240  0.19450  0.56590  Biso   1.000  N
  H67      1.0000 0.37970  0.22040  0.60990  Biso   1.000  H
  H68      1.0000 0.34860  0.17570  0.44200  Biso   1.000  H
  C17      1.0000 0.40890  0.10460  0.77020  Biso   1.000  C
  H69      1.0000 0.44970  0.13160  0.82100  Biso   1.000  H
  H70      1.0000 0.41480  0.08550  0.63410  Biso   1.000  H
  C18      1.0000 0.34240  0.14450  0.73300  Biso   1.000  C
  H71      1.0000 0.33750  0.16460  0.86860  Biso   1.000  H
  H72      1.0000 0.30160  0.11710  0.68830  Biso   1.000  H
  N19      1.0000 0.15590  0.19490  0.93060  Biso   1.000  N
  H73      1.0000 0.11900  0.22090  0.88150  Biso   1.000  H
  H74      1.0000 0.14830  0.17700  0.05450  Biso   1.000  H
  N20      1.0000 0.09270  0.05560  0.56400  Biso   1.000  N
  H75      1.0000 0.09890  0.07410  0.43970  Biso   1.000  H
  H76      1.0000 0.13010  0.02990  0.60910  Biso   1.000  H
  C19      1.0000 0.15760  0.14510  0.77190  Biso   1.000  C
  H77      1.0000 0.16420  0.16430  0.63660  Biso   1.000  H
  H78      1.0000 0.19790  0.11760  0.82260  Biso   1.000  H
  C20      1.0000 0.09180  0.10600  0.73070  Biso   1.000  C
  H79      1.0000 0.08570  0.08610  0.86550  Biso   1.000  H
  H80      1.0000 0.05130  0.13360  0.68300  Biso   1.000  H
  N21      1.0000 0.90580  0.55470  0.92880  Biso   1.000  N
  H81      1.0000 0.89780  0.57260  0.05220  Biso   1.000  H
  H82      1.0000 0.86910  0.52880  0.87800  Biso   1.000  H
  N22      1.0000 0.84240  0.69450  0.56590  Biso   1.000  N
  H83      1.0000 0.87970  0.72040  0.60990  Biso   1.000  H
  H84      1.0000 0.84860  0.67570  0.44200  Biso   1.000  H
  C21      1.0000 0.90890  0.60460  0.77020  Biso   1.000  C
  H85      1.0000 0.94970  0.63160  0.82100  Biso   1.000  H
  H86      1.0000 0.91480  0.58550  0.63410  Biso   1.000  H
  C22      1.0000 0.84240  0.64450  0.73300  Biso   1.000  C
  H87      1.0000 0.83750  0.66460  0.86860  Biso   1.000  H
  H88      1.0000 0.80160  0.61710  0.68830  Biso   1.000  H
  N23      1.0000 0.65590  0.69490  0.93060  Biso   1.000  N
  H89      1.0000 0.61900  0.72090  0.88150  Biso   1.000  H
  H90      1.0000 0.64830  0.67700  0.05450  Biso   1.000  H
  N24      1.0000 0.59270  0.55560  0.56400  Biso   1.000  N
  H91      1.0000 0.59890  0.57410  0.43970  Biso   1.000  H
  H92      1.0000 0.63010  0.52990  0.60910  Biso   1.000  H
  C23      1.0000 0.65760  0.64510  0.77190  Biso   1.000  C
  H93      1.0000 0.66420  0.66430  0.63660  Biso   1.000  H
  H94      1.0000 0.69790  0.61760  0.82260  Biso   1.000  H
  C24      1.0000 0.59180  0.60600  0.73070  Biso   1.000  C
  H95      1.0000 0.58570  0.58610  0.86550  Biso   1.000  H
  H96      1.0000 0.55130  0.63360  0.68300  Biso   1.000  H
  N25      1.0000 0.59420  0.05470  0.57120  Biso   1.000  N
  H97      1.0000 0.60220  0.07260  0.44780  Biso   1.000  H
  H98      1.0000 0.63090  0.02880  0.62200  Biso   1.000  H
  N26      1.0000 0.65760  0.19450  0.93410  Biso   1.000  N
  H99      1.0000 0.62030  0.22040  0.89010  Biso   1.000  H
  H100     1.0000 0.65140  0.17570  0.05800  Biso   1.000  H
  C25      1.0000 0.59110  0.10460  0.72980  Biso   1.000  C
  H101     1.0000 0.55030  0.13160  0.67900  Biso   1.000  H
  H102     1.0000 0.58520  0.08550  0.86590  Biso   1.000  H
  C26      1.0000 0.65760  0.14450  0.76700  Biso   1.000  C
  H103     1.0000 0.66250  0.16460  0.63140  Biso   1.000  H
  H104     1.0000 0.69840  0.11710  0.81170  Biso   1.000  H
  N27      1.0000 0.84410  0.19490  0.56940  Biso   1.000  N
  H105     1.0000 0.88100  0.22090  0.61850  Biso   1.000  H
  H106     1.0000 0.85170  0.17700  0.44550  Biso   1.000  H
  N28      1.0000 0.90730  0.05560  0.93600  Biso   1.000  N
  H107     1.0000 0.90110  0.07410  0.06030  Biso   1.000  H
  H108     1.0000 0.86990  0.02990  0.89090  Biso   1.000  H
  C27      1.0000 0.84240  0.14510  0.72810  Biso   1.000  C
  H109     1.0000 0.83580  0.16430  0.86340  Biso   1.000  H
  H110     1.0000 0.80210  0.11760  0.67740  Biso   1.000  H
  C28      1.0000 0.90820  0.10600  0.76930  Biso   1.000  C
  H111     1.0000 0.91430  0.08610  0.63450  Biso   1.000  H
  H112     1.0000 0.94870  0.13360  0.81700  Biso   1.000  H
  N29      1.0000 0.09420  0.55470  0.57120  Biso   1.000  N
  H113     1.0000 0.10220  0.57260  0.44780  Biso   1.000  H
  H114     1.0000 0.13090  0.52880  0.62200  Biso   1.000  H
  N30      1.0000 0.15760  0.69450  0.93410  Biso   1.000  N
  H115     1.0000 0.12030  0.72040  0.89010  Biso   1.000  H
  H116     1.0000 0.15140  0.67570  0.05800  Biso   1.000  H
  C29      1.0000 0.09110  0.60460  0.72980  Biso   1.000  C
  H117     1.0000 0.05030  0.63160  0.67900  Biso   1.000  H
  H118     1.0000 0.08520  0.58550  0.86590  Biso   1.000  H
  C30      1.0000 0.15760  0.64450  0.76700  Biso   1.000  C
  H119     1.0000 0.16250  0.66460  0.63140  Biso   1.000  H
  H120     1.0000 0.19840  0.61710  0.81170  Biso   1.000  H
  N31      1.0000 0.34410  0.69490  0.56940  Biso   1.000  N
  H121     1.0000 0.38100  0.72090  0.61850  Biso   1.000  H
  H122     1.0000 0.35170  0.67700  0.44550  Biso   1.000  H
  N32      1.0000 0.40730  0.55560  0.93600  Biso   1.000  N
  H123     1.0000 0.40110  0.57410  0.06030  Biso   1.000  H
  H124     1.0000 0.36990  0.52990  0.89090  Biso   1.000  H
  C31      1.0000 0.34240  0.64510  0.72810  Biso   1.000  C
  H125     1.0000 0.33580  0.66430  0.86340  Biso   1.000  H
  H126     1.0000 0.30210  0.61760  0.67740  Biso   1.000  H
  C32      1.0000 0.40820  0.60600  0.76930  Biso   1.000  C
  H127     1.0000 0.41430  0.58610  0.63450  Biso   1.000  H
  H128     1.0000 0.44870  0.63360  0.81700  Biso   1.000  H
  Ag1      1.0000 0.50000  0.00000  0.00000  Biso   1.000  Ag
  Ag2      1.0000 0.00000  0.50000  0.00000  Biso   1.000  Ag
  Ag3      1.0000 0.50000  0.00000  0.50000  Biso   1.000  Ag
  Ag4      1.0000 0.00000  0.50000  0.50000  Biso   1.000  Ag
  Ag5      1.0000 0.75000  0.75000  0.50000  Biso   1.000  Ag
  Ag6      1.0000 0.25000  0.75000  0.00000  Biso   1.000  Ag
  Ag7      1.0000 0.25000  0.25000  0.50000  Biso   1.000  Ag
  Ag8      1.0000 0.75000  0.25000  0.00000  Biso   1.000  Ag
  Ag9      1.0000 0.75000  0.75000  0.00000  Biso   1.000  Ag
  Ag10     1.0000 0.25000  0.75000  0.50000  Biso   1.000  Ag
  Ag11     1.0000 0.25000  0.25000  0.00000  Biso   1.000  Ag
  Ag12     1.0000 0.75000  0.25000  0.50000  Biso   1.000  Ag
  Ag13     1.0000 0.00000  0.00000  0.50000  Biso   1.000  Ag
  Ag14     1.0000 0.50000  0.50000  0.50000  Biso   1.000  Ag
  Ag15     1.0000 0.00000  0.00000  0.00000  Biso   1.000  Ag
  Ag16     1.0000 0.50000  0.50000  0.00000  Biso   1.000  Ag
