data_image0
_cell_length_a       10.4767
_cell_length_b       10.4874
_cell_length_c       6.3225
_cell_angle_alpha    90
_cell_angle_beta     115.385
_cell_angle_gamma    90

_symmetry_space_group_name_H-M    "P 1"
_symmetry_int_tables_number       1

loop_
  _symmetry_equiv_pos_as_xyz
  'x, y, z'

loop_
  _atom_site_label
  _atom_site_occupancy
  _atom_site_fract_x
  _atom_site_fract_y
  _atom_site_fract_z
  _atom_site_thermal_displace_type
  _atom_site_B_iso_or_equiv
  _atom_site_type_symbol
  C1       1.0000 0.31570  0.20980  0.54670  Biso   1.000  C
  H1       1.0000 0.39710  0.26450  0.58270  Biso   1.000  H
  H2       1.0000 0.32590  0.16970  0.69130  Biso   1.000  H
  N1       1.0000 0.31430  0.11090  0.38210  Biso   1.000  N
  H3       1.0000 0.30090  0.14830  0.24610  Biso   1.000  H
  H4       1.0000 0.24040  0.05880  0.35320  Biso   1.000  H
  C2       1.0000 0.81570  0.70980  0.54670  Biso   1.000  C
  H5       1.0000 0.89710  0.76450  0.58270  Biso   1.000  H
  H6       1.0000 0.82590  0.66970  0.69130  Biso   1.000  H
  N2       1.0000 0.81430  0.61090  0.38210  Biso   1.000  N
  H7       1.0000 0.80090  0.64830  0.24610  Biso   1.000  H
  H8       1.0000 0.74040  0.55880  0.35320  Biso   1.000  H
  C3       1.0000 0.68430  0.20980  0.95330  Biso   1.000  C
  H9       1.0000 0.60290  0.26450  0.91730  Biso   1.000  H
  H10      1.0000 0.67410  0.16970  0.80870  Biso   1.000  H
  N3       1.0000 0.68570  0.11090  0.11790  Biso   1.000  N
  H11      1.0000 0.69910  0.14830  0.25390  Biso   1.000  H
  H12      1.0000 0.75960  0.05880  0.14680  Biso   1.000  H
  C4       1.0000 0.18430  0.70980  0.95330  Biso   1.000  C
  H13      1.0000 0.10290  0.76450  0.91730  Biso   1.000  H
  H14      1.0000 0.17410  0.66970  0.80870  Biso   1.000  H
  N4       1.0000 0.18570  0.61090  0.11790  Biso   1.000  N
  H15      1.0000 0.19910  0.64830  0.25390  Biso   1.000  H
  H16      1.0000 0.25960  0.55880  0.14680  Biso   1.000  H
  C5       1.0000 0.68430  0.79020  0.45330  Biso   1.000  C
  H17      1.0000 0.60290  0.73550  0.41730  Biso   1.000  H
  H18      1.0000 0.67410  0.83030  0.30870  Biso   1.000  H
  N5       1.0000 0.68570  0.88910  0.61790  Biso   1.000  N
  H19      1.0000 0.69910  0.85170  0.75390  Biso   1.000  H
  H20      1.0000 0.75960  0.94120  0.64680  Biso   1.000  H
  C6       1.0000 0.18430  0.29020  0.45330  Biso   1.000  C
  H21      1.0000 0.10290  0.23550  0.41730  Biso   1.000  H
  H22      1.0000 0.17410  0.33030  0.30870  Biso   1.000  H
  N6       1.0000 0.18570  0.38910  0.61790  Biso   1.000  N
  H23      1.0000 0.19910  0.35170  0.75390  Biso   1.000  H
  H24      1.0000 0.25960  0.44120  0.64680  Biso   1.000  H
  C7       1.0000 0.31570  0.79020  0.04670  Biso   1.000  C
  H25      1.0000 0.39710  0.73550  0.08270  Biso   1.000  H
  H26      1.0000 0.32590  0.83030  0.19130  Biso   1.000  H
  N7       1.0000 0.31430  0.88910  0.88210  Biso   1.000  N
  H27      1.0000 0.30090  0.85170  0.74610  Biso   1.000  H
  H28      1.0000 0.24040  0.94120  0.85320  Biso   1.000  H
  C8       1.0000 0.81570  0.29020  0.04670  Biso   1.000  C
  H29      1.0000 0.89710  0.23550  0.08270  Biso   1.000  H
  H30      1.0000 0.82590  0.33030  0.19130  Biso   1.000  H
  N8       1.0000 0.81430  0.38910  0.88210  Biso   1.000  N
  H31      1.0000 0.80090  0.35170  0.74610  Biso   1.000  H
  H32      1.0000 0.74040  0.44120  0.85320  Biso   1.000  H
  Ag1      1.0000 0.50000  0.00000  0.50000  Biso   1.000  Ag
  Ag2      1.0000 0.00000  0.50000  0.50000  Biso   1.000  Ag
  Ag3      1.0000 0.50000  0.00000  0.00000  Biso   1.000  Ag
  Ag4      1.0000 0.00000  0.50000  0.00000  Biso   1.000  Ag
