data_image0
_cell_length_a       10.2319
_cell_length_b       10.6531
_cell_length_c       6.221
_cell_angle_alpha    90
_cell_angle_beta     114.485
_cell_angle_gamma    90

_symmetry_space_group_name_H-M    "P 1"
_symmetry_int_tables_number       1

loop_
  _symmetry_equiv_pos_as_xyz
  'x, y, z'

loop_
  _atom_site_label
  _atom_site_occupancy
  _atom_site_fract_x
  _atom_site_fract_y
  _atom_site_fract_z
  _atom_site_thermal_displace_type
  _atom_site_B_iso_or_equiv
  _atom_site_type_symbol
  C1       1.0000 0.31800  0.21130  0.54530  Biso   1.000  C
  H1       1.0000 0.40070  0.26640  0.56820  Biso   1.000  H
  H2       1.0000 0.33370  0.17490  0.70060  Biso   1.000  H
  N1       1.0000 0.31080  0.10920  0.38040  Biso   1.000  N
  H3       1.0000 0.29500  0.14330  0.23580  Biso   1.000  H
  H4       1.0000 0.23420  0.05800  0.36020  Biso   1.000  H
  C2       1.0000 0.81800  0.71130  0.54530  Biso   1.000  C
  H5       1.0000 0.90070  0.76640  0.56820  Biso   1.000  H
  H6       1.0000 0.83370  0.67490  0.70060  Biso   1.000  H
  N2       1.0000 0.81080  0.60920  0.38040  Biso   1.000  N
  H7       1.0000 0.79500  0.64330  0.23580  Biso   1.000  H
  H8       1.0000 0.73420  0.55800  0.36020  Biso   1.000  H
  C3       1.0000 0.68200  0.21130  0.95470  Biso   1.000  C
  H9       1.0000 0.59930  0.26640  0.93180  Biso   1.000  H
  H10      1.0000 0.66630  0.17490  0.79940  Biso   1.000  H
  N3       1.0000 0.68920  0.10920  0.11960  Biso   1.000  N
  H11      1.0000 0.70500  0.14330  0.26420  Biso   1.000  H
  H12      1.0000 0.76580  0.05800  0.13980  Biso   1.000  H
  C4       1.0000 0.18200  0.71130  0.95470  Biso   1.000  C
  H13      1.0000 0.09930  0.76640  0.93180  Biso   1.000  H
  H14      1.0000 0.16630  0.67490  0.79940  Biso   1.000  H
  N4       1.0000 0.18920  0.60920  0.11960  Biso   1.000  N
  H15      1.0000 0.20500  0.64330  0.26420  Biso   1.000  H
  H16      1.0000 0.26580  0.55800  0.13980  Biso   1.000  H
  C5       1.0000 0.68200  0.78870  0.45470  Biso   1.000  C
  H17      1.0000 0.59930  0.73360  0.43180  Biso   1.000  H
  H18      1.0000 0.66630  0.82510  0.29940  Biso   1.000  H
  N5       1.0000 0.68920  0.89080  0.61960  Biso   1.000  N
  H19      1.0000 0.70500  0.85670  0.76420  Biso   1.000  H
  H20      1.0000 0.76580  0.94200  0.63980  Biso   1.000  H
  C6       1.0000 0.18200  0.28870  0.45470  Biso   1.000  C
  H21      1.0000 0.09930  0.23360  0.43180  Biso   1.000  H
  H22      1.0000 0.16630  0.32510  0.29940  Biso   1.000  H
  N6       1.0000 0.18920  0.39080  0.61960  Biso   1.000  N
  H23      1.0000 0.20500  0.35670  0.76420  Biso   1.000  H
  H24      1.0000 0.26580  0.44200  0.63980  Biso   1.000  H
  C7       1.0000 0.31800  0.78870  0.04530  Biso   1.000  C
  H25      1.0000 0.40070  0.73360  0.06820  Biso   1.000  H
  H26      1.0000 0.33370  0.82510  0.20060  Biso   1.000  H
  N7       1.0000 0.31080  0.89080  0.88040  Biso   1.000  N
  H27      1.0000 0.29500  0.85670  0.73580  Biso   1.000  H
  H28      1.0000 0.23420  0.94200  0.86020  Biso   1.000  H
  C8       1.0000 0.81800  0.28870  0.04530  Biso   1.000  C
  H29      1.0000 0.90070  0.23360  0.06820  Biso   1.000  H
  H30      1.0000 0.83370  0.32510  0.20060  Biso   1.000  H
  N8       1.0000 0.81080  0.39080  0.88040  Biso   1.000  N
  H31      1.0000 0.79500  0.35670  0.73580  Biso   1.000  H
  H32      1.0000 0.73420  0.44200  0.86020  Biso   1.000  H
  Ag1      1.0000 0.50000  0.00000  0.50000  Biso   1.000  Ag
  Ag2      1.0000 0.00000  0.50000  0.50000  Biso   1.000  Ag
  Ag3      1.0000 0.50000  0.00000  0.00000  Biso   1.000  Ag
  Ag4      1.0000 0.00000  0.50000  0.00000  Biso   1.000  Ag
