data_image0
_cell_length_a       10.3725
_cell_length_b       10.5575
_cell_length_c       6.2706
_cell_angle_alpha    90
_cell_angle_beta     114.948
_cell_angle_gamma    90

_symmetry_space_group_name_H-M    "P 1"
_symmetry_int_tables_number       1

loop_
  _symmetry_equiv_pos_as_xyz
  'x, y, z'

loop_
  _atom_site_label
  _atom_site_occupancy
  _atom_site_fract_x
  _atom_site_fract_y
  _atom_site_fract_z
  _atom_site_thermal_displace_type
  _atom_site_B_iso_or_equiv
  _atom_site_type_symbol
  C1       1.0000 0.31670  0.21060  0.54570  Biso   1.000  C
  H1       1.0000 0.39770  0.26500  0.57420  Biso   1.000  H
  H2       1.0000 0.32990  0.17270  0.69450  Biso   1.000  H
  N1       1.0000 0.31190  0.10990  0.38080  Biso   1.000  N
  H3       1.0000 0.29700  0.14520  0.24170  Biso   1.000  H
  H4       1.0000 0.23780  0.05870  0.35730  Biso   1.000  H
  C2       1.0000 0.81670  0.71060  0.54570  Biso   1.000  C
  H5       1.0000 0.89770  0.76500  0.57420  Biso   1.000  H
  H6       1.0000 0.82990  0.67270  0.69450  Biso   1.000  H
  N2       1.0000 0.81190  0.60990  0.38080  Biso   1.000  N
  H7       1.0000 0.79700  0.64520  0.24170  Biso   1.000  H
  H8       1.0000 0.73780  0.55870  0.35730  Biso   1.000  H
  C3       1.0000 0.68330  0.21060  0.95430  Biso   1.000  C
  H9       1.0000 0.60230  0.26500  0.92580  Biso   1.000  H
  H10      1.0000 0.67010  0.17270  0.80550  Biso   1.000  H
  N3       1.0000 0.68810  0.10990  0.11920  Biso   1.000  N
  H11      1.0000 0.70300  0.14520  0.25830  Biso   1.000  H
  H12      1.0000 0.76220  0.05870  0.14270  Biso   1.000  H
  C4       1.0000 0.18330  0.71060  0.95430  Biso   1.000  C
  H13      1.0000 0.10230  0.76500  0.92580  Biso   1.000  H
  H14      1.0000 0.17010  0.67270  0.80550  Biso   1.000  H
  N4       1.0000 0.18810  0.60990  0.11920  Biso   1.000  N
  H15      1.0000 0.20300  0.64520  0.25830  Biso   1.000  H
  H16      1.0000 0.26220  0.55870  0.14270  Biso   1.000  H
  C5       1.0000 0.68330  0.78940  0.45430  Biso   1.000  C
  H17      1.0000 0.60230  0.73500  0.42580  Biso   1.000  H
  H18      1.0000 0.67010  0.82730  0.30550  Biso   1.000  H
  N5       1.0000 0.68810  0.89010  0.61920  Biso   1.000  N
  H19      1.0000 0.70300  0.85480  0.75830  Biso   1.000  H
  H20      1.0000 0.76220  0.94130  0.64270  Biso   1.000  H
  C6       1.0000 0.18330  0.28940  0.45430  Biso   1.000  C
  H21      1.0000 0.10230  0.23500  0.42580  Biso   1.000  H
  H22      1.0000 0.17010  0.32730  0.30550  Biso   1.000  H
  N6       1.0000 0.18810  0.39010  0.61920  Biso   1.000  N
  H23      1.0000 0.20300  0.35480  0.75830  Biso   1.000  H
  H24      1.0000 0.26220  0.44130  0.64270  Biso   1.000  H
  C7       1.0000 0.31670  0.78940  0.04570  Biso   1.000  C
  H25      1.0000 0.39770  0.73500  0.07420  Biso   1.000  H
  H26      1.0000 0.32990  0.82730  0.19450  Biso   1.000  H
  N7       1.0000 0.31190  0.89010  0.88080  Biso   1.000  N
  H27      1.0000 0.29700  0.85480  0.74170  Biso   1.000  H
  H28      1.0000 0.23780  0.94130  0.85730  Biso   1.000  H
  C8       1.0000 0.81670  0.28940  0.04570  Biso   1.000  C
  H29      1.0000 0.89770  0.23500  0.07420  Biso   1.000  H
  H30      1.0000 0.82990  0.32730  0.19450  Biso   1.000  H
  N8       1.0000 0.81190  0.39010  0.88080  Biso   1.000  N
  H31      1.0000 0.79700  0.35480  0.74170  Biso   1.000  H
  H32      1.0000 0.73780  0.44130  0.85730  Biso   1.000  H
  Ag1      1.0000 0.50000  0.00000  0.50000  Biso   1.000  Ag
  Ag2      1.0000 0.00000  0.50000  0.50000  Biso   1.000  Ag
  Ag3      1.0000 0.50000  0.00000  0.00000  Biso   1.000  Ag
  Ag4      1.0000 0.00000  0.50000  0.00000  Biso   1.000  Ag
