data_image0
_cell_length_a       10.596
_cell_length_b       10.295
_cell_length_c       6.141
_cell_angle_alpha    90
_cell_angle_beta     114.67
_cell_angle_gamma    90

_symmetry_space_group_name_H-M    "P 1"
_symmetry_int_tables_number       1

loop_
  _symmetry_equiv_pos_as_xyz
  'x, y, z'

loop_
  _atom_site_label
  _atom_site_occupancy
  _atom_site_fract_x
  _atom_site_fract_y
  _atom_site_fract_z
  _atom_site_thermal_displace_type
  _atom_site_B_iso_or_equiv
  _atom_site_type_symbol
  C1       1.0000 0.31800  0.21290  0.54500  Biso   1.000  C
  H1       1.0000 0.39310  0.27040  0.55940  Biso   1.000  H
  H2       1.0000 0.33770  0.17620  0.70170  Biso   1.000  H
  N1       1.0000 0.30330  0.10880  0.37300  Biso   1.000  N
  H3       1.0000 0.28380  0.14300  0.22750  Biso   1.000  H
  H4       1.0000 0.23340  0.05530  0.36050  Biso   1.000  H
  C2       1.0000 0.81800  0.71290  0.54500  Biso   1.000  C
  H5       1.0000 0.89310  0.77040  0.55940  Biso   1.000  H
  H6       1.0000 0.83770  0.67620  0.70170  Biso   1.000  H
  N2       1.0000 0.80330  0.60880  0.37300  Biso   1.000  N
  H7       1.0000 0.78380  0.64300  0.22750  Biso   1.000  H
  H8       1.0000 0.73340  0.55530  0.36050  Biso   1.000  H
  C3       1.0000 0.68200  0.21290  0.95500  Biso   1.000  C
  H9       1.0000 0.60690  0.27040  0.94060  Biso   1.000  H
  H10      1.0000 0.66230  0.17620  0.79830  Biso   1.000  H
  N3       1.0000 0.69670  0.10880  0.12700  Biso   1.000  N
  H11      1.0000 0.71620  0.14300  0.27250  Biso   1.000  H
  H12      1.0000 0.76660  0.05530  0.13950  Biso   1.000  H
  C4       1.0000 0.18200  0.71290  0.95500  Biso   1.000  C
  H13      1.0000 0.10690  0.77040  0.94060  Biso   1.000  H
  H14      1.0000 0.16230  0.67620  0.79830  Biso   1.000  H
  N4       1.0000 0.19670  0.60880  0.12700  Biso   1.000  N
  H15      1.0000 0.21620  0.64300  0.27250  Biso   1.000  H
  H16      1.0000 0.26660  0.55530  0.13950  Biso   1.000  H
  C5       1.0000 0.68200  0.78710  0.45500  Biso   1.000  C
  H17      1.0000 0.60690  0.72960  0.44060  Biso   1.000  H
  H18      1.0000 0.66230  0.82380  0.29830  Biso   1.000  H
  N5       1.0000 0.69670  0.89120  0.62700  Biso   1.000  N
  H19      1.0000 0.71620  0.85700  0.77250  Biso   1.000  H
  H20      1.0000 0.76660  0.94470  0.63950  Biso   1.000  H
  C6       1.0000 0.18200  0.28710  0.45500  Biso   1.000  C
  H21      1.0000 0.10690  0.22960  0.44060  Biso   1.000  H
  H22      1.0000 0.16230  0.32380  0.29830  Biso   1.000  H
  N6       1.0000 0.19670  0.39120  0.62700  Biso   1.000  N
  H23      1.0000 0.21620  0.35700  0.77250  Biso   1.000  H
  H24      1.0000 0.26660  0.44470  0.63950  Biso   1.000  H
  C7       1.0000 0.31800  0.78710  0.04500  Biso   1.000  C
  H25      1.0000 0.39310  0.72960  0.05940  Biso   1.000  H
  H26      1.0000 0.33770  0.82380  0.20170  Biso   1.000  H
  N7       1.0000 0.30330  0.89120  0.87300  Biso   1.000  N
  H27      1.0000 0.28380  0.85700  0.72750  Biso   1.000  H
  H28      1.0000 0.23340  0.94470  0.86050  Biso   1.000  H
  C8       1.0000 0.81800  0.28710  0.04500  Biso   1.000  C
  H29      1.0000 0.89310  0.22960  0.05940  Biso   1.000  H
  H30      1.0000 0.83770  0.32380  0.20170  Biso   1.000  H
  N8       1.0000 0.80330  0.39120  0.87300  Biso   1.000  N
  H31      1.0000 0.78380  0.35700  0.72750  Biso   1.000  H
  H32      1.0000 0.73340  0.44470  0.86050  Biso   1.000  H
  Ag1      1.0000 0.50000  0.00000  0.50000  Biso   1.000  Ag
  Ag2      1.0000 0.00000  0.50000  0.50000  Biso   1.000  Ag
  Ag3      1.0000 0.50000  0.00000  0.00000  Biso   1.000  Ag
  Ag4      1.0000 0.00000  0.50000  0.00000  Biso   1.000  Ag
