data_image0
_cell_length_a       10.418
_cell_length_b       10.521
_cell_length_c       6.287
_cell_angle_alpha    90
_cell_angle_beta     115.16
_cell_angle_gamma    90

_symmetry_space_group_name_H-M    "P 1"
_symmetry_int_tables_number       1

loop_
  _symmetry_equiv_pos_as_xyz
  'x, y, z'

loop_
  _atom_site_label
  _atom_site_occupancy
  _atom_site_fract_x
  _atom_site_fract_y
  _atom_site_fract_z
  _atom_site_thermal_displace_type
  _atom_site_B_iso_or_equiv
  _atom_site_type_symbol
  N1       1.0000 0.31270  0.10980  0.38160  Biso   1.000  N
  H1       1.0000 0.30760  0.16920  0.26430  Biso   1.000  H
  H2       1.0000 0.22650  0.05430  0.33470  Biso   1.000  H
  C1       1.0000 0.31650  0.21060  0.54640  Biso   1.000  C
  H3       1.0000 0.39710  0.26540  0.57590  Biso   1.000  H
  H4       1.0000 0.32940  0.17250  0.69470  Biso   1.000  H
  N2       1.0000 0.81270  0.60980  0.38160  Biso   1.000  N
  H5       1.0000 0.80760  0.66920  0.26430  Biso   1.000  H
  H6       1.0000 0.72650  0.55430  0.33470  Biso   1.000  H
  C2       1.0000 0.81650  0.71060  0.54640  Biso   1.000  C
  H7       1.0000 0.89710  0.76540  0.57590  Biso   1.000  H
  H8       1.0000 0.82940  0.67250  0.69470  Biso   1.000  H
  N3       1.0000 0.68730  0.10980  0.11840  Biso   1.000  N
  H9       1.0000 0.69240  0.16920  0.23570  Biso   1.000  H
  H10      1.0000 0.77350  0.05430  0.16530  Biso   1.000  H
  C3       1.0000 0.68350  0.21060  0.95360  Biso   1.000  C
  H11      1.0000 0.60290  0.26540  0.92410  Biso   1.000  H
  H12      1.0000 0.67060  0.17250  0.80530  Biso   1.000  H
  N4       1.0000 0.18730  0.60980  0.11840  Biso   1.000  N
  H13      1.0000 0.19240  0.66920  0.23570  Biso   1.000  H
  H14      1.0000 0.27350  0.55430  0.16530  Biso   1.000  H
  C4       1.0000 0.18350  0.71060  0.95360  Biso   1.000  C
  H15      1.0000 0.10290  0.76540  0.92410  Biso   1.000  H
  H16      1.0000 0.17060  0.67250  0.80530  Biso   1.000  H
  N5       1.0000 0.68730  0.89020  0.61840  Biso   1.000  N
  H17      1.0000 0.69240  0.83080  0.73570  Biso   1.000  H
  H18      1.0000 0.77350  0.94570  0.66530  Biso   1.000  H
  C5       1.0000 0.68350  0.78940  0.45360  Biso   1.000  C
  H19      1.0000 0.60290  0.73460  0.42410  Biso   1.000  H
  H20      1.0000 0.67060  0.82750  0.30530  Biso   1.000  H
  N6       1.0000 0.18730  0.39020  0.61840  Biso   1.000  N
  H21      1.0000 0.19240  0.33080  0.73570  Biso   1.000  H
  H22      1.0000 0.27350  0.44570  0.66530  Biso   1.000  H
  C6       1.0000 0.18350  0.28940  0.45360  Biso   1.000  C
  H23      1.0000 0.10290  0.23460  0.42410  Biso   1.000  H
  H24      1.0000 0.17060  0.32750  0.30530  Biso   1.000  H
  N7       1.0000 0.31270  0.89020  0.88160  Biso   1.000  N
  H25      1.0000 0.30760  0.83080  0.76430  Biso   1.000  H
  H26      1.0000 0.22650  0.94570  0.83470  Biso   1.000  H
  C7       1.0000 0.31650  0.78940  0.04640  Biso   1.000  C
  H27      1.0000 0.39710  0.73460  0.07590  Biso   1.000  H
  H28      1.0000 0.32940  0.82750  0.19470  Biso   1.000  H
  N8       1.0000 0.81270  0.39020  0.88160  Biso   1.000  N
  H29      1.0000 0.80760  0.33080  0.76430  Biso   1.000  H
  H30      1.0000 0.72650  0.44570  0.83470  Biso   1.000  H
  C8       1.0000 0.81650  0.28940  0.04640  Biso   1.000  C
  H31      1.0000 0.89710  0.23460  0.07590  Biso   1.000  H
  H32      1.0000 0.82940  0.32750  0.19470  Biso   1.000  H
  Ag1      1.0000 0.50000  0.00000  0.50000  Biso   1.000  Ag
  Ag2      1.0000 0.00000  0.50000  0.50000  Biso   1.000  Ag
  Ag3      1.0000 0.50000  0.00000  0.00000  Biso   1.000  Ag
  Ag4      1.0000 0.00000  0.50000  0.00000  Biso   1.000  Ag
