data_image0
_cell_length_a       10.2363
_cell_length_b       10.6504
_cell_length_c       6.2225
_cell_angle_alpha    90
_cell_angle_beta     114.522
_cell_angle_gamma    90

_symmetry_space_group_name_H-M    "P 1"
_symmetry_int_tables_number       1

loop_
  _symmetry_equiv_pos_as_xyz
  'x, y, z'

loop_
  _atom_site_label
  _atom_site_occupancy
  _atom_site_fract_x
  _atom_site_fract_y
  _atom_site_fract_z
  _atom_site_thermal_displace_type
  _atom_site_B_iso_or_equiv
  _atom_site_type_symbol
  C1       1.0000 0.31790  0.21090  0.54550  Biso   1.000  C
  H1       1.0000 0.40090  0.26570  0.56960  Biso   1.000  H
  H2       1.0000 0.33300  0.17420  0.70020  Biso   1.000  H
  N1       1.0000 0.31070  0.10910  0.38010  Biso   1.000  N
  H3       1.0000 0.29490  0.14350  0.23580  Biso   1.000  H
  H4       1.0000 0.23400  0.05780  0.35950  Biso   1.000  H
  C2       1.0000 0.81790  0.71090  0.54550  Biso   1.000  C
  H5       1.0000 0.90090  0.76570  0.56960  Biso   1.000  H
  H6       1.0000 0.83300  0.67420  0.70020  Biso   1.000  H
  N2       1.0000 0.81070  0.60910  0.38010  Biso   1.000  N
  H7       1.0000 0.79490  0.64350  0.23580  Biso   1.000  H
  H8       1.0000 0.73400  0.55780  0.35950  Biso   1.000  H
  C3       1.0000 0.68210  0.21090  0.95450  Biso   1.000  C
  H9       1.0000 0.59910  0.26570  0.93040  Biso   1.000  H
  H10      1.0000 0.66700  0.17420  0.79980  Biso   1.000  H
  N3       1.0000 0.68930  0.10910  0.11990  Biso   1.000  N
  H11      1.0000 0.70510  0.14350  0.26420  Biso   1.000  H
  H12      1.0000 0.76600  0.05780  0.14050  Biso   1.000  H
  C4       1.0000 0.18210  0.71090  0.95450  Biso   1.000  C
  H13      1.0000 0.09910  0.76570  0.93040  Biso   1.000  H
  H14      1.0000 0.16700  0.67420  0.79980  Biso   1.000  H
  N4       1.0000 0.18930  0.60910  0.11990  Biso   1.000  N
  H15      1.0000 0.20510  0.64350  0.26420  Biso   1.000  H
  H16      1.0000 0.26600  0.55780  0.14050  Biso   1.000  H
  C5       1.0000 0.68210  0.78910  0.45450  Biso   1.000  C
  H17      1.0000 0.59910  0.73430  0.43040  Biso   1.000  H
  H18      1.0000 0.66700  0.82580  0.29980  Biso   1.000  H
  N5       1.0000 0.68930  0.89090  0.61990  Biso   1.000  N
  H19      1.0000 0.70510  0.85650  0.76420  Biso   1.000  H
  H20      1.0000 0.76600  0.94220  0.64050  Biso   1.000  H
  C6       1.0000 0.18210  0.28910  0.45450  Biso   1.000  C
  H21      1.0000 0.09910  0.23430  0.43040  Biso   1.000  H
  H22      1.0000 0.16700  0.32580  0.29980  Biso   1.000  H
  N6       1.0000 0.18930  0.39090  0.61990  Biso   1.000  N
  H23      1.0000 0.20510  0.35650  0.76420  Biso   1.000  H
  H24      1.0000 0.26600  0.44220  0.64050  Biso   1.000  H
  C7       1.0000 0.31790  0.78910  0.04550  Biso   1.000  C
  H25      1.0000 0.40090  0.73430  0.06960  Biso   1.000  H
  H26      1.0000 0.33300  0.82580  0.20020  Biso   1.000  H
  N7       1.0000 0.31070  0.89090  0.88010  Biso   1.000  N
  H27      1.0000 0.29490  0.85650  0.73580  Biso   1.000  H
  H28      1.0000 0.23400  0.94220  0.85950  Biso   1.000  H
  C8       1.0000 0.81790  0.28910  0.04550  Biso   1.000  C
  H29      1.0000 0.90090  0.23430  0.06960  Biso   1.000  H
  H30      1.0000 0.83300  0.32580  0.20020  Biso   1.000  H
  N8       1.0000 0.81070  0.39090  0.88010  Biso   1.000  N
  H31      1.0000 0.79490  0.35650  0.73580  Biso   1.000  H
  H32      1.0000 0.73400  0.44220  0.85950  Biso   1.000  H
  Ag1      1.0000 0.50000  0.00000  0.50000  Biso   1.000  Ag
  Ag2      1.0000 0.00000  0.50000  0.50000  Biso   1.000  Ag
  Ag3      1.0000 0.50000  0.00000  0.00000  Biso   1.000  Ag
  Ag4      1.0000 0.00000  0.50000  0.00000  Biso   1.000  Ag
