data_image0
_cell_length_a       10.451
_cell_length_b       10.51
_cell_length_c       6.268
_cell_angle_alpha    90
_cell_angle_beta     115.08
_cell_angle_gamma    90

_symmetry_space_group_name_H-M    "P 1"
_symmetry_int_tables_number       1

loop_
  _symmetry_equiv_pos_as_xyz
  'x, y, z'

loop_
  _atom_site_label
  _atom_site_occupancy
  _atom_site_fract_x
  _atom_site_fract_y
  _atom_site_fract_z
  _atom_site_thermal_displace_type
  _atom_site_B_iso_or_equiv
  _atom_site_type_symbol
  C1       1.0000 0.31300  0.20850  0.54400  Biso   1.000  C
  H1       1.0000 0.39600  0.26110  0.58010  Biso   1.000  H
  H2       1.0000 0.32220  0.16890  0.68920  Biso   1.000  H
  N1       1.0000 0.31110  0.10870  0.37960  Biso   1.000  N
  H3       1.0000 0.29630  0.14470  0.24090  Biso   1.000  H
  H4       1.0000 0.23810  0.05600  0.35440  Biso   1.000  H
  C2       1.0000 0.81300  0.70850  0.54400  Biso   1.000  C
  H5       1.0000 0.89600  0.76110  0.58010  Biso   1.000  H
  H6       1.0000 0.82220  0.66890  0.68920  Biso   1.000  H
  N2       1.0000 0.81110  0.60870  0.37960  Biso   1.000  N
  H7       1.0000 0.79630  0.64470  0.24090  Biso   1.000  H
  H8       1.0000 0.73810  0.55600  0.35440  Biso   1.000  H
  C3       1.0000 0.68700  0.20850  0.95600  Biso   1.000  C
  H9       1.0000 0.60400  0.26110  0.91990  Biso   1.000  H
  H10      1.0000 0.67780  0.16890  0.81080  Biso   1.000  H
  N3       1.0000 0.68890  0.10870  0.12040  Biso   1.000  N
  H11      1.0000 0.70370  0.14470  0.25910  Biso   1.000  H
  H12      1.0000 0.76190  0.05600  0.14560  Biso   1.000  H
  C4       1.0000 0.18700  0.70850  0.95600  Biso   1.000  C
  H13      1.0000 0.10400  0.76110  0.91990  Biso   1.000  H
  H14      1.0000 0.17780  0.66890  0.81080  Biso   1.000  H
  N4       1.0000 0.18890  0.60870  0.12040  Biso   1.000  N
  H15      1.0000 0.20370  0.64470  0.25910  Biso   1.000  H
  H16      1.0000 0.26190  0.55600  0.14560  Biso   1.000  H
  C5       1.0000 0.68700  0.79150  0.45600  Biso   1.000  C
  H17      1.0000 0.60400  0.73890  0.41990  Biso   1.000  H
  H18      1.0000 0.67780  0.83110  0.31080  Biso   1.000  H
  N5       1.0000 0.68890  0.89130  0.62040  Biso   1.000  N
  H19      1.0000 0.70370  0.85530  0.75910  Biso   1.000  H
  H20      1.0000 0.76190  0.94400  0.64560  Biso   1.000  H
  C6       1.0000 0.18700  0.29150  0.45600  Biso   1.000  C
  H21      1.0000 0.10400  0.23890  0.41990  Biso   1.000  H
  H22      1.0000 0.17780  0.33110  0.31080  Biso   1.000  H
  N6       1.0000 0.18890  0.39130  0.62040  Biso   1.000  N
  H23      1.0000 0.20370  0.35530  0.75910  Biso   1.000  H
  H24      1.0000 0.26190  0.44400  0.64560  Biso   1.000  H
  C7       1.0000 0.31300  0.79150  0.04400  Biso   1.000  C
  H25      1.0000 0.39600  0.73890  0.08010  Biso   1.000  H
  H26      1.0000 0.32220  0.83110  0.18920  Biso   1.000  H
  N7       1.0000 0.31110  0.89130  0.87960  Biso   1.000  N
  H27      1.0000 0.29630  0.85530  0.74090  Biso   1.000  H
  H28      1.0000 0.23810  0.94400  0.85440  Biso   1.000  H
  C8       1.0000 0.81300  0.29150  0.04400  Biso   1.000  C
  H29      1.0000 0.89600  0.23890  0.08010  Biso   1.000  H
  H30      1.0000 0.82220  0.33110  0.18920  Biso   1.000  H
  N8       1.0000 0.81110  0.39130  0.87960  Biso   1.000  N
  H31      1.0000 0.79630  0.35530  0.74090  Biso   1.000  H
  H32      1.0000 0.73810  0.44400  0.85440  Biso   1.000  H
  Ag1      1.0000 0.50000  0.00000  0.50000  Biso   1.000  Ag
  Ag2      1.0000 0.00000  0.50000  0.50000  Biso   1.000  Ag
  Ag3      1.0000 0.50000  0.00000  0.00000  Biso   1.000  Ag
  Ag4      1.0000 0.00000  0.50000  0.00000  Biso   1.000  Ag
