data_image0
_cell_length_a       20.862
_cell_length_b       19.931
_cell_length_c       6.1895
_cell_angle_alpha    90
_cell_angle_beta     114.55
_cell_angle_gamma    90

_symmetry_space_group_name_H-M    "P 1"
_symmetry_int_tables_number       1

loop_
  _symmetry_equiv_pos_as_xyz
  'x, y, z'

loop_
  _atom_site_label
  _atom_site_occupancy
  _atom_site_fract_x
  _atom_site_fract_y
  _atom_site_fract_z
  _atom_site_thermal_displace_type
  _atom_site_B_iso_or_equiv
  _atom_site_type_symbol
  N1       1.0000 0.59230  0.04920  0.10400  Biso   1.000  N
  H1       1.0000 0.60590  0.06390  0.25360  Biso   1.000  H
  H2       1.0000 0.62570  0.02110  0.10000  Biso   1.000  H
  N2       1.0000 0.64730  0.20260  0.86500  Biso   1.000  N
  H3       1.0000 0.61460  0.23190  0.86620  Biso   1.000  H
  H4       1.0000 0.63490  0.18850  0.71520  Biso   1.000  H
  N3       1.0000 0.84780  0.19600  0.61700  Biso   1.000  N
  H5       1.0000 0.88310  0.22360  0.62670  Biso   1.000  H
  H6       1.0000 0.85870  0.17760  0.76070  Biso   1.000  H
  N4       1.0000 0.90010  0.05750  0.35800  Biso   1.000  N
  H7       1.0000 0.89320  0.07660  0.21800  Biso   1.000  H
  H8       1.0000 0.86340  0.03040  0.33530  Biso   1.000  H
  C1       1.0000 0.58450  0.10590  0.94600  Biso   1.000  C
  H9       1.0000 0.54750  0.13520  0.94670  Biso   1.000  H
  H10      1.0000 0.57090  0.08970  0.78520  Biso   1.000  H
  C2       1.0000 0.65240  0.14490  0.02300  Biso   1.000  C
  H11      1.0000 0.66560  0.16120  0.18340  Biso   1.000  H
  H12      1.0000 0.68940  0.11500  0.02520  Biso   1.000  H
  C3       1.0000 0.83690  0.14420  0.44000  Biso   1.000  C
  H13      1.0000 0.82620  0.16350  0.28470  Biso   1.000  H
  H14      1.0000 0.79940  0.11380  0.42890  Biso   1.000  H
  C4       1.0000 0.90750  0.10950  0.53800  Biso   1.000  C
  H15      1.0000 0.94500  0.14070  0.55540  Biso   1.000  H
  H16      1.0000 0.91730  0.08930  0.69110  Biso   1.000  H
  N5       1.0000 0.09230  0.54920  0.10400  Biso   1.000  N
  H17      1.0000 0.10590  0.56390  0.25360  Biso   1.000  H
  H18      1.0000 0.12570  0.52110  0.10000  Biso   1.000  H
  N6       1.0000 0.14730  0.70260  0.86500  Biso   1.000  N
  H19      1.0000 0.11460  0.73190  0.86620  Biso   1.000  H
  H20      1.0000 0.13490  0.68850  0.71520  Biso   1.000  H
  N7       1.0000 0.34780  0.69600  0.61700  Biso   1.000  N
  H21      1.0000 0.38310  0.72360  0.62670  Biso   1.000  H
  H22      1.0000 0.35870  0.67760  0.76070  Biso   1.000  H
  N8       1.0000 0.40010  0.55750  0.35800  Biso   1.000  N
  H23      1.0000 0.39320  0.57660  0.21800  Biso   1.000  H
  H24      1.0000 0.36340  0.53040  0.33530  Biso   1.000  H
  C5       1.0000 0.08450  0.60590  0.94600  Biso   1.000  C
  H25      1.0000 0.04750  0.63520  0.94670  Biso   1.000  H
  H26      1.0000 0.07090  0.58970  0.78520  Biso   1.000  H
  C6       1.0000 0.15240  0.64490  0.02300  Biso   1.000  C
  H27      1.0000 0.16560  0.66120  0.18340  Biso   1.000  H
  H28      1.0000 0.18940  0.61500  0.02520  Biso   1.000  H
  C7       1.0000 0.33690  0.64420  0.44000  Biso   1.000  C
  H29      1.0000 0.32620  0.66350  0.28470  Biso   1.000  H
  H30      1.0000 0.29940  0.61380  0.42890  Biso   1.000  H
  C8       1.0000 0.40750  0.60950  0.53800  Biso   1.000  C
  H31      1.0000 0.44500  0.64070  0.55540  Biso   1.000  H
  H32      1.0000 0.41730  0.58930  0.69110  Biso   1.000  H
  N9       1.0000 0.40770  0.04920  0.39600  Biso   1.000  N
  H33      1.0000 0.39410  0.06390  0.24640  Biso   1.000  H
  H34      1.0000 0.37430  0.02110  0.40000  Biso   1.000  H
  N10      1.0000 0.35270  0.20260  0.63500  Biso   1.000  N
  H35      1.0000 0.38540  0.23190  0.63380  Biso   1.000  H
  H36      1.0000 0.36510  0.18850  0.78480  Biso   1.000  H
  N11      1.0000 0.15220  0.19600  0.88300  Biso   1.000  N
  H37      1.0000 0.11690  0.22360  0.87330  Biso   1.000  H
  H38      1.0000 0.14130  0.17760  0.73930  Biso   1.000  H
  N12      1.0000 0.09990  0.05750  0.14200  Biso   1.000  N
  H39      1.0000 0.10680  0.07660  0.28200  Biso   1.000  H
  H40      1.0000 0.13660  0.03040  0.16470  Biso   1.000  H
  C9       1.0000 0.41550  0.10590  0.55400  Biso   1.000  C
  H41      1.0000 0.45250  0.13520  0.55330  Biso   1.000  H
  H42      1.0000 0.42910  0.08970  0.71480  Biso   1.000  H
  C10      1.0000 0.34760  0.14490  0.47700  Biso   1.000  C
  H43      1.0000 0.33440  0.16120  0.31660  Biso   1.000  H
  H44      1.0000 0.31060  0.11500  0.47480  Biso   1.000  H
  C11      1.0000 0.16310  0.14420  0.06000  Biso   1.000  C
  H45      1.0000 0.17380  0.16350  0.21530  Biso   1.000  H
  H46      1.0000 0.20060  0.11380  0.07110  Biso   1.000  H
  C12      1.0000 0.09250  0.10950  0.96200  Biso   1.000  C
  H47      1.0000 0.05500  0.14070  0.94460  Biso   1.000  H
  H48      1.0000 0.08270  0.08930  0.80890  Biso   1.000  H
  N13      1.0000 0.90770  0.54920  0.39600  Biso   1.000  N
  H49      1.0000 0.89410  0.56390  0.24640  Biso   1.000  H
  H50      1.0000 0.87430  0.52110  0.40000  Biso   1.000  H
  N14      1.0000 0.85270  0.70260  0.63500  Biso   1.000  N
  H51      1.0000 0.88540  0.73190  0.63380  Biso   1.000  H
  H52      1.0000 0.86510  0.68850  0.78480  Biso   1.000  H
  N15      1.0000 0.65220  0.69600  0.88300  Biso   1.000  N
  H53      1.0000 0.61690  0.72360  0.87330  Biso   1.000  H
  H54      1.0000 0.64130  0.67760  0.73930  Biso   1.000  H
  N16      1.0000 0.59990  0.55750  0.14200  Biso   1.000  N
  H55      1.0000 0.60680  0.57660  0.28200  Biso   1.000  H
  H56      1.0000 0.63660  0.53040  0.16470  Biso   1.000  H
  C13      1.0000 0.91550  0.60590  0.55400  Biso   1.000  C
  H57      1.0000 0.95250  0.63520  0.55330  Biso   1.000  H
  H58      1.0000 0.92910  0.58970  0.71480  Biso   1.000  H
  C14      1.0000 0.84760  0.64490  0.47700  Biso   1.000  C
  H59      1.0000 0.83440  0.66120  0.31660  Biso   1.000  H
  H60      1.0000 0.81060  0.61500  0.47480  Biso   1.000  H
  C15      1.0000 0.66310  0.64420  0.06000  Biso   1.000  C
  H61      1.0000 0.67380  0.66350  0.21530  Biso   1.000  H
  H62      1.0000 0.70060  0.61380  0.07110  Biso   1.000  H
  C16      1.0000 0.59250  0.60950  0.96200  Biso   1.000  C
  H63      1.0000 0.55500  0.64070  0.94460  Biso   1.000  H
  H64      1.0000 0.58270  0.58930  0.80890  Biso   1.000  H
  N17      1.0000 0.40770  0.95080  0.89600  Biso   1.000  N
  H65      1.0000 0.39410  0.93610  0.74640  Biso   1.000  H
  H66      1.0000 0.37430  0.97890  0.90000  Biso   1.000  H
  N18      1.0000 0.35270  0.79740  0.13500  Biso   1.000  N
  H67      1.0000 0.38540  0.76810  0.13380  Biso   1.000  H
  H68      1.0000 0.36510  0.81150  0.28480  Biso   1.000  H
  N19      1.0000 0.15220  0.80400  0.38300  Biso   1.000  N
  H69      1.0000 0.11690  0.77640  0.37330  Biso   1.000  H
  H70      1.0000 0.14130  0.82240  0.23930  Biso   1.000  H
  N20      1.0000 0.09990  0.94250  0.64200  Biso   1.000  N
  H71      1.0000 0.10680  0.92340  0.78200  Biso   1.000  H
  H72      1.0000 0.13660  0.96960  0.66470  Biso   1.000  H
  C17      1.0000 0.41550  0.89410  0.05400  Biso   1.000  C
  H73      1.0000 0.45250  0.86480  0.05330  Biso   1.000  H
  H74      1.0000 0.42910  0.91030  0.21480  Biso   1.000  H
  C18      1.0000 0.34760  0.85510  0.97700  Biso   1.000  C
  H75      1.0000 0.33440  0.83880  0.81660  Biso   1.000  H
  H76      1.0000 0.31060  0.88500  0.97480  Biso   1.000  H
  C19      1.0000 0.16310  0.85580  0.56000  Biso   1.000  C
  H77      1.0000 0.17380  0.83650  0.71530  Biso   1.000  H
  H78      1.0000 0.20060  0.88620  0.57110  Biso   1.000  H
  C20      1.0000 0.09250  0.89050  0.46200  Biso   1.000  C
  H79      1.0000 0.05500  0.85930  0.44460  Biso   1.000  H
  H80      1.0000 0.08270  0.91070  0.30890  Biso   1.000  H
  N21      1.0000 0.90770  0.45080  0.89600  Biso   1.000  N
  H81      1.0000 0.89410  0.43610  0.74640  Biso   1.000  H
  H82      1.0000 0.87430  0.47890  0.90000  Biso   1.000  H
  N22      1.0000 0.85270  0.29740  0.13500  Biso   1.000  N
  H83      1.0000 0.88540  0.26810  0.13380  Biso   1.000  H
  H84      1.0000 0.86510  0.31150  0.28480  Biso   1.000  H
  N23      1.0000 0.65220  0.30400  0.38300  Biso   1.000  N
  H85      1.0000 0.61690  0.27640  0.37330  Biso   1.000  H
  H86      1.0000 0.64130  0.32240  0.23930  Biso   1.000  H
  N24      1.0000 0.59990  0.44250  0.64200  Biso   1.000  N
  H87      1.0000 0.60680  0.42340  0.78200  Biso   1.000  H
  H88      1.0000 0.63660  0.46960  0.66470  Biso   1.000  H
  C21      1.0000 0.91550  0.39410  0.05400  Biso   1.000  C
  H89      1.0000 0.95250  0.36480  0.05330  Biso   1.000  H
  H90      1.0000 0.92910  0.41030  0.21480  Biso   1.000  H
  C22      1.0000 0.84760  0.35510  0.97700  Biso   1.000  C
  H91      1.0000 0.83440  0.33880  0.81660  Biso   1.000  H
  H92      1.0000 0.81060  0.38500  0.97480  Biso   1.000  H
  C23      1.0000 0.66310  0.35580  0.56000  Biso   1.000  C
  H93      1.0000 0.67380  0.33650  0.71530  Biso   1.000  H
  H94      1.0000 0.70060  0.38620  0.57110  Biso   1.000  H
  C24      1.0000 0.59250  0.39050  0.46200  Biso   1.000  C
  H95      1.0000 0.55500  0.35930  0.44460  Biso   1.000  H
  H96      1.0000 0.58270  0.41070  0.30890  Biso   1.000  H
  N25      1.0000 0.59230  0.95080  0.60400  Biso   1.000  N
  H97      1.0000 0.60590  0.93610  0.75360  Biso   1.000  H
  H98      1.0000 0.62570  0.97890  0.60000  Biso   1.000  H
  N26      1.0000 0.64730  0.79740  0.36500  Biso   1.000  N
  H99      1.0000 0.61460  0.76810  0.36620  Biso   1.000  H
  H100     1.0000 0.63490  0.81150  0.21520  Biso   1.000  H
  N27      1.0000 0.84780  0.80400  0.11700  Biso   1.000  N
  H101     1.0000 0.88310  0.77640  0.12670  Biso   1.000  H
  H102     1.0000 0.85870  0.82240  0.26070  Biso   1.000  H
  N28      1.0000 0.90010  0.94250  0.85800  Biso   1.000  N
  H103     1.0000 0.89320  0.92340  0.71800  Biso   1.000  H
  H104     1.0000 0.86340  0.96960  0.83530  Biso   1.000  H
  C25      1.0000 0.58450  0.89410  0.44600  Biso   1.000  C
  H105     1.0000 0.54750  0.86480  0.44670  Biso   1.000  H
  H106     1.0000 0.57090  0.91030  0.28520  Biso   1.000  H
  C26      1.0000 0.65240  0.85510  0.52300  Biso   1.000  C
  H107     1.0000 0.66560  0.83880  0.68340  Biso   1.000  H
  H108     1.0000 0.68940  0.88500  0.52520  Biso   1.000  H
  C27      1.0000 0.83690  0.85580  0.94000  Biso   1.000  C
  H109     1.0000 0.82620  0.83650  0.78470  Biso   1.000  H
  H110     1.0000 0.79940  0.88620  0.92890  Biso   1.000  H
  C28      1.0000 0.90750  0.89050  0.03800  Biso   1.000  C
  H111     1.0000 0.94500  0.85930  0.05540  Biso   1.000  H
  H112     1.0000 0.91730  0.91070  0.19110  Biso   1.000  H
  N29      1.0000 0.09230  0.45080  0.60400  Biso   1.000  N
  H113     1.0000 0.10590  0.43610  0.75360  Biso   1.000  H
  H114     1.0000 0.12570  0.47890  0.60000  Biso   1.000  H
  N30      1.0000 0.14730  0.29740  0.36500  Biso   1.000  N
  H115     1.0000 0.11460  0.26810  0.36620  Biso   1.000  H
  H116     1.0000 0.13490  0.31150  0.21520  Biso   1.000  H
  N31      1.0000 0.34780  0.30400  0.11700  Biso   1.000  N
  H117     1.0000 0.38310  0.27640  0.12670  Biso   1.000  H
  H118     1.0000 0.35870  0.32240  0.26070  Biso   1.000  H
  N32      1.0000 0.40010  0.44250  0.85800  Biso   1.000  N
  H119     1.0000 0.39320  0.42340  0.71800  Biso   1.000  H
  H120     1.0000 0.36340  0.46960  0.83530  Biso   1.000  H
  C29      1.0000 0.08450  0.39410  0.44600  Biso   1.000  C
  H121     1.0000 0.04750  0.36480  0.44670  Biso   1.000  H
  H122     1.0000 0.07090  0.41030  0.28520  Biso   1.000  H
  C30      1.0000 0.15240  0.35510  0.52300  Biso   1.000  C
  H123     1.0000 0.16560  0.33880  0.68340  Biso   1.000  H
  H124     1.0000 0.18940  0.38500  0.52520  Biso   1.000  H
  C31      1.0000 0.33690  0.35580  0.94000  Biso   1.000  C
  H125     1.0000 0.32620  0.33650  0.78470  Biso   1.000  H
  H126     1.0000 0.29940  0.38620  0.92890  Biso   1.000  H
  C32      1.0000 0.40750  0.39050  0.03800  Biso   1.000  C
  H127     1.0000 0.44500  0.35930  0.05540  Biso   1.000  H
  H128     1.0000 0.41730  0.41070  0.19110  Biso   1.000  H
  Ag1      1.0000 0.50000  0.00000  0.00000  Biso   1.000  Ag
  Ag2      1.0000 0.00000  0.50000  0.00000  Biso   1.000  Ag
  Ag3      1.0000 0.50000  0.00000  0.50000  Biso   1.000  Ag
  Ag4      1.0000 0.00000  0.50000  0.50000  Biso   1.000  Ag
  Ag5      1.0000 0.75000  0.25000  0.00000  Biso   1.000  Ag
  Ag6      1.0000 0.25000  0.25000  0.50000  Biso   1.000  Ag
  Ag7      1.0000 0.25000  0.75000  0.00000  Biso   1.000  Ag
  Ag8      1.0000 0.75000  0.75000  0.50000  Biso   1.000  Ag
  Ag9      1.0000 0.75000  0.25000  0.50000  Biso   1.000  Ag
  Ag10     1.0000 0.25000  0.25000  0.00000  Biso   1.000  Ag
  Ag11     1.0000 0.25000  0.75000  0.50000  Biso   1.000  Ag
  Ag12     1.0000 0.75000  0.75000  0.00000  Biso   1.000  Ag
  Ag13     1.0000 0.00000  0.00000  0.50000  Biso   1.000  Ag
  Ag14     1.0000 0.50000  0.50000  0.50000  Biso   1.000  Ag
  Ag15     1.0000 0.00000  0.00000  0.00000  Biso   1.000  Ag
  Ag16     1.0000 0.50000  0.50000  0.00000  Biso   1.000  Ag
