data_image0
_cell_length_a       20.117
_cell_length_b       19.565
_cell_length_c       5.961
_cell_angle_alpha    90
_cell_angle_beta     114.04
_cell_angle_gamma    90

_symmetry_space_group_name_H-M    "P 1"
_symmetry_int_tables_number       1

loop_
  _symmetry_equiv_pos_as_xyz
  'x, y, z'

loop_
  _atom_site_label
  _atom_site_occupancy
  _atom_site_fract_x
  _atom_site_fract_y
  _atom_site_fract_z
  _atom_site_thermal_displace_type
  _atom_site_B_iso_or_equiv
  _atom_site_type_symbol
  N1       1.0000 0.58160  0.05240  0.11700  Biso   1.000  N
  H1       1.0000 0.58590  0.07240  0.25800  Biso   1.000  H
  H2       1.0000 0.62090  0.02570  0.14920  Biso   1.000  H
  N2       1.0000 0.64490  0.20360  0.86400  Biso   1.000  N
  H3       1.0000 0.61130  0.23420  0.86190  Biso   1.000  H
  H4       1.0000 0.63270  0.18840  0.70940  Biso   1.000  H
  N3       1.0000 0.83680  0.19320  0.60500  Biso   1.000  N
  H5       1.0000 0.87560  0.21950  0.62480  Biso   1.000  H
  H6       1.0000 0.84470  0.17380  0.75020  Biso   1.000  H
  N4       1.0000 0.89620  0.04690  0.37400  Biso   1.000  N
  H7       1.0000 0.88170  0.06010  0.21610  Biso   1.000  H
  H8       1.0000 0.86310  0.01750  0.38360  Biso   1.000  H
  C1       1.0000 0.57890  0.10460  0.94000  Biso   1.000  C
  H9       1.0000 0.53820  0.13490  0.91250  Biso   1.000  H
  H10      1.0000 0.57130  0.08310  0.78480  Biso   1.000  H
  C2       1.0000 0.64830  0.14570  0.02900  Biso   1.000  C
  H11      1.0000 0.65820  0.16340  0.19150  Biso   1.000  H
  H12      1.0000 0.68830  0.11590  0.04230  Biso   1.000  H
  C3       1.0000 0.82940  0.13990  0.42500  Biso   1.000  C
  H13      1.0000 0.81910  0.15910  0.26420  Biso   1.000  H
  H14      1.0000 0.79160  0.10750  0.41260  Biso   1.000  H
  C4       1.0000 0.90380  0.10740  0.53500  Biso   1.000  C
  H15      1.0000 0.94070  0.13860  0.53040  Biso   1.000  H
  H16      1.0000 0.91620  0.09350  0.70330  Biso   1.000  H
  N5       1.0000 0.08160  0.55240  0.11700  Biso   1.000  N
  H17      1.0000 0.08590  0.57240  0.25800  Biso   1.000  H
  H18      1.0000 0.12090  0.52570  0.14920  Biso   1.000  H
  N6       1.0000 0.14490  0.70360  0.86400  Biso   1.000  N
  H19      1.0000 0.11130  0.73420  0.86190  Biso   1.000  H
  H20      1.0000 0.13270  0.68840  0.70940  Biso   1.000  H
  N7       1.0000 0.33680  0.69320  0.60500  Biso   1.000  N
  H21      1.0000 0.37560  0.71950  0.62480  Biso   1.000  H
  H22      1.0000 0.34470  0.67380  0.75020  Biso   1.000  H
  N8       1.0000 0.39620  0.54690  0.37400  Biso   1.000  N
  H23      1.0000 0.38170  0.56010  0.21610  Biso   1.000  H
  H24      1.0000 0.36310  0.51750  0.38360  Biso   1.000  H
  C5       1.0000 0.07890  0.60460  0.94000  Biso   1.000  C
  H25      1.0000 0.03820  0.63490  0.91250  Biso   1.000  H
  H26      1.0000 0.07130  0.58310  0.78480  Biso   1.000  H
  C6       1.0000 0.14830  0.64570  0.02900  Biso   1.000  C
  H27      1.0000 0.15820  0.66340  0.19150  Biso   1.000  H
  H28      1.0000 0.18830  0.61590  0.04230  Biso   1.000  H
  C7       1.0000 0.32940  0.63990  0.42500  Biso   1.000  C
  H29      1.0000 0.31910  0.65910  0.26420  Biso   1.000  H
  H30      1.0000 0.29160  0.60750  0.41260  Biso   1.000  H
  C8       1.0000 0.40380  0.60740  0.53500  Biso   1.000  C
  H31      1.0000 0.44070  0.63860  0.53040  Biso   1.000  H
  H32      1.0000 0.41620  0.59350  0.70330  Biso   1.000  H
  N9       1.0000 0.41840  0.05240  0.38300  Biso   1.000  N
  H33      1.0000 0.41410  0.07240  0.24200  Biso   1.000  H
  H34      1.0000 0.37910  0.02570  0.35080  Biso   1.000  H
  N10      1.0000 0.35510  0.20360  0.63600  Biso   1.000  N
  H35      1.0000 0.38870  0.23420  0.63810  Biso   1.000  H
  H36      1.0000 0.36730  0.18840  0.79060  Biso   1.000  H
  N11      1.0000 0.16320  0.19320  0.89500  Biso   1.000  N
  H37      1.0000 0.12440  0.21950  0.87520  Biso   1.000  H
  H38      1.0000 0.15530  0.17380  0.74980  Biso   1.000  H
  N12      1.0000 0.10380  0.04690  0.12600  Biso   1.000  N
  H39      1.0000 0.11830  0.06010  0.28390  Biso   1.000  H
  H40      1.0000 0.13690  0.01750  0.11640  Biso   1.000  H
  C9       1.0000 0.42110  0.10460  0.56000  Biso   1.000  C
  H41      1.0000 0.46180  0.13490  0.58750  Biso   1.000  H
  H42      1.0000 0.42870  0.08310  0.71520  Biso   1.000  H
  C10      1.0000 0.35170  0.14570  0.47100  Biso   1.000  C
  H43      1.0000 0.34180  0.16340  0.30850  Biso   1.000  H
  H44      1.0000 0.31170  0.11590  0.45770  Biso   1.000  H
  C11      1.0000 0.17060  0.13990  0.07500  Biso   1.000  C
  H45      1.0000 0.18090  0.15910  0.23580  Biso   1.000  H
  H46      1.0000 0.20840  0.10750  0.08740  Biso   1.000  H
  C12      1.0000 0.09620  0.10740  0.96500  Biso   1.000  C
  H47      1.0000 0.05930  0.13860  0.96960  Biso   1.000  H
  H48      1.0000 0.08380  0.09350  0.79670  Biso   1.000  H
  N13      1.0000 0.91840  0.55240  0.38300  Biso   1.000  N
  H49      1.0000 0.91410  0.57240  0.24200  Biso   1.000  H
  H50      1.0000 0.87910  0.52570  0.35080  Biso   1.000  H
  N14      1.0000 0.85510  0.70360  0.63600  Biso   1.000  N
  H51      1.0000 0.88870  0.73420  0.63810  Biso   1.000  H
  H52      1.0000 0.86730  0.68840  0.79060  Biso   1.000  H
  N15      1.0000 0.66320  0.69320  0.89500  Biso   1.000  N
  H53      1.0000 0.62440  0.71950  0.87520  Biso   1.000  H
  H54      1.0000 0.65530  0.67380  0.74980  Biso   1.000  H
  N16      1.0000 0.60380  0.54690  0.12600  Biso   1.000  N
  H55      1.0000 0.61830  0.56010  0.28390  Biso   1.000  H
  H56      1.0000 0.63690  0.51750  0.11640  Biso   1.000  H
  C13      1.0000 0.92110  0.60460  0.56000  Biso   1.000  C
  H57      1.0000 0.96180  0.63490  0.58750  Biso   1.000  H
  H58      1.0000 0.92870  0.58310  0.71520  Biso   1.000  H
  C14      1.0000 0.85170  0.64570  0.47100  Biso   1.000  C
  H59      1.0000 0.84180  0.66340  0.30850  Biso   1.000  H
  H60      1.0000 0.81170  0.61590  0.45770  Biso   1.000  H
  C15      1.0000 0.67060  0.63990  0.07500  Biso   1.000  C
  H61      1.0000 0.68090  0.65910  0.23580  Biso   1.000  H
  H62      1.0000 0.70840  0.60750  0.08740  Biso   1.000  H
  C16      1.0000 0.59620  0.60740  0.96500  Biso   1.000  C
  H63      1.0000 0.55930  0.63860  0.96960  Biso   1.000  H
  H64      1.0000 0.58380  0.59350  0.79670  Biso   1.000  H
  N17      1.0000 0.41840  0.94760  0.88300  Biso   1.000  N
  H65      1.0000 0.41410  0.92760  0.74200  Biso   1.000  H
  H66      1.0000 0.37910  0.97430  0.85080  Biso   1.000  H
  N18      1.0000 0.35510  0.79640  0.13600  Biso   1.000  N
  H67      1.0000 0.38870  0.76580  0.13810  Biso   1.000  H
  H68      1.0000 0.36730  0.81160  0.29060  Biso   1.000  H
  N19      1.0000 0.16320  0.80680  0.39500  Biso   1.000  N
  H69      1.0000 0.12440  0.78050  0.37520  Biso   1.000  H
  H70      1.0000 0.15530  0.82620  0.24980  Biso   1.000  H
  N20      1.0000 0.10380  0.95310  0.62600  Biso   1.000  N
  H71      1.0000 0.11830  0.93990  0.78390  Biso   1.000  H
  H72      1.0000 0.13690  0.98250  0.61640  Biso   1.000  H
  C17      1.0000 0.42110  0.89540  0.06000  Biso   1.000  C
  H73      1.0000 0.46180  0.86510  0.08750  Biso   1.000  H
  H74      1.0000 0.42870  0.91690  0.21520  Biso   1.000  H
  C18      1.0000 0.35170  0.85430  0.97100  Biso   1.000  C
  H75      1.0000 0.34180  0.83660  0.80850  Biso   1.000  H
  H76      1.0000 0.31170  0.88410  0.95770  Biso   1.000  H
  C19      1.0000 0.17060  0.86010  0.57500  Biso   1.000  C
  H77      1.0000 0.18090  0.84090  0.73580  Biso   1.000  H
  H78      1.0000 0.20840  0.89250  0.58740  Biso   1.000  H
  C20      1.0000 0.09620  0.89260  0.46500  Biso   1.000  C
  H79      1.0000 0.05930  0.86140  0.46960  Biso   1.000  H
  H80      1.0000 0.08380  0.90650  0.29670  Biso   1.000  H
  N21      1.0000 0.91840  0.44760  0.88300  Biso   1.000  N
  H81      1.0000 0.91410  0.42760  0.74200  Biso   1.000  H
  H82      1.0000 0.87910  0.47430  0.85080  Biso   1.000  H
  N22      1.0000 0.85510  0.29640  0.13600  Biso   1.000  N
  H83      1.0000 0.88870  0.26580  0.13810  Biso   1.000  H
  H84      1.0000 0.86730  0.31160  0.29060  Biso   1.000  H
  N23      1.0000 0.66320  0.30680  0.39500  Biso   1.000  N
  H85      1.0000 0.62440  0.28050  0.37520  Biso   1.000  H
  H86      1.0000 0.65530  0.32620  0.24980  Biso   1.000  H
  N24      1.0000 0.60380  0.45310  0.62600  Biso   1.000  N
  H87      1.0000 0.61830  0.43990  0.78390  Biso   1.000  H
  H88      1.0000 0.63690  0.48250  0.61640  Biso   1.000  H
  C21      1.0000 0.92110  0.39540  0.06000  Biso   1.000  C
  H89      1.0000 0.96180  0.36510  0.08750  Biso   1.000  H
  H90      1.0000 0.92870  0.41690  0.21520  Biso   1.000  H
  C22      1.0000 0.85170  0.35430  0.97100  Biso   1.000  C
  H91      1.0000 0.84180  0.33660  0.80850  Biso   1.000  H
  H92      1.0000 0.81170  0.38410  0.95770  Biso   1.000  H
  C23      1.0000 0.67060  0.36010  0.57500  Biso   1.000  C
  H93      1.0000 0.68090  0.34090  0.73580  Biso   1.000  H
  H94      1.0000 0.70840  0.39250  0.58740  Biso   1.000  H
  C24      1.0000 0.59620  0.39260  0.46500  Biso   1.000  C
  H95      1.0000 0.55930  0.36140  0.46960  Biso   1.000  H
  H96      1.0000 0.58380  0.40650  0.29670  Biso   1.000  H
  N25      1.0000 0.58160  0.94760  0.61700  Biso   1.000  N
  H97      1.0000 0.58590  0.92760  0.75800  Biso   1.000  H
  H98      1.0000 0.62090  0.97430  0.64920  Biso   1.000  H
  N26      1.0000 0.64490  0.79640  0.36400  Biso   1.000  N
  H99      1.0000 0.61130  0.76580  0.36190  Biso   1.000  H
  H100     1.0000 0.63270  0.81160  0.20940  Biso   1.000  H
  N27      1.0000 0.83680  0.80680  0.10500  Biso   1.000  N
  H101     1.0000 0.87560  0.78050  0.12480  Biso   1.000  H
  H102     1.0000 0.84470  0.82620  0.25020  Biso   1.000  H
  N28      1.0000 0.89620  0.95310  0.87400  Biso   1.000  N
  H103     1.0000 0.88170  0.93990  0.71610  Biso   1.000  H
  H104     1.0000 0.86310  0.98250  0.88360  Biso   1.000  H
  C25      1.0000 0.57890  0.89540  0.44000  Biso   1.000  C
  H105     1.0000 0.53820  0.86510  0.41250  Biso   1.000  H
  H106     1.0000 0.57130  0.91690  0.28480  Biso   1.000  H
  C26      1.0000 0.64830  0.85430  0.52900  Biso   1.000  C
  H107     1.0000 0.65820  0.83660  0.69150  Biso   1.000  H
  H108     1.0000 0.68830  0.88410  0.54230  Biso   1.000  H
  C27      1.0000 0.82940  0.86010  0.92500  Biso   1.000  C
  H109     1.0000 0.81910  0.84090  0.76420  Biso   1.000  H
  H110     1.0000 0.79160  0.89250  0.91260  Biso   1.000  H
  C28      1.0000 0.90380  0.89260  0.03500  Biso   1.000  C
  H111     1.0000 0.94070  0.86140  0.03040  Biso   1.000  H
  H112     1.0000 0.91620  0.90650  0.20330  Biso   1.000  H
  N29      1.0000 0.08160  0.44760  0.61700  Biso   1.000  N
  H113     1.0000 0.08590  0.42760  0.75800  Biso   1.000  H
  H114     1.0000 0.12090  0.47430  0.64920  Biso   1.000  H
  N30      1.0000 0.14490  0.29640  0.36400  Biso   1.000  N
  H115     1.0000 0.11130  0.26580  0.36190  Biso   1.000  H
  H116     1.0000 0.13270  0.31160  0.20940  Biso   1.000  H
  N31      1.0000 0.33680  0.30680  0.10500  Biso   1.000  N
  H117     1.0000 0.37560  0.28050  0.12480  Biso   1.000  H
  H118     1.0000 0.34470  0.32620  0.25020  Biso   1.000  H
  N32      1.0000 0.39620  0.45310  0.87400  Biso   1.000  N
  H119     1.0000 0.38170  0.43990  0.71610  Biso   1.000  H
  H120     1.0000 0.36310  0.48250  0.88360  Biso   1.000  H
  C29      1.0000 0.07890  0.39540  0.44000  Biso   1.000  C
  H121     1.0000 0.03820  0.36510  0.41250  Biso   1.000  H
  H122     1.0000 0.07130  0.41690  0.28480  Biso   1.000  H
  C30      1.0000 0.14830  0.35430  0.52900  Biso   1.000  C
  H123     1.0000 0.15820  0.33660  0.69150  Biso   1.000  H
  H124     1.0000 0.18830  0.38410  0.54230  Biso   1.000  H
  C31      1.0000 0.32940  0.36010  0.92500  Biso   1.000  C
  H125     1.0000 0.31910  0.34090  0.76420  Biso   1.000  H
  H126     1.0000 0.29160  0.39250  0.91260  Biso   1.000  H
  C32      1.0000 0.40380  0.39260  0.03500  Biso   1.000  C
  H127     1.0000 0.44070  0.36140  0.03040  Biso   1.000  H
  H128     1.0000 0.41620  0.40650  0.20330  Biso   1.000  H
  Ag1      1.0000 0.50000  0.00000  0.00000  Biso   1.000  Ag
  Ag2      1.0000 0.00000  0.50000  0.00000  Biso   1.000  Ag
  Ag3      1.0000 0.50000  0.00000  0.50000  Biso   1.000  Ag
  Ag4      1.0000 0.00000  0.50000  0.50000  Biso   1.000  Ag
  Ag5      1.0000 0.75000  0.25000  0.00000  Biso   1.000  Ag
  Ag6      1.0000 0.25000  0.25000  0.50000  Biso   1.000  Ag
  Ag7      1.0000 0.25000  0.75000  0.00000  Biso   1.000  Ag
  Ag8      1.0000 0.75000  0.75000  0.50000  Biso   1.000  Ag
  Ag9      1.0000 0.75000  0.25000  0.50000  Biso   1.000  Ag
  Ag10     1.0000 0.25000  0.25000  0.00000  Biso   1.000  Ag
  Ag11     1.0000 0.25000  0.75000  0.50000  Biso   1.000  Ag
  Ag12     1.0000 0.75000  0.75000  0.00000  Biso   1.000  Ag
  Ag13     1.0000 0.00000  0.00000  0.50000  Biso   1.000  Ag
  Ag14     1.0000 0.50000  0.50000  0.50000  Biso   1.000  Ag
  Ag15     1.0000 0.00000  0.00000  0.00000  Biso   1.000  Ag
  Ag16     1.0000 0.50000  0.50000  0.00000  Biso   1.000  Ag
