data_image0
_cell_length_a       20.878
_cell_length_b       19.789
_cell_length_c       6.1653
_cell_angle_alpha    90
_cell_angle_beta     114.429
_cell_angle_gamma    90

_symmetry_space_group_name_H-M    "P 1"
_symmetry_int_tables_number       1

loop_
  _symmetry_equiv_pos_as_xyz
  'x, y, z'

loop_
  _atom_site_label
  _atom_site_occupancy
  _atom_site_fract_x
  _atom_site_fract_y
  _atom_site_fract_z
  _atom_site_thermal_displace_type
  _atom_site_B_iso_or_equiv
  _atom_site_type_symbol
  N1       1.0000 0.60040  0.04730  0.11600  Biso   1.000  N
  H1       1.0000 0.61520  0.05960  0.26930  Biso   1.000  H
  H2       1.0000 0.63170  0.01770  0.10490  Biso   1.000  H
  N2       1.0000 0.66690  0.19880  0.89800  Biso   1.000  N
  H3       1.0000 0.63150  0.22640  0.88730  Biso   1.000  H
  H4       1.0000 0.65710  0.18330  0.75030  Biso   1.000  H
  N3       1.0000 0.84940  0.19630  0.61920  Biso   1.000  N
  H5       1.0000 0.88390  0.22470  0.62710  Biso   1.000  H
  H6       1.0000 0.86050  0.17860  0.76480  Biso   1.000  H
  N4       1.0000 0.90960  0.05460  0.38800  Biso   1.000  N
  H7       1.0000 0.90110  0.07290  0.24460  Biso   1.000  H
  H8       1.0000 0.87360  0.02680  0.36920  Biso   1.000  H
  C1       1.0000 0.59680  0.10650  0.97100  Biso   1.000  C
  H9       1.0000 0.56320  0.13840  0.98360  Biso   1.000  H
  H10      1.0000 0.58050  0.09320  0.80570  Biso   1.000  H
  C2       1.0000 0.66760  0.14030  0.05000  Biso   1.000  C
  H11      1.0000 0.68260  0.15560  0.21330  Biso   1.000  H
  H12      1.0000 0.70170  0.10740  0.04720  Biso   1.000  H
  C3       1.0000 0.84070  0.14150  0.44300  Biso   1.000  C
  H13      1.0000 0.83110  0.15940  0.28620  Biso   1.000  H
  H14      1.0000 0.80390  0.11000  0.43200  Biso   1.000  H
  C4       1.0000 0.91270  0.10950  0.55700  Biso   1.000  C
  H15      1.0000 0.94920  0.14200  0.57270  Biso   1.000  H
  H16      1.0000 0.92150  0.09130  0.71260  Biso   1.000  H
  N5       1.0000 0.10040  0.54730  0.11600  Biso   1.000  N
  H17      1.0000 0.11520  0.55960  0.26930  Biso   1.000  H
  H18      1.0000 0.13170  0.51770  0.10490  Biso   1.000  H
  N6       1.0000 0.16690  0.69880  0.89800  Biso   1.000  N
  H19      1.0000 0.13150  0.72640  0.88730  Biso   1.000  H
  H20      1.0000 0.15710  0.68330  0.75030  Biso   1.000  H
  N7       1.0000 0.34940  0.69630  0.61920  Biso   1.000  N
  H21      1.0000 0.38390  0.72470  0.62710  Biso   1.000  H
  H22      1.0000 0.36050  0.67860  0.76480  Biso   1.000  H
  N8       1.0000 0.40960  0.55460  0.38800  Biso   1.000  N
  H23      1.0000 0.40110  0.57290  0.24460  Biso   1.000  H
  H24      1.0000 0.37360  0.52680  0.36920  Biso   1.000  H
  C5       1.0000 0.09680  0.60650  0.97100  Biso   1.000  C
  H25      1.0000 0.06320  0.63840  0.98360  Biso   1.000  H
  H26      1.0000 0.08050  0.59320  0.80570  Biso   1.000  H
  C6       1.0000 0.16760  0.64030  0.05000  Biso   1.000  C
  H27      1.0000 0.18260  0.65560  0.21330  Biso   1.000  H
  H28      1.0000 0.20170  0.60740  0.04720  Biso   1.000  H
  C7       1.0000 0.34070  0.64150  0.44300  Biso   1.000  C
  H29      1.0000 0.33110  0.65940  0.28620  Biso   1.000  H
  H30      1.0000 0.30390  0.61000  0.43200  Biso   1.000  H
  C8       1.0000 0.41270  0.60950  0.55700  Biso   1.000  C
  H31      1.0000 0.44920  0.64200  0.57270  Biso   1.000  H
  H32      1.0000 0.42150  0.59130  0.71260  Biso   1.000  H
  N9       1.0000 0.39960  0.04730  0.38400  Biso   1.000  N
  H33      1.0000 0.38480  0.05960  0.23070  Biso   1.000  H
  H34      1.0000 0.36830  0.01770  0.39510  Biso   1.000  H
  N10      1.0000 0.33310  0.19880  0.60200  Biso   1.000  N
  H35      1.0000 0.36850  0.22640  0.61270  Biso   1.000  H
  H36      1.0000 0.34290  0.18330  0.74970  Biso   1.000  H
  N11      1.0000 0.15060  0.19630  0.88080  Biso   1.000  N
  H37      1.0000 0.11610  0.22470  0.87290  Biso   1.000  H
  H38      1.0000 0.13950  0.17860  0.73520  Biso   1.000  H
  N12      1.0000 0.09040  0.05460  0.11200  Biso   1.000  N
  H39      1.0000 0.09890  0.07290  0.25540  Biso   1.000  H
  H40      1.0000 0.12640  0.02680  0.13080  Biso   1.000  H
  C9       1.0000 0.40320  0.10650  0.52900  Biso   1.000  C
  H41      1.0000 0.43680  0.13840  0.51640  Biso   1.000  H
  H42      1.0000 0.41950  0.09320  0.69430  Biso   1.000  H
  C10      1.0000 0.33240  0.14030  0.45000  Biso   1.000  C
  H43      1.0000 0.31740  0.15560  0.28670  Biso   1.000  H
  H44      1.0000 0.29830  0.10740  0.45280  Biso   1.000  H
  C11      1.0000 0.15930  0.14150  0.05700  Biso   1.000  C
  H45      1.0000 0.16890  0.15940  0.21380  Biso   1.000  H
  H46      1.0000 0.19610  0.11000  0.06800  Biso   1.000  H
  C12      1.0000 0.08730  0.10950  0.94300  Biso   1.000  C
  H47      1.0000 0.05080  0.14200  0.92730  Biso   1.000  H
  H48      1.0000 0.07850  0.09130  0.78740  Biso   1.000  H
  N13      1.0000 0.89960  0.54730  0.38400  Biso   1.000  N
  H49      1.0000 0.88480  0.55960  0.23070  Biso   1.000  H
  H50      1.0000 0.86830  0.51770  0.39510  Biso   1.000  H
  N14      1.0000 0.83310  0.69880  0.60200  Biso   1.000  N
  H51      1.0000 0.86850  0.72640  0.61270  Biso   1.000  H
  H52      1.0000 0.84290  0.68330  0.74970  Biso   1.000  H
  N15      1.0000 0.65060  0.69630  0.88080  Biso   1.000  N
  H53      1.0000 0.61610  0.72470  0.87290  Biso   1.000  H
  H54      1.0000 0.63950  0.67860  0.73520  Biso   1.000  H
  N16      1.0000 0.59040  0.55460  0.11200  Biso   1.000  N
  H55      1.0000 0.59890  0.57290  0.25540  Biso   1.000  H
  H56      1.0000 0.62640  0.52680  0.13080  Biso   1.000  H
  C13      1.0000 0.90320  0.60650  0.52900  Biso   1.000  C
  H57      1.0000 0.93680  0.63840  0.51640  Biso   1.000  H
  H58      1.0000 0.91950  0.59320  0.69430  Biso   1.000  H
  C14      1.0000 0.83240  0.64030  0.45000  Biso   1.000  C
  H59      1.0000 0.81740  0.65560  0.28670  Biso   1.000  H
  H60      1.0000 0.79830  0.60740  0.45280  Biso   1.000  H
  C15      1.0000 0.65930  0.64150  0.05700  Biso   1.000  C
  H61      1.0000 0.66890  0.65940  0.21380  Biso   1.000  H
  H62      1.0000 0.69610  0.61000  0.06800  Biso   1.000  H
  C16      1.0000 0.58730  0.60950  0.94300  Biso   1.000  C
  H63      1.0000 0.55080  0.64200  0.92730  Biso   1.000  H
  H64      1.0000 0.57850  0.59130  0.78740  Biso   1.000  H
  N17      1.0000 0.39960  0.95270  0.88400  Biso   1.000  N
  H65      1.0000 0.38480  0.94040  0.73070  Biso   1.000  H
  H66      1.0000 0.36830  0.98230  0.89510  Biso   1.000  H
  N18      1.0000 0.33310  0.80120  0.10200  Biso   1.000  N
  H67      1.0000 0.36850  0.77360  0.11270  Biso   1.000  H
  H68      1.0000 0.34290  0.81670  0.24970  Biso   1.000  H
  N19      1.0000 0.15060  0.80370  0.38080  Biso   1.000  N
  H69      1.0000 0.11610  0.77530  0.37290  Biso   1.000  H
  H70      1.0000 0.13950  0.82140  0.23520  Biso   1.000  H
  N20      1.0000 0.09040  0.94540  0.61200  Biso   1.000  N
  H71      1.0000 0.09890  0.92710  0.75540  Biso   1.000  H
  H72      1.0000 0.12640  0.97320  0.63080  Biso   1.000  H
  C17      1.0000 0.40320  0.89350  0.02900  Biso   1.000  C
  H73      1.0000 0.43680  0.86160  0.01640  Biso   1.000  H
  H74      1.0000 0.41950  0.90680  0.19430  Biso   1.000  H
  C18      1.0000 0.33240  0.85970  0.95000  Biso   1.000  C
  H75      1.0000 0.31740  0.84440  0.78670  Biso   1.000  H
  H76      1.0000 0.29830  0.89260  0.95280  Biso   1.000  H
  C19      1.0000 0.15930  0.85850  0.55700  Biso   1.000  C
  H77      1.0000 0.16890  0.84060  0.71380  Biso   1.000  H
  H78      1.0000 0.19610  0.89000  0.56800  Biso   1.000  H
  C20      1.0000 0.08730  0.89050  0.44300  Biso   1.000  C
  H79      1.0000 0.05080  0.85800  0.42730  Biso   1.000  H
  H80      1.0000 0.07850  0.90870  0.28740  Biso   1.000  H
  N21      1.0000 0.89960  0.45270  0.88400  Biso   1.000  N
  H81      1.0000 0.88480  0.44040  0.73070  Biso   1.000  H
  H82      1.0000 0.86830  0.48230  0.89510  Biso   1.000  H
  N22      1.0000 0.83310  0.30120  0.10200  Biso   1.000  N
  H83      1.0000 0.86850  0.27360  0.11270  Biso   1.000  H
  H84      1.0000 0.84290  0.31670  0.24970  Biso   1.000  H
  N23      1.0000 0.65060  0.30370  0.38080  Biso   1.000  N
  H85      1.0000 0.61610  0.27530  0.37290  Biso   1.000  H
  H86      1.0000 0.63950  0.32140  0.23520  Biso   1.000  H
  N24      1.0000 0.59040  0.44540  0.61200  Biso   1.000  N
  H87      1.0000 0.59890  0.42710  0.75540  Biso   1.000  H
  H88      1.0000 0.62640  0.47320  0.63080  Biso   1.000  H
  C21      1.0000 0.90320  0.39350  0.02900  Biso   1.000  C
  H89      1.0000 0.93680  0.36160  0.01640  Biso   1.000  H
  H90      1.0000 0.91950  0.40680  0.19430  Biso   1.000  H
  C22      1.0000 0.83240  0.35970  0.95000  Biso   1.000  C
  H91      1.0000 0.81740  0.34440  0.78670  Biso   1.000  H
  H92      1.0000 0.79830  0.39260  0.95280  Biso   1.000  H
  C23      1.0000 0.65930  0.35850  0.55700  Biso   1.000  C
  H93      1.0000 0.66890  0.34060  0.71380  Biso   1.000  H
  H94      1.0000 0.69610  0.39000  0.56800  Biso   1.000  H
  C24      1.0000 0.58730  0.39050  0.44300  Biso   1.000  C
  H95      1.0000 0.55080  0.35800  0.42730  Biso   1.000  H
  H96      1.0000 0.57850  0.40870  0.28740  Biso   1.000  H
  N25      1.0000 0.60040  0.95270  0.61600  Biso   1.000  N
  H97      1.0000 0.61520  0.94040  0.76930  Biso   1.000  H
  H98      1.0000 0.63170  0.98230  0.60490  Biso   1.000  H
  N26      1.0000 0.66690  0.80120  0.39800  Biso   1.000  N
  H99      1.0000 0.63150  0.77360  0.38730  Biso   1.000  H
  H100     1.0000 0.65710  0.81670  0.25030  Biso   1.000  H
  N27      1.0000 0.84940  0.80370  0.11920  Biso   1.000  N
  H101     1.0000 0.88390  0.77530  0.12710  Biso   1.000  H
  H102     1.0000 0.86050  0.82140  0.26480  Biso   1.000  H
  N28      1.0000 0.90960  0.94540  0.88800  Biso   1.000  N
  H103     1.0000 0.90110  0.92710  0.74460  Biso   1.000  H
  H104     1.0000 0.87360  0.97320  0.86920  Biso   1.000  H
  C25      1.0000 0.59680  0.89350  0.47100  Biso   1.000  C
  H105     1.0000 0.56320  0.86160  0.48360  Biso   1.000  H
  H106     1.0000 0.58050  0.90680  0.30570  Biso   1.000  H
  C26      1.0000 0.66760  0.85970  0.55000  Biso   1.000  C
  H107     1.0000 0.68260  0.84440  0.71330  Biso   1.000  H
  H108     1.0000 0.70170  0.89260  0.54720  Biso   1.000  H
  C27      1.0000 0.84070  0.85850  0.94300  Biso   1.000  C
  H109     1.0000 0.83110  0.84060  0.78620  Biso   1.000  H
  H110     1.0000 0.80390  0.89000  0.93200  Biso   1.000  H
  C28      1.0000 0.91270  0.89050  0.05700  Biso   1.000  C
  H111     1.0000 0.94920  0.85800  0.07270  Biso   1.000  H
  H112     1.0000 0.92150  0.90870  0.21260  Biso   1.000  H
  N29      1.0000 0.10040  0.45270  0.61600  Biso   1.000  N
  H113     1.0000 0.11520  0.44040  0.76930  Biso   1.000  H
  H114     1.0000 0.13170  0.48230  0.60490  Biso   1.000  H
  N30      1.0000 0.16690  0.30120  0.39800  Biso   1.000  N
  H115     1.0000 0.13150  0.27360  0.38730  Biso   1.000  H
  H116     1.0000 0.15710  0.31670  0.25030  Biso   1.000  H
  N31      1.0000 0.34940  0.30370  0.11920  Biso   1.000  N
  H117     1.0000 0.38390  0.27530  0.12710  Biso   1.000  H
  H118     1.0000 0.36050  0.32140  0.26480  Biso   1.000  H
  N32      1.0000 0.40960  0.44540  0.88800  Biso   1.000  N
  H119     1.0000 0.40110  0.42710  0.74460  Biso   1.000  H
  H120     1.0000 0.37360  0.47320  0.86920  Biso   1.000  H
  C29      1.0000 0.09680  0.39350  0.47100  Biso   1.000  C
  H121     1.0000 0.06320  0.36160  0.48360  Biso   1.000  H
  H122     1.0000 0.08050  0.40680  0.30570  Biso   1.000  H
  C30      1.0000 0.16760  0.35970  0.55000  Biso   1.000  C
  H123     1.0000 0.18260  0.34440  0.71330  Biso   1.000  H
  H124     1.0000 0.20170  0.39260  0.54720  Biso   1.000  H
  C31      1.0000 0.34070  0.35850  0.94300  Biso   1.000  C
  H125     1.0000 0.33110  0.34060  0.78620  Biso   1.000  H
  H126     1.0000 0.30390  0.39000  0.93200  Biso   1.000  H
  C32      1.0000 0.41270  0.39050  0.05700  Biso   1.000  C
  H127     1.0000 0.44920  0.35800  0.07270  Biso   1.000  H
  H128     1.0000 0.42150  0.40870  0.21260  Biso   1.000  H
  Ag1      1.0000 0.50000  0.00000  0.00000  Biso   1.000  Ag
  Ag2      1.0000 0.00000  0.50000  0.00000  Biso   1.000  Ag
  Ag3      1.0000 0.50000  0.00000  0.50000  Biso   1.000  Ag
  Ag4      1.0000 0.00000  0.50000  0.50000  Biso   1.000  Ag
  Ag5      1.0000 0.75000  0.25000  0.00000  Biso   1.000  Ag
  Ag6      1.0000 0.25000  0.25000  0.50000  Biso   1.000  Ag
  Ag7      1.0000 0.25000  0.75000  0.00000  Biso   1.000  Ag
  Ag8      1.0000 0.75000  0.75000  0.50000  Biso   1.000  Ag
  Ag9      1.0000 0.75000  0.25000  0.50000  Biso   1.000  Ag
  Ag10     1.0000 0.25000  0.25000  0.00000  Biso   1.000  Ag
  Ag11     1.0000 0.25000  0.75000  0.50000  Biso   1.000  Ag
  Ag12     1.0000 0.75000  0.75000  0.00000  Biso   1.000  Ag
  Ag13     1.0000 0.00000  0.00000  0.50000  Biso   1.000  Ag
  Ag14     1.0000 0.50000  0.50000  0.50000  Biso   1.000  Ag
  Ag15     1.0000 0.00000  0.00000  0.00000  Biso   1.000  Ag
  Ag16     1.0000 0.50000  0.50000  0.00000  Biso   1.000  Ag
