data_image0
_cell_length_a       12.61
_cell_length_b       18.003
_cell_length_c       19.356
_cell_angle_alpha    104.37
_cell_angle_beta     90
_cell_angle_gamma    90

_symmetry_space_group_name_H-M    P 1
_symmetry_int_tables_number       1

loop_
  _symmetry_equiv_pos_as_xyz
  'x, y, z'

loop_
  _atom_site_label
  _atom_site_occupancy
  _atom_site_fract_x
  _atom_site_fract_y
  _atom_site_fract_z
  _atom_site_thermal_displace_type
  _atom_site_B_iso_or_equiv
  _atom_site_type_symbol
  Cu1      1.0000 0.74280  0.74849  0.01047  Biso   1.000  Cu
  Cu2      1.0000 0.25790  0.75720  0.03527  Biso   1.000  Cu
  Cu3      1.0000 0.24280  0.75151  0.48953  Biso   1.000  Cu
  Cu4      1.0000 0.75790  0.74280  0.46473  Biso   1.000  Cu
  Cu5      1.0000 0.25720  0.25151  0.98953  Biso   1.000  Cu
  Cu6      1.0000 0.74210  0.24280  0.96473  Biso   1.000  Cu
  Cu7      1.0000 0.75720  0.24849  0.51047  Biso   1.000  Cu
  Cu8      1.0000 0.24210  0.25720  0.53527  Biso   1.000  Cu
  H1       1.0000 0.03850  0.21420  0.58720  Biso   1.000  H
  H2       1.0000 0.90140  0.13090  0.55250  Biso   1.000  H
  H3       1.0000 0.06630  0.03820  0.37390  Biso   1.000  H
  H4       1.0000 0.19910  0.12230  0.41840  Biso   1.000  H
  H5       1.0000 0.80870  0.05030  0.43750  Biso   1.000  H
  H6       1.0000 0.86800  0.98520  0.46240  Biso   1.000  H
  H7       1.0000 0.94070  0.94050  0.34890  Biso   1.000  H
  H8       1.0000 0.88440  0.00700  0.32360  Biso   1.000  H
  H9       1.0000 0.71790  0.95640  0.34950  Biso   1.000  H
  H10      1.0000 0.77880  0.88660  0.36520  Biso   1.000  H
  H11      1.0000 0.62130  0.90780  0.24270  Biso   1.000  H
  H12      1.0000 0.61110  0.84220  0.12670  Biso   1.000  H
  H13      1.0000 0.92380  0.84180  0.24330  Biso   1.000  H
  H14      1.0000 0.90470  0.78070  0.12530  Biso   1.000  H
  H15      1.0000 0.67800  0.01780  0.98460  Biso   1.000  H
  H16      1.0000 0.45120  0.28040  0.46930  Biso   1.000  H
  H17      1.0000 0.58660  0.36570  0.48680  Biso   1.000  H
  H18      1.0000 0.41500  0.49950  0.64270  Biso   1.000  H
  H19      1.0000 0.28560  0.41180  0.61920  Biso   1.000  H
  H20      1.0000 0.67720  0.47390  0.56800  Biso   1.000  H
  H21      1.0000 0.60040  0.53930  0.55970  Biso   1.000  H
  H22      1.0000 0.63500  0.49820  0.68580  Biso   1.000  H
  H23      1.0000 0.56040  0.56450  0.67720  Biso   1.000  H
  H24      1.0000 0.78110  0.56730  0.66430  Biso   1.000  H
  H25      1.0000 0.70640  0.63370  0.65540  Biso   1.000  H
  H26      1.0000 0.57400  0.67020  0.77340  Biso   1.000  H
  H27      1.0000 0.58560  0.72780  0.89260  Biso   1.000  H
  H28      1.0000 0.87520  0.60030  0.77510  Biso   1.000  H
  H29      1.0000 0.87640  0.65280  0.89580  Biso   1.000  H
  H30      1.0000 0.82270  0.47760  0.01130  Biso   1.000  H
  H31      1.0000 0.53850  0.28580  0.91280  Biso   1.000  H
  H32      1.0000 0.40140  0.36910  0.94750  Biso   1.000  H
  H33      1.0000 0.56630  0.46180  0.12610  Biso   1.000  H
  H34      1.0000 0.69910  0.37770  0.08160  Biso   1.000  H
  H35      1.0000 0.30870  0.44970  0.06250  Biso   1.000  H
  H36      1.0000 0.36800  0.51480  0.03760  Biso   1.000  H
  H37      1.0000 0.44070  0.55950  0.15110  Biso   1.000  H
  H38      1.0000 0.38440  0.49300  0.17640  Biso   1.000  H
  H39      1.0000 0.21790  0.54360  0.15050  Biso   1.000  H
  H40      1.0000 0.27880  0.61340  0.13480  Biso   1.000  H
  H41      1.0000 0.12130  0.59220  0.25730  Biso   1.000  H
  H42      1.0000 0.11110  0.65780  0.37330  Biso   1.000  H
  H43      1.0000 0.42380  0.65820  0.25670  Biso   1.000  H
  H44      1.0000 0.40470  0.71930  0.37470  Biso   1.000  H
  H45      1.0000 0.17800  0.48220  0.51540  Biso   1.000  H
  H46      1.0000 0.95120  0.21960  0.03070  Biso   1.000  H
  H47      1.0000 0.08660  0.13430  0.01320  Biso   1.000  H
  H48      1.0000 0.91500  0.00050  0.85730  Biso   1.000  H
  H49      1.0000 0.78560  0.08820  0.88080  Biso   1.000  H
  H50      1.0000 0.17720  0.02610  0.93200  Biso   1.000  H
  H51      1.0000 0.10040  0.96070  0.94030  Biso   1.000  H
  H52      1.0000 0.13500  0.00180  0.81420  Biso   1.000  H
  H53      1.0000 0.06040  0.93550  0.82280  Biso   1.000  H
  H54      1.0000 0.28110  0.93270  0.83570  Biso   1.000  H
  H55      1.0000 0.20640  0.86630  0.84460  Biso   1.000  H
  H56      1.0000 0.07400  0.82980  0.72660  Biso   1.000  H
  H57      1.0000 0.08560  0.77220  0.60740  Biso   1.000  H
  H58      1.0000 0.37520  0.89970  0.72490  Biso   1.000  H
  H59      1.0000 0.37640  0.84720  0.60420  Biso   1.000  H
  H60      1.0000 0.32270  0.02240  0.48870  Biso   1.000  H
  H61      1.0000 0.96150  0.78580  0.41280  Biso   1.000  H
  H62      1.0000 0.09860  0.86910  0.44750  Biso   1.000  H
  H63      1.0000 0.93370  0.96180  0.62610  Biso   1.000  H
  H64      1.0000 0.80090  0.87770  0.58160  Biso   1.000  H
  H65      1.0000 0.19130  0.94970  0.56250  Biso   1.000  H
  H66      1.0000 0.13200  0.01480  0.53760  Biso   1.000  H
  H67      1.0000 0.05930  0.05950  0.65110  Biso   1.000  H
  H68      1.0000 0.11560  0.99300  0.67640  Biso   1.000  H
  H69      1.0000 0.28210  0.04360  0.65050  Biso   1.000  H
  H70      1.0000 0.22120  0.11340  0.63480  Biso   1.000  H
  H71      1.0000 0.37870  0.09220  0.75730  Biso   1.000  H
  H72      1.0000 0.38890  0.15780  0.87330  Biso   1.000  H
  H73      1.0000 0.07620  0.15820  0.75670  Biso   1.000  H
  H74      1.0000 0.09530  0.21930  0.87470  Biso   1.000  H
  H75      1.0000 0.32200  0.98220  0.01540  Biso   1.000  H
  H76      1.0000 0.54880  0.71960  0.53070  Biso   1.000  H
  H77      1.0000 0.41340  0.63430  0.51320  Biso   1.000  H
  H78      1.0000 0.58500  0.50050  0.35730  Biso   1.000  H
  H79      1.0000 0.71440  0.58820  0.38080  Biso   1.000  H
  H80      1.0000 0.32280  0.52610  0.43200  Biso   1.000  H
  H81      1.0000 0.39960  0.46070  0.44030  Biso   1.000  H
  H82      1.0000 0.36500  0.50180  0.31420  Biso   1.000  H
  H83      1.0000 0.43960  0.43550  0.32280  Biso   1.000  H
  H84      1.0000 0.21890  0.43270  0.33570  Biso   1.000  H
  H85      1.0000 0.29360  0.36630  0.34460  Biso   1.000  H
  H86      1.0000 0.42600  0.32980  0.22660  Biso   1.000  H
  H87      1.0000 0.41440  0.27220  0.10740  Biso   1.000  H
  H88      1.0000 0.12480  0.39970  0.22490  Biso   1.000  H
  H89      1.0000 0.12360  0.34720  0.10420  Biso   1.000  H
  H90      1.0000 0.17730  0.52240  0.98870  Biso   1.000  H
  H91      1.0000 0.46150  0.71420  0.08720  Biso   1.000  H
  H92      1.0000 0.59860  0.63090  0.05250  Biso   1.000  H
  H93      1.0000 0.43370  0.53820  0.87390  Biso   1.000  H
  H94      1.0000 0.30090  0.62230  0.91840  Biso   1.000  H
  H95      1.0000 0.69130  0.55030  0.93750  Biso   1.000  H
  H96      1.0000 0.63200  0.48520  0.96240  Biso   1.000  H
  H97      1.0000 0.55930  0.44050  0.84890  Biso   1.000  H
  H98      1.0000 0.61560  0.50700  0.82360  Biso   1.000  H
  H99      1.0000 0.78210  0.45640  0.84950  Biso   1.000  H
  H100     1.0000 0.72120  0.38660  0.86520  Biso   1.000  H
  H101     1.0000 0.87870  0.40780  0.74270  Biso   1.000  H
  H102     1.0000 0.88890  0.34220  0.62670  Biso   1.000  H
  H103     1.0000 0.57620  0.34180  0.74330  Biso   1.000  H
  H104     1.0000 0.59530  0.28070  0.62530  Biso   1.000  H
  H105     1.0000 0.82200  0.51780  0.48460  Biso   1.000  H
  H106     1.0000 0.04880  0.78040  0.96930  Biso   1.000  H
  H107     1.0000 0.91340  0.86570  0.98680  Biso   1.000  H
  H108     1.0000 0.08500  0.99950  0.14270  Biso   1.000  H
  H109     1.0000 0.21440  0.91180  0.11920  Biso   1.000  H
  H110     1.0000 0.82280  0.97390  0.06800  Biso   1.000  H
  H111     1.0000 0.89960  0.03930  0.05970  Biso   1.000  H
  H112     1.0000 0.86500  0.99820  0.18580  Biso   1.000  H
  H113     1.0000 0.93960  0.06450  0.17720  Biso   1.000  H
  H114     1.0000 0.71890  0.06730  0.16430  Biso   1.000  H
  H115     1.0000 0.79360  0.13370  0.15540  Biso   1.000  H
  H116     1.0000 0.92600  0.17020  0.27340  Biso   1.000  H
  H117     1.0000 0.91440  0.22780  0.39260  Biso   1.000  H
  H118     1.0000 0.62480  0.10030  0.27510  Biso   1.000  H
  H119     1.0000 0.62360  0.15280  0.39580  Biso   1.000  H
  H120     1.0000 0.67730  0.97760  0.51130  Biso   1.000  H
  C1       1.0000 0.04400  0.17770  0.54390  Biso   1.000  C
  C2       1.0000 0.96040  0.12830  0.52320  Biso   1.000  C
  C3       1.0000 0.96480  0.07380  0.45720  Biso   1.000  C
  C4       1.0000 0.05810  0.07310  0.41790  Biso   1.000  C
  C5       1.0000 0.13720  0.12440  0.44490  Biso   1.000  C
  C6       1.0000 0.87340  0.02020  0.43160  Biso   1.000  C
  C7       1.0000 0.87840  0.97310  0.35530  Biso   1.000  C
  C8       1.0000 0.77970  0.92390  0.33660  Biso   1.000  C
  C9       1.0000 0.77080  0.88110  0.25770  Biso   1.000  C
  C10      1.0000 0.68030  0.88120  0.22060  Biso   1.000  C
  C11      1.0000 0.67540  0.84210  0.15020  Biso   1.000  C
  C12      1.0000 0.85900  0.84250  0.22050  Biso   1.000  C
  C13      1.0000 0.84650  0.80600  0.14990  Biso   1.000  C
  C14      1.0000 0.64870  0.87250  0.97700  Biso   1.000  C
  C15      1.0000 0.56930  0.93730  0.98660  Biso   1.000  C
  C16      1.0000 0.60590  0.01080  0.99090  Biso   1.000  C
  C17      1.0000 0.45890  0.92680  0.99600  Biso   1.000  C
  C18      1.0000 0.40830  0.85060  0.98650  Biso   1.000  C
  C19      1.0000 0.44450  0.32520  0.50540  Biso   1.000  C
  C20      1.0000 0.52680  0.37630  0.51570  Biso   1.000  C
  C21      1.0000 0.52160  0.44330  0.56860  Biso   1.000  C
  C22      1.0000 0.42510  0.45470  0.60710  Biso   1.000  C
  C23      1.0000 0.34820  0.40190  0.59310  Biso   1.000  C
  C24      1.0000 0.61180  0.50030  0.58560  Biso   1.000  C
  C25      1.0000 0.62570  0.53770  0.66020  Biso   1.000  C
  C26      1.0000 0.71520  0.59370  0.68050  Biso   1.000  C
  C27      1.0000 0.72430  0.62970  0.75730  Biso   1.000  C
  C28      1.0000 0.63770  0.66770  0.79690  Biso   1.000  C
  C29      1.0000 0.64380  0.70130  0.86900  Biso   1.000  C
  C30      1.0000 0.81510  0.62520  0.79730  Biso   1.000  C
  C31      1.0000 0.81560  0.65780  0.87020  Biso   1.000  C
  C32      1.0000 0.85000  0.62440  0.04790  Biso   1.000  C
  C33      1.0000 0.93040  0.56130  0.02600  Biso   1.000  C
  C34      1.0000 0.89450  0.48690  0.00650  Biso   1.000  C
  C35      1.0000 0.03820  0.57540  0.02030  Biso   1.000  C
  C36      1.0000 0.08670  0.65350  0.05050  Biso   1.000  C
  C37      1.0000 0.54400  0.32230  0.95610  Biso   1.000  C
  C38      1.0000 0.46040  0.37170  0.97680  Biso   1.000  C
  C39      1.0000 0.46480  0.42620  0.04280  Biso   1.000  C
  C40      1.0000 0.55810  0.42690  0.08210  Biso   1.000  C
  C41      1.0000 0.63720  0.37560  0.05510  Biso   1.000  C
  C42      1.0000 0.37340  0.47980  0.06840  Biso   1.000  C
  C43      1.0000 0.37840  0.52690  0.14470  Biso   1.000  C
  C44      1.0000 0.27970  0.57610  0.16340  Biso   1.000  C
  C45      1.0000 0.27080  0.61890  0.24230  Biso   1.000  C
  C46      1.0000 0.18030  0.61880  0.27940  Biso   1.000  C
  C47      1.0000 0.17540  0.65790  0.34980  Biso   1.000  C
  C48      1.0000 0.35900  0.65750  0.27950  Biso   1.000  C
  C49      1.0000 0.34650  0.69400  0.35010  Biso   1.000  C
  C50      1.0000 0.14870  0.62750  0.52300  Biso   1.000  C
  C51      1.0000 0.06930  0.56270  0.51340  Biso   1.000  C
  C52      1.0000 0.10590  0.48920  0.50910  Biso   1.000  C
  C53      1.0000 0.95890  0.57320  0.50400  Biso   1.000  C
  C54      1.0000 0.90830  0.64940  0.51350  Biso   1.000  C
  C55      1.0000 0.94450  0.17480  0.99460  Biso   1.000  C
  C56      1.0000 0.02680  0.12370  0.98430  Biso   1.000  C
  C57      1.0000 0.02160  0.05670  0.93140  Biso   1.000  C
  C58      1.0000 0.92510  0.04530  0.89290  Biso   1.000  C
  C59      1.0000 0.84820  0.09810  0.90690  Biso   1.000  C
  C60      1.0000 0.11180  0.99970  0.91440  Biso   1.000  C
  C61      1.0000 0.12570  0.96230  0.83980  Biso   1.000  C
  C62      1.0000 0.21520  0.90630  0.81950  Biso   1.000  C
  C63      1.0000 0.22430  0.87030  0.74270  Biso   1.000  C
  C64      1.0000 0.13770  0.83230  0.70310  Biso   1.000  C
  C65      1.0000 0.14380  0.79870  0.63100  Biso   1.000  C
  C66      1.0000 0.31510  0.87480  0.70270  Biso   1.000  C
  C67      1.0000 0.31560  0.84220  0.62980  Biso   1.000  C
  C68      1.0000 0.35000  0.87560  0.45210  Biso   1.000  C
  C69      1.0000 0.43040  0.93870  0.47400  Biso   1.000  C
  C70      1.0000 0.39450  0.01310  0.49350  Biso   1.000  C
  C71      1.0000 0.53820  0.92460  0.47970  Biso   1.000  C
  C72      1.0000 0.58670  0.84650  0.44950  Biso   1.000  C
  C73      1.0000 0.95600  0.82230  0.45610  Biso   1.000  C
  C74      1.0000 0.03960  0.87170  0.47680  Biso   1.000  C
  C75      1.0000 0.03520  0.92620  0.54280  Biso   1.000  C
  C76      1.0000 0.94190  0.92690  0.58210  Biso   1.000  C
  C77      1.0000 0.86280  0.87560  0.55510  Biso   1.000  C
  C78      1.0000 0.12660  0.97980  0.56840  Biso   1.000  C
  C79      1.0000 0.12160  0.02690  0.64470  Biso   1.000  C
  C80      1.0000 0.22030  0.07610  0.66340  Biso   1.000  C
  C81      1.0000 0.22920  0.11890  0.74230  Biso   1.000  C
  C82      1.0000 0.31970  0.11880  0.77940  Biso   1.000  C
  C83      1.0000 0.32460  0.15790  0.84980  Biso   1.000  C
  C84      1.0000 0.14100  0.15750  0.77950  Biso   1.000  C
  C85      1.0000 0.15350  0.19400  0.85010  Biso   1.000  C
  C86      1.0000 0.35130  0.12750  0.02300  Biso   1.000  C
  C87      1.0000 0.43070  0.06270  0.01340  Biso   1.000  C
  C88      1.0000 0.39410  0.98920  0.00910  Biso   1.000  C
  C89      1.0000 0.54110  0.07320  0.00400  Biso   1.000  C
  C90      1.0000 0.59170  0.14940  0.01350  Biso   1.000  C
  C91      1.0000 0.55550  0.67480  0.49460  Biso   1.000  C
  C92      1.0000 0.47320  0.62370  0.48430  Biso   1.000  C
  C93      1.0000 0.47840  0.55670  0.43140  Biso   1.000  C
  C94      1.0000 0.57490  0.54530  0.39290  Biso   1.000  C
  C95      1.0000 0.65180  0.59810  0.40690  Biso   1.000  C
  C96      1.0000 0.38820  0.49970  0.41440  Biso   1.000  C
  C97      1.0000 0.37430  0.46230  0.33980  Biso   1.000  C
  C98      1.0000 0.28480  0.40630  0.31950  Biso   1.000  C
  C99      1.0000 0.27570  0.37030  0.24270  Biso   1.000  C
  C100     1.0000 0.36230  0.33230  0.20310  Biso   1.000  C
  C101     1.0000 0.35620  0.29870  0.13100  Biso   1.000  C
  C102     1.0000 0.18490  0.37480  0.20270  Biso   1.000  C
  C103     1.0000 0.18440  0.34220  0.12980  Biso   1.000  C
  C104     1.0000 0.15000  0.37560  0.95210  Biso   1.000  C
  C105     1.0000 0.06960  0.43870  0.97400  Biso   1.000  C
  C106     1.0000 0.10550  0.51310  0.99350  Biso   1.000  C
  C107     1.0000 0.96180  0.42460  0.97970  Biso   1.000  C
  C108     1.0000 0.91330  0.34650  0.94950  Biso   1.000  C
  C109     1.0000 0.45600  0.67770  0.04390  Biso   1.000  C
  C110     1.0000 0.53960  0.62830  0.02320  Biso   1.000  C
  C111     1.0000 0.53520  0.57380  0.95720  Biso   1.000  C
  C112     1.0000 0.44190  0.57310  0.91790  Biso   1.000  C
  C113     1.0000 0.36280  0.62440  0.94490  Biso   1.000  C
  C114     1.0000 0.62660  0.52020  0.93160  Biso   1.000  C
  C115     1.0000 0.62160  0.47310  0.85530  Biso   1.000  C
  C116     1.0000 0.72030  0.42390  0.83660  Biso   1.000  C
  C117     1.0000 0.72920  0.38110  0.75770  Biso   1.000  C
  C118     1.0000 0.81970  0.38120  0.72060  Biso   1.000  C
  C119     1.0000 0.82460  0.34210  0.65020  Biso   1.000  C
  C120     1.0000 0.64100  0.34250  0.72050  Biso   1.000  C
  C121     1.0000 0.65350  0.30600  0.64990  Biso   1.000  C
  C122     1.0000 0.85130  0.37250  0.47700  Biso   1.000  C
  C123     1.0000 0.93070  0.43730  0.48660  Biso   1.000  C
  C124     1.0000 0.89410  0.51080  0.49090  Biso   1.000  C
  C125     1.0000 0.04110  0.42680  0.49600  Biso   1.000  C
  C126     1.0000 0.09170  0.35060  0.48650  Biso   1.000  C
  C127     1.0000 0.05550  0.82520  0.00540  Biso   1.000  C
  C128     1.0000 0.97320  0.87630  0.01570  Biso   1.000  C
  C129     1.0000 0.97840  0.94330  0.06860  Biso   1.000  C
  C130     1.0000 0.07490  0.95470  0.10710  Biso   1.000  C
  C131     1.0000 0.15180  0.90190  0.09310  Biso   1.000  C
  C132     1.0000 0.88820  0.00030  0.08560  Biso   1.000  C
  C133     1.0000 0.87430  0.03770  0.16020  Biso   1.000  C
  C134     1.0000 0.78480  0.09370  0.18050  Biso   1.000  C
  C135     1.0000 0.77570  0.12970  0.25730  Biso   1.000  C
  C136     1.0000 0.86230  0.16770  0.29690  Biso   1.000  C
  C137     1.0000 0.85620  0.20130  0.36900  Biso   1.000  C
  C138     1.0000 0.68490  0.12520  0.29730  Biso   1.000  C
  C139     1.0000 0.68440  0.15780  0.37020  Biso   1.000  C
  C140     1.0000 0.65000  0.12440  0.54790  Biso   1.000  C
  C141     1.0000 0.56960  0.06130  0.52600  Biso   1.000  C
  C142     1.0000 0.60550  0.98690  0.50650  Biso   1.000  C
  C143     1.0000 0.46180  0.07540  0.52030  Biso   1.000  C
  C144     1.0000 0.41330  0.15350  0.55050  Biso   1.000  C
  N1       1.0000 0.13090  0.17670  0.50660  Biso   1.000  N
  N2       1.0000 0.75380  0.80480  0.11390  Biso   1.000  N
  N3       1.0000 0.73330  0.69620  0.90570  Biso   1.000  N
  N4       1.0000 0.35660  0.33510  0.54290  Biso   1.000  N
  N5       1.0000 0.63090  0.32330  0.99340  Biso   1.000  N
  N6       1.0000 0.25380  0.69520  0.38610  Biso   1.000  N
  N7       1.0000 0.23330  0.80380  0.59430  Biso   1.000  N
  N8       1.0000 0.85660  0.16490  0.95710  Biso   1.000  N
  N9       1.0000 0.86910  0.82330  0.49340  Biso   1.000  N
  N10      1.0000 0.24620  0.19520  0.88610  Biso   1.000  N
  N11      1.0000 0.26670  0.30380  0.09430  Biso   1.000  N
  N12      1.0000 0.64340  0.66490  0.45710  Biso   1.000  N
  N13      1.0000 0.36910  0.67670  0.00660  Biso   1.000  N
  N14      1.0000 0.74620  0.30480  0.61390  Biso   1.000  N
  N15      1.0000 0.76670  0.19620  0.40570  Biso   1.000  N
  N16      1.0000 0.14340  0.83510  0.04290  Biso   1.000  N
  O1       1.0000 0.62480  0.81620  0.00290  Biso   1.000  O
  O2       1.0000 0.73540  0.87850  0.94800  Biso   1.000  O
  O3       1.0000 0.40480  0.80720  0.92630  Biso   1.000  O
  O4       1.0000 0.36430  0.83890  0.04170  Biso   1.000  O
  O5       1.0000 0.85730  0.67810  0.01700  Biso   1.000  O
  O6       1.0000 0.77700  0.61850  0.08950  Biso   1.000  O
  O7       1.0000 0.15260  0.67300  0.00980  Biso   1.000  O
  O8       1.0000 0.06190  0.69100  0.11050  Biso   1.000  O
  O9       1.0000 0.12480  0.68380  0.49710  Biso   1.000  O
  O10      1.0000 0.23540  0.62150  0.55200  Biso   1.000  O
  O11      1.0000 0.90480  0.69280  0.57370  Biso   1.000  O
  O12      1.0000 0.86430  0.66110  0.45830  Biso   1.000  O
  O13      1.0000 0.35730  0.82190  0.48300  Biso   1.000  O
  O14      1.0000 0.27700  0.88150  0.41050  Biso   1.000  O
  O15      1.0000 0.65260  0.82700  0.49020  Biso   1.000  O
  O16      1.0000 0.56190  0.80900  0.38950  Biso   1.000  O
  O17      1.0000 0.37520  0.18380  0.99710  Biso   1.000  O
  O18      1.0000 0.26460  0.12150  0.05200  Biso   1.000  O
  O19      1.0000 0.59520  0.19280  0.07370  Biso   1.000  O
  O20      1.0000 0.63570  0.16110  0.95830  Biso   1.000  O
  O21      1.0000 0.14270  0.32190  0.98300  Biso   1.000  O
  O22      1.0000 0.22300  0.38150  0.91050  Biso   1.000  O
  O23      1.0000 0.84740  0.32700  0.99020  Biso   1.000  O
  O24      1.0000 0.93810  0.30900  0.88950  Biso   1.000  O
  O25      1.0000 0.87520  0.31620  0.50290  Biso   1.000  O
  O26      1.0000 0.76460  0.37850  0.44800  Biso   1.000  O
  O27      1.0000 0.09520  0.30720  0.42630  Biso   1.000  O
  O28      1.0000 0.13570  0.33890  0.54170  Biso   1.000  O
  O29      1.0000 0.64270  0.17810  0.51700  Biso   1.000  O
  O30      1.0000 0.72300  0.11850  0.58950  Biso   1.000  O
  O31      1.0000 0.34740  0.17300  0.50980  Biso   1.000  O
  O32      1.0000 0.43810  0.19100  0.61050  Biso   1.000  O
