data_image0
_cell_length_a       15.0975
_cell_length_b       16.7752
_cell_length_c       16.9014
_cell_angle_alpha    110.493
_cell_angle_beta     91.562
_cell_angle_gamma    99.176

_symmetry_space_group_name_H-M    "P 1"
_symmetry_int_tables_number       1

loop_
  _symmetry_equiv_pos_as_xyz
  'x, y, z'

loop_
  _atom_site_label
  _atom_site_occupancy
  _atom_site_fract_x
  _atom_site_fract_y
  _atom_site_fract_z
  _atom_site_thermal_displace_type
  _atom_site_B_iso_or_equiv
  _atom_site_type_symbol
  Gd1      1.0000 0.55988  0.12226  0.02872  Biso   1.000  Gd
  Gd2      1.0000 0.51499  0.36249  0.14630  Biso   1.000  Gd
  Gd3      1.0000 0.45086  0.47078  0.38190  Biso   1.000  Gd
  O1       1.0000 0.43550  0.92530  0.85680  Biso   1.000  O
  O2       1.0000 0.50520  0.06170  0.88400  Biso   1.000  O
  O3       1.0000 0.37350  0.77490  0.02420  Biso   1.000  O
  O4       1.0000 0.41920  0.64770  0.97550  Biso   1.000  O
  O5       1.0000 0.46650  0.48700  0.15520  Biso   1.000  O
  O6       1.0000 0.40290  0.51910  0.27890  Biso   1.000  O
  O7       1.0000 0.30760  0.36860  0.31310  Biso   1.000  O
  O8       1.0000 0.43010  0.33460  0.25190  Biso   1.000  O
  O9       1.0000 0.42090  0.03650  0.03230  Biso   1.000  O
  O10      1.0000 0.31330  0.93480  0.04040  Biso   1.000  O
  O11      1.0000 0.63410  0.68240  0.92720  Biso   1.000  O
  O12      1.0000 0.54980  0.78470  0.96520  Biso   1.000  O
  O13      1.0000 0.58490  0.25460  0.16400  Biso   1.000  O
  O14      1.0000 0.70360  0.19440  0.12850  Biso   1.000  O
  O15      1.0000 0.57750  0.46530  0.46100  Biso   1.000  O
  O16      1.0000 0.67540  0.46220  0.55840  Biso   1.000  O
  O17      1.0000 0.33290  0.55800  0.80970  Biso   1.000  O
  O18      1.0000 0.42570  0.52720  0.70900  Biso   1.000  O
  O19      1.0000 0.51310  0.61790  0.43890  Biso   1.000  O
  O20      1.0000 0.57390  0.65050  0.57210  Biso   1.000  O
  N1       1.0000 0.39910  0.83570  0.42320  Biso   1.000  N
  H1       1.0000 0.41650  0.79350  0.43550  Biso   1.000  H
  N2       1.0000 0.35890  0.95870  0.43890  Biso   1.000  N
  N3       1.0000 0.35510  0.90990  0.35140  Biso   1.000  N
  N4       1.0000 0.01510  0.01630  0.12120  Biso   1.000  N
  H2       1.0000 0.03580  0.97080  0.08870  Biso   1.000  H
  N5       1.0000 0.00540  0.14630  0.20650  Biso   1.000  N
  N6       1.0000 0.91980  0.09890  0.18950  Biso   1.000  N
  N7       1.0000 0.97120  0.37720  0.47800  Biso   1.000  N
  H3       1.0000 0.94910  0.41160  0.52220  Biso   1.000  H
  N8       1.0000 0.98460  0.28960  0.35060  Biso   1.000  N
  N9       1.0000 0.06510  0.30410  0.39740  Biso   1.000  N
  C1       1.0000 0.46670  0.98670  0.83500  Biso   1.000  C
  C2       1.0000 0.44830  0.97330  0.74230  Biso   1.000  C
  C3       1.0000 0.44250  0.03900  0.71230  Biso   1.000  C
  H4       1.0000 0.45210  0.09740  0.75040  Biso   1.000  H
  C4       1.0000 0.42290  0.01980  0.62750  Biso   1.000  C
  H5       1.0000 0.41900  0.06460  0.60610  Biso   1.000  H
  C5       1.0000 0.40870  0.93510  0.57360  Biso   1.000  C
  C6       1.0000 0.41620  0.86970  0.60100  Biso   1.000  C
  H6       1.0000 0.40840  0.81190  0.56180  Biso   1.000  H
  C7       1.0000 0.43540  0.88750  0.68690  Biso   1.000  C
  H7       1.0000 0.43960  0.84210  0.70750  Biso   1.000  H
  C8       1.0000 0.38850  0.91340  0.47810  Biso   1.000  C
  C9       1.0000 0.37800  0.83610  0.34730  Biso   1.000  C
  C10      1.0000 0.38230  0.76210  0.26850  Biso   1.000  C
  C11      1.0000 0.37860  0.76940  0.18940  Biso   1.000  C
  H8       1.0000 0.36860  0.82180  0.18380  Biso   1.000  H
  C12      1.0000 0.38990  0.69890  0.11760  Biso   1.000  C
  C13      1.0000 0.39430  0.70880  0.03350  Biso   1.000  C
  C14      1.0000 0.40780  0.62340  0.12550  Biso   1.000  C
  H9       1.0000 0.41910  0.57720  0.07720  Biso   1.000  H
  C15      1.0000 0.40920  0.61600  0.20550  Biso   1.000  C
  C16      1.0000 0.42780  0.53450  0.21340  Biso   1.000  C
  C17      1.0000 0.39600  0.68470  0.27670  Biso   1.000  C
  H10      1.0000 0.39610  0.67910  0.33070  Biso   1.000  H
  C18      1.0000 0.34760  0.31440  0.26220  Biso   1.000  C
  C19      1.0000 0.29870  0.22490  0.21350  Biso   1.000  C
  C20      1.0000 0.20610  0.20460  0.21500  Biso   1.000  C
  H11      1.0000 0.17410  0.24710  0.24830  Biso   1.000  H
  C21      1.0000 0.15990  0.12070  0.16700  Biso   1.000  C
  C22      1.0000 0.20700  0.06020  0.11840  Biso   1.000  C
  H12      1.0000 0.17580  0.00390  0.08500  Biso   1.000  H
  C23      1.0000 0.30030  0.08050  0.11750  Biso   1.000  C
  C24      1.0000 0.34730  0.01430  0.06070  Biso   1.000  C
  C25      1.0000 0.34570  0.16250  0.16570  Biso   1.000  C
  H13      1.0000 0.40930  0.17620  0.16620  Biso   1.000  H
  C26      1.0000 0.06280  0.09570  0.16570  Biso   1.000  C
  C27      1.0000 0.92950  0.02180  0.13740  Biso   1.000  C
  C28      1.0000 0.85360  0.95040  0.10110  Biso   1.000  C
  C29      1.0000 0.76640  0.96560  0.12000  Biso   1.000  C
  H14      1.0000 0.75800  0.01940  0.16000  Biso   1.000  H
  C30      1.0000 0.69260  0.90130  0.07980  Biso   1.000  C
  H15      1.0000 0.63360  0.91130  0.09290  Biso   1.000  H
  C31      1.0000 0.70390  0.82270  0.02080  Biso   1.000  C
  C32      1.0000 0.62540  0.75790  0.96990  Biso   1.000  C
  C33      1.0000 0.79360  0.80670  0.00730  Biso   1.000  C
  H16      1.0000 0.80300  0.75120  0.97180  Biso   1.000  H
  C34      1.0000 0.86530  0.87050  0.04520  Biso   1.000  C
  H17      1.0000 0.92440  0.86030  0.03310  Biso   1.000  H
  C35      1.0000 0.66400  0.24290  0.18240  Biso   1.000  C
  C36      1.0000 0.70560  0.28870  0.27050  Biso   1.000  C
  C37      1.0000 0.65550  0.33600  0.33480  Biso   1.000  C
  H18      1.0000 0.59390  0.33610  0.32210  Biso   1.000  H
  C38      1.0000 0.69610  0.38200  0.41600  Biso   1.000  C
  C39      1.0000 0.64750  0.43930  0.48180  Biso   1.000  C
  C40      1.0000 0.78500  0.38060  0.43520  Biso   1.000  C
  H19      1.0000 0.81230  0.41300  0.49100  Biso   1.000  H
  C41      1.0000 0.83480  0.33400  0.37590  Biso   1.000  C
  C42      1.0000 0.79610  0.28730  0.29300  Biso   1.000  C
  H20      1.0000 0.83070  0.25450  0.25180  Biso   1.000  H
  C43      1.0000 0.92800  0.33190  0.40020  Biso   1.000  C
  C44      1.0000 0.05490  0.35890  0.47410  Biso   1.000  C
  C45      1.0000 0.12470  0.39210  0.54400  Biso   1.000  C
  C46      1.0000 0.10960  0.44460  0.62460  Biso   1.000  C
  H21      1.0000 0.05050  0.45550  0.63600  Biso   1.000  H
  C47      1.0000 0.17900  0.48140  0.68870  Biso   1.000  C
  H22      1.0000 0.16700  0.51500  0.74420  Biso   1.000  H
  C48      1.0000 0.26740  0.46900  0.67110  Biso   1.000  C
  C49      1.0000 0.34510  0.51980  0.73370  Biso   1.000  C
  C50      1.0000 0.28260  0.41450  0.58980  Biso   1.000  C
  H23      1.0000 0.34160  0.40360  0.57820  Biso   1.000  H
  C51      1.0000 0.21290  0.37710  0.52720  Biso   1.000  C
  H24      1.0000 0.22410  0.34110  0.47230  Biso   1.000  H
  C52      1.0000 0.54740  0.67300  0.51200  Biso   1.000  C
  H25      1.0000 0.55330  0.73300  0.52150  Biso   1.000  H
  Gd4      1.0000 0.44012  0.87774  0.97128  Biso   1.000  Gd
  Gd5      1.0000 0.48501  0.63751  0.85370  Biso   1.000  Gd
  Gd6      1.0000 0.54914  0.52922  0.61810  Biso   1.000  Gd
  O21      1.0000 0.56450  0.07470  0.14320  Biso   1.000  O
  O22      1.0000 0.49480  0.93830  0.11600  Biso   1.000  O
  O23      1.0000 0.62650  0.22510  0.97580  Biso   1.000  O
  O24      1.0000 0.58080  0.35230  0.02450  Biso   1.000  O
  O25      1.0000 0.53350  0.51300  0.84480  Biso   1.000  O
  O26      1.0000 0.59710  0.48090  0.72110  Biso   1.000  O
  O27      1.0000 0.69240  0.63140  0.68690  Biso   1.000  O
  O28      1.0000 0.56990  0.66540  0.74810  Biso   1.000  O
  O29      1.0000 0.57910  0.96350  0.96770  Biso   1.000  O
  O30      1.0000 0.68670  0.06520  0.95960  Biso   1.000  O
  O31      1.0000 0.36590  0.31760  0.07280  Biso   1.000  O
  O32      1.0000 0.45020  0.21530  0.03480  Biso   1.000  O
  O33      1.0000 0.41510  0.74540  0.83600  Biso   1.000  O
  O34      1.0000 0.29640  0.80560  0.87150  Biso   1.000  O
  O35      1.0000 0.42250  0.53470  0.53900  Biso   1.000  O
  O36      1.0000 0.32460  0.53780  0.44160  Biso   1.000  O
  O37      1.0000 0.66710  0.44200  0.19030  Biso   1.000  O
  O38      1.0000 0.57430  0.47280  0.29100  Biso   1.000  O
  O39      1.0000 0.48690  0.38210  0.56110  Biso   1.000  O
  O40      1.0000 0.42610  0.34950  0.42790  Biso   1.000  O
  N10      1.0000 0.60090  0.16430  0.57680  Biso   1.000  N
  H26      1.0000 0.58350  0.20650  0.56450  Biso   1.000  H
  N11      1.0000 0.64110  0.04130  0.56110  Biso   1.000  N
  N12      1.0000 0.64490  0.09010  0.64860  Biso   1.000  N
  N13      1.0000 0.98490  0.98370  0.87880  Biso   1.000  N
  H27      1.0000 0.96420  0.02920  0.91130  Biso   1.000  H
  N14      1.0000 0.99460  0.85370  0.79350  Biso   1.000  N
  N15      1.0000 0.08020  0.90110  0.81050  Biso   1.000  N
  N16      1.0000 0.02880  0.62280  0.52200  Biso   1.000  N
  H28      1.0000 0.05090  0.58840  0.47780  Biso   1.000  H
  N17      1.0000 0.01540  0.71040  0.64940  Biso   1.000  N
  N18      1.0000 0.93490  0.69590  0.60260  Biso   1.000  N
  C53      1.0000 0.53330  0.01330  0.16500  Biso   1.000  C
  C54      1.0000 0.55170  0.02670  0.25770  Biso   1.000  C
  C55      1.0000 0.55750  0.96100  0.28770  Biso   1.000  C
  H29      1.0000 0.54790  0.90260  0.24960  Biso   1.000  H
  C56      1.0000 0.57710  0.98020  0.37250  Biso   1.000  C
  H30      1.0000 0.58100  0.93540  0.39390  Biso   1.000  H
  C57      1.0000 0.59130  0.06490  0.42640  Biso   1.000  C
  C58      1.0000 0.58380  0.13030  0.39900  Biso   1.000  C
  H31      1.0000 0.59160  0.18810  0.43820  Biso   1.000  H
  C59      1.0000 0.56460  0.11250  0.31310  Biso   1.000  C
  H32      1.0000 0.56040  0.15790  0.29250  Biso   1.000  H
  C60      1.0000 0.61150  0.08660  0.52190  Biso   1.000  C
  C61      1.0000 0.62200  0.16390  0.65270  Biso   1.000  C
  C62      1.0000 0.61770  0.23790  0.73150  Biso   1.000  C
  C63      1.0000 0.62140  0.23060  0.81060  Biso   1.000  C
  H33      1.0000 0.63140  0.17820  0.81620  Biso   1.000  H
  C64      1.0000 0.61010  0.30110  0.88240  Biso   1.000  C
  C65      1.0000 0.60570  0.29120  0.96650  Biso   1.000  C
  C66      1.0000 0.59220  0.37660  0.87450  Biso   1.000  C
  H34      1.0000 0.58090  0.42280  0.92280  Biso   1.000  H
  C67      1.0000 0.59080  0.38400  0.79450  Biso   1.000  C
  C68      1.0000 0.57220  0.46550  0.78660  Biso   1.000  C
  C69      1.0000 0.60400  0.31530  0.72330  Biso   1.000  C
  H35      1.0000 0.60390  0.32090  0.66930  Biso   1.000  H
  C70      1.0000 0.65240  0.68560  0.73780  Biso   1.000  C
  C71      1.0000 0.70130  0.77510  0.78650  Biso   1.000  C
  C72      1.0000 0.79390  0.79540  0.78500  Biso   1.000  C
  H36      1.0000 0.82590  0.75290  0.75170  Biso   1.000  H
  C73      1.0000 0.84010  0.87930  0.83300  Biso   1.000  C
  C74      1.0000 0.79300  0.93980  0.88160  Biso   1.000  C
  H37      1.0000 0.82420  0.99610  0.91500  Biso   1.000  H
  C75      1.0000 0.69970  0.91950  0.88250  Biso   1.000  C
  C76      1.0000 0.65270  0.98570  0.93930  Biso   1.000  C
  C77      1.0000 0.65430  0.83750  0.83430  Biso   1.000  C
  H38      1.0000 0.59070  0.82380  0.83380  Biso   1.000  H
  C78      1.0000 0.93720  0.90430  0.83430  Biso   1.000  C
  C79      1.0000 0.07050  0.97820  0.86260  Biso   1.000  C
  C80      1.0000 0.14640  0.04960  0.89890  Biso   1.000  C
  C81      1.0000 0.23360  0.03440  0.88000  Biso   1.000  C
  H39      1.0000 0.24200  0.98060  0.84000  Biso   1.000  H
  C82      1.0000 0.30740  0.09870  0.92020  Biso   1.000  C
  H40      1.0000 0.36640  0.08870  0.90710  Biso   1.000  H
  C83      1.0000 0.29610  0.17730  0.97920  Biso   1.000  C
  C84      1.0000 0.37460  0.24210  0.03010  Biso   1.000  C
  C85      1.0000 0.20640  0.19330  0.99270  Biso   1.000  C
  H41      1.0000 0.19700  0.24880  0.02820  Biso   1.000  H
  C86      1.0000 0.13470  0.12950  0.95480  Biso   1.000  C
  H42      1.0000 0.07560  0.13970  0.96690  Biso   1.000  H
  C87      1.0000 0.33600  0.75710  0.81760  Biso   1.000  C
  C88      1.0000 0.29440  0.71130  0.72950  Biso   1.000  C
  C89      1.0000 0.34450  0.66400  0.66520  Biso   1.000  C
  H43      1.0000 0.40610  0.66390  0.67790  Biso   1.000  H
  C90      1.0000 0.30390  0.61800  0.58400  Biso   1.000  C
  C91      1.0000 0.35250  0.56070  0.51820  Biso   1.000  C
  C92      1.0000 0.21500  0.61940  0.56480  Biso   1.000  C
  H44      1.0000 0.18770  0.58700  0.50900  Biso   1.000  H
  C93      1.0000 0.16520  0.66600  0.62410  Biso   1.000  C
  C94      1.0000 0.20390  0.71270  0.70700  Biso   1.000  C
  H45      1.0000 0.16930  0.74550  0.74820  Biso   1.000  H
  C95      1.0000 0.07200  0.66810  0.59980  Biso   1.000  C
  C96      1.0000 0.94510  0.64110  0.52590  Biso   1.000  C
  C97      1.0000 0.87530  0.60790  0.45600  Biso   1.000  C
  C98      1.0000 0.89040  0.55540  0.37540  Biso   1.000  C
  H46      1.0000 0.94950  0.54450  0.36400  Biso   1.000  H
  C99      1.0000 0.82100  0.51860  0.31130  Biso   1.000  C
  H47      1.0000 0.83300  0.48500  0.25580  Biso   1.000  H
  C100     1.0000 0.73260  0.53100  0.32890  Biso   1.000  C
  C101     1.0000 0.65490  0.48020  0.26630  Biso   1.000  C
  C102     1.0000 0.71740  0.58550  0.41020  Biso   1.000  C
  H48      1.0000 0.65840  0.59640  0.42180  Biso   1.000  H
  C103     1.0000 0.78710  0.62290  0.47280  Biso   1.000  C
  H49      1.0000 0.77590  0.65890  0.52770  Biso   1.000  H
  C104     1.0000 0.45260  0.32700  0.48800  Biso   1.000  C
  H50      1.0000 0.44670  0.26700  0.47850  Biso   1.000  H
