data_image0
_cell_length_a       9.6773
_cell_length_b       13.8676
_cell_length_c       15.4482
_cell_angle_alpha    90
_cell_angle_beta     90.039
_cell_angle_gamma    90

_symmetry_space_group_name_H-M    "P 1"
_symmetry_int_tables_number       1

loop_
  _symmetry_equiv_pos_as_xyz
  'x, y, z'

loop_
  _atom_site_label
  _atom_site_occupancy
  _atom_site_fract_x
  _atom_site_fract_y
  _atom_site_fract_z
  _atom_site_thermal_displace_type
  _atom_site_B_iso_or_equiv
  _atom_site_type_symbol
  Zn1      1.0000 0.55746  0.39763  0.58003  Biso   1.000  Zn
  Zn2      1.0000 0.46736  0.10724  0.58594  Biso   1.000  Zn
  Zn3      1.0000 0.49578  0.24586  0.22530  Biso   1.000  Zn
  P1       1.0000 0.75136  0.21772  0.59656  Biso   1.000  P
  H1       1.0000 0.76310  0.22930  0.51210  Biso   1.000  H
  P2       1.0000 0.27474  0.28910  0.62287  Biso   1.000  P
  H2       1.0000 0.21360  0.27420  0.54760  Biso   1.000  H
  P3       1.0000 0.51388  0.11281  0.38056  Biso   1.000  P
  H3       1.0000 0.61390  0.17650  0.39100  Biso   1.000  H
  P4       1.0000 0.46666  0.38585  0.38358  Biso   1.000  P
  H4       1.0000 0.37890  0.31650  0.40370  Biso   1.000  H
  O1       1.0000 0.66250  0.12842  0.61099  Biso   1.000  O
  O2       1.0000 0.68680  0.30909  0.63207  Biso   1.000  O
  O3       1.0000 0.89500  0.20028  0.63148  Biso   1.000  O
  O4       1.0000 0.36640  0.37758  0.61271  Biso   1.000  O
  O5       1.0000 0.34970  0.19689  0.64662  Biso   1.000  O
  O6       1.0000 0.16240  0.31528  0.68755  Biso   1.000  O
  O7       1.0000 0.43060  0.11182  0.46332  Biso   1.000  O
  O8       1.0000 0.58220  0.01593  0.36111  Biso   1.000  O
  O9       1.0000 0.42420  0.14803  0.30529  Biso   1.000  O
  O10      1.0000 0.57190  0.39228  0.45553  Biso   1.000  O
  O11      1.0000 0.38370  0.47892  0.37212  Biso   1.000  O
  O12      1.0000 0.53720  0.35762  0.29895  Biso   1.000  O
  Zn4      1.0000 0.94254  0.89763  0.91997  Biso   1.000  Zn
  Zn5      1.0000 0.03264  0.60724  0.91406  Biso   1.000  Zn
  Zn6      1.0000 0.00422  0.74586  0.27470  Biso   1.000  Zn
  P5       1.0000 0.74864  0.71772  0.90344  Biso   1.000  P
  H5       1.0000 0.73690  0.72930  0.98790  Biso   1.000  H
  P6       1.0000 0.22526  0.78910  0.87713  Biso   1.000  P
  H6       1.0000 0.28640  0.77420  0.95240  Biso   1.000  H
  P7       1.0000 0.98612  0.61281  0.11944  Biso   1.000  P
  H7       1.0000 0.88610  0.67650  0.10900  Biso   1.000  H
  P8       1.0000 0.03334  0.88585  0.11642  Biso   1.000  P
  H8       1.0000 0.12110  0.81650  0.09630  Biso   1.000  H
  O13      1.0000 0.83750  0.62842  0.88901  Biso   1.000  O
  O14      1.0000 0.81320  0.80909  0.86793  Biso   1.000  O
  O15      1.0000 0.60500  0.70028  0.86852  Biso   1.000  O
  O16      1.0000 0.13360  0.87758  0.88729  Biso   1.000  O
  O17      1.0000 0.15030  0.69689  0.85338  Biso   1.000  O
  O18      1.0000 0.33760  0.81528  0.81245  Biso   1.000  O
  O19      1.0000 0.06940  0.61182  0.03668  Biso   1.000  O
  O20      1.0000 0.91780  0.51593  0.13889  Biso   1.000  O
  O21      1.0000 0.07580  0.64803  0.19471  Biso   1.000  O
  O22      1.0000 0.92810  0.89228  0.04447  Biso   1.000  O
  O23      1.0000 0.11630  0.97892  0.12788  Biso   1.000  O
  O24      1.0000 0.96280  0.85762  0.20105  Biso   1.000  O
  Zn7      1.0000 0.44254  0.60237  0.41997  Biso   1.000  Zn
  Zn8      1.0000 0.53264  0.89276  0.41406  Biso   1.000  Zn
  Zn9      1.0000 0.50422  0.75414  0.77470  Biso   1.000  Zn
  P9       1.0000 0.24864  0.78228  0.40344  Biso   1.000  P
  H9       1.0000 0.23690  0.77070  0.48790  Biso   1.000  H
  P10      1.0000 0.72526  0.71090  0.37713  Biso   1.000  P
  H10      1.0000 0.78640  0.72580  0.45240  Biso   1.000  H
  P11      1.0000 0.48612  0.88719  0.61944  Biso   1.000  P
  H11      1.0000 0.38610  0.82350  0.60900  Biso   1.000  H
  P12      1.0000 0.53334  0.61415  0.61642  Biso   1.000  P
  H12      1.0000 0.62110  0.68350  0.59630  Biso   1.000  H
  O25      1.0000 0.33750  0.87158  0.38901  Biso   1.000  O
  O26      1.0000 0.31320  0.69091  0.36793  Biso   1.000  O
  O27      1.0000 0.10500  0.79972  0.36852  Biso   1.000  O
  O28      1.0000 0.63360  0.62242  0.38729  Biso   1.000  O
  O29      1.0000 0.65030  0.80311  0.35338  Biso   1.000  O
  O30      1.0000 0.83760  0.68472  0.31245  Biso   1.000  O
  O31      1.0000 0.56940  0.88818  0.53668  Biso   1.000  O
  O32      1.0000 0.41780  0.98407  0.63889  Biso   1.000  O
  O33      1.0000 0.57580  0.85197  0.69471  Biso   1.000  O
  O34      1.0000 0.42810  0.60772  0.54447  Biso   1.000  O
  O35      1.0000 0.61630  0.52108  0.62788  Biso   1.000  O
  O36      1.0000 0.46280  0.64238  0.70105  Biso   1.000  O
  Zn10     1.0000 0.05746  0.10237  0.08003  Biso   1.000  Zn
  Zn11     1.0000 0.96736  0.39276  0.08594  Biso   1.000  Zn
  Zn12     1.0000 0.99578  0.25414  0.72530  Biso   1.000  Zn
  P13      1.0000 0.25136  0.28228  0.09656  Biso   1.000  P
  H13      1.0000 0.26310  0.27070  0.01210  Biso   1.000  H
  P14      1.0000 0.77474  0.21090  0.12287  Biso   1.000  P
  H14      1.0000 0.71360  0.22580  0.04760  Biso   1.000  H
  P15      1.0000 0.01388  0.38719  0.88056  Biso   1.000  P
  H15      1.0000 0.11390  0.32350  0.89100  Biso   1.000  H
  P16      1.0000 0.96666  0.11415  0.88358  Biso   1.000  P
  H16      1.0000 0.87890  0.18350  0.90370  Biso   1.000  H
  O37      1.0000 0.16250  0.37158  0.11099  Biso   1.000  O
  O38      1.0000 0.18680  0.19091  0.13207  Biso   1.000  O
  O39      1.0000 0.39500  0.29972  0.13148  Biso   1.000  O
  O40      1.0000 0.86640  0.12242  0.11271  Biso   1.000  O
  O41      1.0000 0.84970  0.30311  0.14662  Biso   1.000  O
  O42      1.0000 0.66240  0.18472  0.18755  Biso   1.000  O
  O43      1.0000 0.93060  0.38818  0.96332  Biso   1.000  O
  O44      1.0000 0.08220  0.48407  0.86111  Biso   1.000  O
  O45      1.0000 0.92420  0.35197  0.80529  Biso   1.000  O
  O46      1.0000 0.07190  0.10772  0.95553  Biso   1.000  O
  O47      1.0000 0.88370  0.02108  0.87212  Biso   1.000  O
  O48      1.0000 0.03720  0.14238  0.79895  Biso   1.000  O
