data_image0
_cell_length_a       29.4769
_cell_length_b       7.3735
_cell_length_c       17.4631
_cell_angle_alpha    90
_cell_angle_beta     93.652
_cell_angle_gamma    90

_symmetry_space_group_name_H-M    "P 1"
_symmetry_int_tables_number       1

loop_
  _symmetry_equiv_pos_as_xyz
  'x, y, z'

loop_
  _atom_site_label
  _atom_site_occupancy
  _atom_site_fract_x
  _atom_site_fract_y
  _atom_site_fract_z
  _atom_site_thermal_displace_type
  _atom_site_B_iso_or_equiv
  _atom_site_type_symbol
  Co1      1.0000 0.98335  0.12129  0.15231  Biso   1.000  Co
  O1       1.0000 0.26935  0.98420  0.03634  Biso   1.000  O
  N1       1.0000 0.05184  0.14300  0.13784  Biso   1.000  N
  N2       1.0000 0.12981  0.25010  0.14970  Biso   1.000  N
  N3       1.0000 0.19341  0.24580  0.06820  Biso   1.000  N
  N4       1.0000 0.96548  0.33110  0.08020  Biso   1.000  N
  N5       1.0000 0.94006  0.62320  0.02630  Biso   1.000  N
  N6       1.0000 0.97178  0.91140  0.07560  Biso   1.000  N
  N7       1.0000 0.41706  0.59410  0.18513  Biso   1.000  N
  N8       1.0000 0.33521  0.53960  0.18700  Biso   1.000  N
  N9       1.0000 0.28901  0.36570  0.09140  Biso   1.000  N
  C1       1.0000 0.08890  0.18990  0.13820  Biso   1.000  C
  C2       1.0000 0.16185  0.24090  0.10270  Biso   1.000  C
  C3       1.0000 0.95537  0.47170  0.05750  Biso   1.000  C
  C4       1.0000 0.95786  0.77480  0.05400  Biso   1.000  C
  C5       1.0000 0.37864  0.56340  0.18360  Biso   1.000  C
  C6       1.0000 0.31227  0.44510  0.13350  Biso   1.000  C
  H1       1.0000 0.02010  0.41130  0.23690  Biso   1.000  H
  H2       1.0000 0.02080  0.85940  0.23790  Biso   1.000  H
  H3       1.0000 0.24860  0.93120  0.06650  Biso   1.000  H
  H4       1.0000 0.27370  0.92040  0.98930  Biso   1.000  H
  Co2      1.0000 0.48335  0.62129  0.15231  Biso   1.000  Co
  O2       1.0000 0.76935  0.48420  0.03634  Biso   1.000  O
  N10      1.0000 0.55184  0.64300  0.13784  Biso   1.000  N
  N11      1.0000 0.62981  0.75010  0.14970  Biso   1.000  N
  N12      1.0000 0.69341  0.74580  0.06820  Biso   1.000  N
  N13      1.0000 0.46548  0.83110  0.08020  Biso   1.000  N
  N14      1.0000 0.44006  0.12320  0.02630  Biso   1.000  N
  N15      1.0000 0.47178  0.41140  0.07560  Biso   1.000  N
  N16      1.0000 0.91706  0.09410  0.18513  Biso   1.000  N
  N17      1.0000 0.83521  0.03960  0.18700  Biso   1.000  N
  N18      1.0000 0.78901  0.86570  0.09140  Biso   1.000  N
  C7       1.0000 0.58890  0.68990  0.13820  Biso   1.000  C
  C8       1.0000 0.66185  0.74090  0.10270  Biso   1.000  C
  C9       1.0000 0.45537  0.97170  0.05750  Biso   1.000  C
  C10      1.0000 0.45786  0.27480  0.05400  Biso   1.000  C
  C11      1.0000 0.87864  0.06340  0.18360  Biso   1.000  C
  C12      1.0000 0.81227  0.94510  0.13350  Biso   1.000  C
  H5       1.0000 0.52010  0.91130  0.23690  Biso   1.000  H
  H6       1.0000 0.52080  0.35940  0.23790  Biso   1.000  H
  H7       1.0000 0.74860  0.43120  0.06650  Biso   1.000  H
  H8       1.0000 0.77370  0.42040  0.98930  Biso   1.000  H
  Co3      1.0000 0.01665  0.12129  0.34769  Biso   1.000  Co
  O3       1.0000 0.73065  0.98420  0.46366  Biso   1.000  O
  N19      1.0000 0.94816  0.14300  0.36216  Biso   1.000  N
  N20      1.0000 0.87019  0.25010  0.35030  Biso   1.000  N
  N21      1.0000 0.80659  0.24580  0.43180  Biso   1.000  N
  N22      1.0000 0.03452  0.33110  0.41980  Biso   1.000  N
  N23      1.0000 0.05994  0.62320  0.47370  Biso   1.000  N
  N24      1.0000 0.02822  0.91140  0.42440  Biso   1.000  N
  N25      1.0000 0.58294  0.59410  0.31487  Biso   1.000  N
  N26      1.0000 0.66479  0.53960  0.31300  Biso   1.000  N
  N27      1.0000 0.71099  0.36570  0.40860  Biso   1.000  N
  C13      1.0000 0.91110  0.18990  0.36180  Biso   1.000  C
  C14      1.0000 0.83815  0.24090  0.39730  Biso   1.000  C
  C15      1.0000 0.04463  0.47170  0.44250  Biso   1.000  C
  C16      1.0000 0.04214  0.77480  0.44600  Biso   1.000  C
  C17      1.0000 0.62136  0.56340  0.31640  Biso   1.000  C
  C18      1.0000 0.68773  0.44510  0.36650  Biso   1.000  C
  H9       1.0000 0.97990  0.41130  0.26310  Biso   1.000  H
  H10      1.0000 0.97920  0.85940  0.26210  Biso   1.000  H
  H11      1.0000 0.75140  0.93120  0.43350  Biso   1.000  H
  H12      1.0000 0.72630  0.92040  0.51070  Biso   1.000  H
  Co4      1.0000 0.51665  0.62129  0.34769  Biso   1.000  Co
  O4       1.0000 0.23065  0.48420  0.46366  Biso   1.000  O
  N28      1.0000 0.44816  0.64300  0.36216  Biso   1.000  N
  N29      1.0000 0.37019  0.75010  0.35030  Biso   1.000  N
  N30      1.0000 0.30659  0.74580  0.43180  Biso   1.000  N
  N31      1.0000 0.53452  0.83110  0.41980  Biso   1.000  N
  N32      1.0000 0.55994  0.12320  0.47370  Biso   1.000  N
  N33      1.0000 0.52822  0.41140  0.42440  Biso   1.000  N
  N34      1.0000 0.08294  0.09410  0.31487  Biso   1.000  N
  N35      1.0000 0.16479  0.03960  0.31300  Biso   1.000  N
  N36      1.0000 0.21099  0.86570  0.40860  Biso   1.000  N
  C19      1.0000 0.41110  0.68990  0.36180  Biso   1.000  C
  C20      1.0000 0.33815  0.74090  0.39730  Biso   1.000  C
  C21      1.0000 0.54463  0.97170  0.44250  Biso   1.000  C
  C22      1.0000 0.54214  0.27480  0.44600  Biso   1.000  C
  C23      1.0000 0.12136  0.06340  0.31640  Biso   1.000  C
  C24      1.0000 0.18773  0.94510  0.36650  Biso   1.000  C
  H13      1.0000 0.47990  0.91130  0.26310  Biso   1.000  H
  H14      1.0000 0.47920  0.35940  0.26210  Biso   1.000  H
  H15      1.0000 0.25140  0.43120  0.43350  Biso   1.000  H
  H16      1.0000 0.22630  0.42040  0.51070  Biso   1.000  H
  Co5      1.0000 0.01665  0.87871  0.84769  Biso   1.000  Co
  O5       1.0000 0.73065  0.01580  0.96366  Biso   1.000  O
  N37      1.0000 0.94816  0.85700  0.86216  Biso   1.000  N
  N38      1.0000 0.87019  0.74990  0.85030  Biso   1.000  N
  N39      1.0000 0.80659  0.75420  0.93180  Biso   1.000  N
  N40      1.0000 0.03452  0.66890  0.91980  Biso   1.000  N
  N41      1.0000 0.05994  0.37680  0.97370  Biso   1.000  N
  N42      1.0000 0.02822  0.08860  0.92440  Biso   1.000  N
  N43      1.0000 0.58294  0.40590  0.81487  Biso   1.000  N
  N44      1.0000 0.66479  0.46040  0.81300  Biso   1.000  N
  N45      1.0000 0.71099  0.63430  0.90860  Biso   1.000  N
  C25      1.0000 0.91110  0.81010  0.86180  Biso   1.000  C
  C26      1.0000 0.83815  0.75910  0.89730  Biso   1.000  C
  C27      1.0000 0.04463  0.52830  0.94250  Biso   1.000  C
  C28      1.0000 0.04214  0.22520  0.94600  Biso   1.000  C
  C29      1.0000 0.62136  0.43660  0.81640  Biso   1.000  C
  C30      1.0000 0.68773  0.55490  0.86650  Biso   1.000  C
  H17      1.0000 0.97990  0.58870  0.76310  Biso   1.000  H
  H18      1.0000 0.97920  0.14060  0.76210  Biso   1.000  H
  H19      1.0000 0.75140  0.06880  0.93350  Biso   1.000  H
  H20      1.0000 0.72630  0.07960  0.01070  Biso   1.000  H
  Co6      1.0000 0.51665  0.37871  0.84769  Biso   1.000  Co
  O6       1.0000 0.23065  0.51580  0.96366  Biso   1.000  O
  N46      1.0000 0.44816  0.35700  0.86216  Biso   1.000  N
  N47      1.0000 0.37019  0.24990  0.85030  Biso   1.000  N
  N48      1.0000 0.30659  0.25420  0.93180  Biso   1.000  N
  N49      1.0000 0.53452  0.16890  0.91980  Biso   1.000  N
  N50      1.0000 0.55994  0.87680  0.97370  Biso   1.000  N
  N51      1.0000 0.52822  0.58860  0.92440  Biso   1.000  N
  N52      1.0000 0.08294  0.90590  0.81487  Biso   1.000  N
  N53      1.0000 0.16479  0.96040  0.81300  Biso   1.000  N
  N54      1.0000 0.21099  0.13430  0.90860  Biso   1.000  N
  C31      1.0000 0.41110  0.31010  0.86180  Biso   1.000  C
  C32      1.0000 0.33815  0.25910  0.89730  Biso   1.000  C
  C33      1.0000 0.54463  0.02830  0.94250  Biso   1.000  C
  C34      1.0000 0.54214  0.72520  0.94600  Biso   1.000  C
  C35      1.0000 0.12136  0.93660  0.81640  Biso   1.000  C
  C36      1.0000 0.18773  0.05490  0.86650  Biso   1.000  C
  H21      1.0000 0.47990  0.08870  0.76310  Biso   1.000  H
  H22      1.0000 0.47920  0.64060  0.76210  Biso   1.000  H
  H23      1.0000 0.25140  0.56880  0.93350  Biso   1.000  H
  H24      1.0000 0.22630  0.57960  0.01070  Biso   1.000  H
  Co7      1.0000 0.98335  0.87871  0.65231  Biso   1.000  Co
  O7       1.0000 0.26935  0.01580  0.53634  Biso   1.000  O
  N55      1.0000 0.05184  0.85700  0.63784  Biso   1.000  N
  N56      1.0000 0.12981  0.74990  0.64970  Biso   1.000  N
  N57      1.0000 0.19341  0.75420  0.56820  Biso   1.000  N
  N58      1.0000 0.96548  0.66890  0.58020  Biso   1.000  N
  N59      1.0000 0.94006  0.37680  0.52630  Biso   1.000  N
  N60      1.0000 0.97178  0.08860  0.57560  Biso   1.000  N
  N61      1.0000 0.41706  0.40590  0.68513  Biso   1.000  N
  N62      1.0000 0.33521  0.46040  0.68700  Biso   1.000  N
  N63      1.0000 0.28901  0.63430  0.59140  Biso   1.000  N
  C37      1.0000 0.08890  0.81010  0.63820  Biso   1.000  C
  C38      1.0000 0.16185  0.75910  0.60270  Biso   1.000  C
  C39      1.0000 0.95537  0.52830  0.55750  Biso   1.000  C
  C40      1.0000 0.95786  0.22520  0.55400  Biso   1.000  C
  C41      1.0000 0.37864  0.43660  0.68360  Biso   1.000  C
  C42      1.0000 0.31227  0.55490  0.63350  Biso   1.000  C
  H25      1.0000 0.02010  0.58870  0.73690  Biso   1.000  H
  H26      1.0000 0.02080  0.14060  0.73790  Biso   1.000  H
  H27      1.0000 0.24860  0.06880  0.56650  Biso   1.000  H
  H28      1.0000 0.27370  0.07960  0.48930  Biso   1.000  H
  Co8      1.0000 0.48335  0.37871  0.65231  Biso   1.000  Co
  O8       1.0000 0.76935  0.51580  0.53634  Biso   1.000  O
  N64      1.0000 0.55184  0.35700  0.63784  Biso   1.000  N
  N65      1.0000 0.62981  0.24990  0.64970  Biso   1.000  N
  N66      1.0000 0.69341  0.25420  0.56820  Biso   1.000  N
  N67      1.0000 0.46548  0.16890  0.58020  Biso   1.000  N
  N68      1.0000 0.44006  0.87680  0.52630  Biso   1.000  N
  N69      1.0000 0.47178  0.58860  0.57560  Biso   1.000  N
  N70      1.0000 0.91706  0.90590  0.68513  Biso   1.000  N
  N71      1.0000 0.83521  0.96040  0.68700  Biso   1.000  N
  N72      1.0000 0.78901  0.13430  0.59140  Biso   1.000  N
  C43      1.0000 0.58890  0.31010  0.63820  Biso   1.000  C
  C44      1.0000 0.66185  0.25910  0.60270  Biso   1.000  C
  C45      1.0000 0.45537  0.02830  0.55750  Biso   1.000  C
  C46      1.0000 0.45786  0.72520  0.55400  Biso   1.000  C
  C47      1.0000 0.87864  0.93660  0.68360  Biso   1.000  C
  C48      1.0000 0.81227  0.05490  0.63350  Biso   1.000  C
  H29      1.0000 0.52010  0.08870  0.73690  Biso   1.000  H
  H30      1.0000 0.52080  0.64060  0.73790  Biso   1.000  H
  H31      1.0000 0.74860  0.56880  0.56650  Biso   1.000  H
  H32      1.0000 0.77370  0.57960  0.48930  Biso   1.000  H
  Co9      1.0000 0.25000  0.25000  0.00000  Biso   1.000  Co
  Co10     1.0000 0.75000  0.25000  0.50000  Biso   1.000  Co
  Co11     1.0000 0.75000  0.75000  0.00000  Biso   1.000  Co
  Co12     1.0000 0.25000  0.75000  0.50000  Biso   1.000  Co
  O9       1.0000 0.00000  0.32700  0.25000  Biso   1.000  O
  O10      1.0000 0.00000  0.93170  0.25000  Biso   1.000  O
  O11      1.0000 0.50000  0.82700  0.25000  Biso   1.000  O
  O12      1.0000 0.50000  0.43170  0.25000  Biso   1.000  O
  O13      1.0000 0.00000  0.67300  0.75000  Biso   1.000  O
  O14      1.0000 0.00000  0.06830  0.75000  Biso   1.000  O
  O15      1.0000 0.50000  0.17300  0.75000  Biso   1.000  O
  O16      1.0000 0.50000  0.56830  0.75000  Biso   1.000  O
