data_image0
_cell_length_a       6.63997
_cell_length_b       13.6261
_cell_length_c       24.4675
_cell_angle_alpha    75.8841
_cell_angle_beta     82.2015
_cell_angle_gamma    75.898

_symmetry_space_group_name_H-M    P 1
_symmetry_int_tables_number       1

loop_
  _symmetry_equiv_pos_as_xyz
  'x, y, z'

loop_
  _atom_site_label
  _atom_site_occupancy
  _atom_site_fract_x
  _atom_site_fract_y
  _atom_site_fract_z
  _atom_site_thermal_displace_type
  _atom_site_B_iso_or_equiv
  _atom_site_type_symbol
  Zn1      1.0000 0.93847  0.90248  0.96912  Biso   1.000  Zn
  Zn2      1.0000 0.81007  0.59752  0.53088  Biso   1.000  Zn
  Zn3      1.0000 0.06153  0.09752  0.03088  Biso   1.000  Zn
  Zn4      1.0000 0.18993  0.40248  0.46912  Biso   1.000  Zn
  H1       1.0000 0.44010  0.94620  0.83100  Biso   1.000  H
  H2       1.0000 0.61960  0.03170  0.75330  Biso   1.000  H
  H3       1.0000 0.07260  0.19430  0.69070  Biso   1.000  H
  H4       1.0000 0.89340  0.10460  0.76720  Biso   1.000  H
  H5       1.0000 0.74860  0.07530  0.66350  Biso   1.000  H
  H6       1.0000 0.93480  0.17900  0.59620  Biso   1.000  H
  H7       1.0000 0.43370  0.41890  0.58650  Biso   1.000  H
  H8       1.0000 0.24750  0.31560  0.65400  Biso   1.000  H
  H9       1.0000 0.54400  0.86410  0.92430  Biso   1.000  H
  H10      1.0000 0.42730  0.71550  0.92390  Biso   1.000  H
  H11      1.0000 0.86960  0.54080  0.02780  Biso   1.000  H
  H12      1.0000 0.98640  0.68920  0.02820  Biso   1.000  H
  H13      1.0000 0.68310  0.46320  0.96820  Biso   1.000  H
  H14      1.0000 0.47550  0.53570  0.94190  Biso   1.000  H
  H15      1.0000 0.21730  0.55380  0.66900  Biso   1.000  H
  H16      1.0000 0.40460  0.46830  0.74670  Biso   1.000  H
  H17      1.0000 0.95760  0.30570  0.80930  Biso   1.000  H
  H18      1.0000 0.76520  0.39540  0.73280  Biso   1.000  H
  H19      1.0000 0.48740  0.42470  0.83650  Biso   1.000  H
  H20      1.0000 0.71000  0.32100  0.90380  Biso   1.000  H
  H21      1.0000 0.43910  0.08110  0.91350  Biso   1.000  H
  H22      1.0000 0.21710  0.18440  0.84600  Biso   1.000  H
  H23      1.0000 0.33240  0.63590  0.57570  Biso   1.000  H
  H24      1.0000 0.06670  0.78450  0.57610  Biso   1.000  H
  H25      1.0000 0.43820  0.95920  0.47220  Biso   1.000  H
  H26      1.0000 0.70380  0.81080  0.47180  Biso   1.000  H
  H27      1.0000 0.11450  0.03680  0.53180  Biso   1.000  H
  H28      1.0000 0.95310  0.96430  0.55810  Biso   1.000  H
  H29      1.0000 0.55990  0.05380  0.16900  Biso   1.000  H
  H30      1.0000 0.38040  0.96830  0.24670  Biso   1.000  H
  H31      1.0000 0.92740  0.80570  0.30930  Biso   1.000  H
  H32      1.0000 0.10660  0.89540  0.23280  Biso   1.000  H
  H33      1.0000 0.25140  0.92470  0.33650  Biso   1.000  H
  H34      1.0000 0.06520  0.82100  0.40380  Biso   1.000  H
  H35      1.0000 0.56630  0.58110  0.41350  Biso   1.000  H
  H36      1.0000 0.75250  0.68440  0.34600  Biso   1.000  H
  H37      1.0000 0.45600  0.13590  0.07570  Biso   1.000  H
  H38      1.0000 0.57270  0.28450  0.07610  Biso   1.000  H
  H39      1.0000 0.13040  0.45920  0.97220  Biso   1.000  H
  H40      1.0000 0.01360  0.31080  0.97180  Biso   1.000  H
  H41      1.0000 0.31690  0.53680  0.03180  Biso   1.000  H
  H42      1.0000 0.52450  0.46430  0.05810  Biso   1.000  H
  H43      1.0000 0.78270  0.44620  0.33100  Biso   1.000  H
  H44      1.0000 0.59540  0.53170  0.25330  Biso   1.000  H
  H45      1.0000 0.04240  0.69430  0.19070  Biso   1.000  H
  H46      1.0000 0.23480  0.60460  0.26720  Biso   1.000  H
  H47      1.0000 0.51260  0.57530  0.16350  Biso   1.000  H
  H48      1.0000 0.29000  0.67900  0.09620  Biso   1.000  H
  H49      1.0000 0.56090  0.91890  0.08650  Biso   1.000  H
  H50      1.0000 0.78290  0.81560  0.15400  Biso   1.000  H
  H51      1.0000 0.66760  0.36410  0.42430  Biso   1.000  H
  H52      1.0000 0.93330  0.21550  0.42390  Biso   1.000  H
  H53      1.0000 0.56180  0.04080  0.52780  Biso   1.000  H
  H54      1.0000 0.29620  0.18920  0.52820  Biso   1.000  H
  H55      1.0000 0.88550  0.96320  0.46820  Biso   1.000  H
  H56      1.0000 0.04690  0.03570  0.44190  Biso   1.000  H
  C1       1.0000 0.02900  0.96748  0.85892  Biso   1.000  C
  C2       1.0000 0.14795  0.01700  0.80730  Biso   1.000  C
  C3       1.0000 0.36484  0.99635  0.80237  Biso   1.000  C
  C4       1.0000 0.47163  0.04796  0.75638  Biso   1.000  C
  C5       1.0000 0.36526  0.12417  0.71411  Biso   1.000  C
  C6       1.0000 0.14830  0.14370  0.71910  Biso   1.000  C
  C7       1.0000 0.04129  0.09058  0.76484  Biso   1.000  C
  C8       1.0000 0.48005  0.18592  0.66738  Biso   1.000  C
  C9       1.0000 0.68479  0.14559  0.64863  Biso   1.000  C
  C10      1.0000 0.79539  0.20734  0.60848  Biso   1.000  C
  C11      1.0000 0.70525  0.31059  0.58571  Biso   1.000  C
  C12      1.0000 0.49923  0.34952  0.60262  Biso   1.000  C
  C13      1.0000 0.38853  0.28784  0.64290  Biso   1.000  C
  C14      1.0000 0.82886  0.37798  0.54510  Biso   1.000  C
  C15      1.0000 0.61010  0.79850  0.94530  Biso   1.000  C
  C16      1.0000 0.54070  0.71030  0.94510  Biso   1.000  C
  C17      1.0000 0.63740  0.61420  0.97580  Biso   1.000  C
  C18      1.0000 0.80350  0.60640  0.00680  Biso   1.000  C
  C19      1.0000 0.87290  0.69460  0.00700  Biso   1.000  C
  C20      1.0000 0.56110  0.51920  0.97440  Biso   1.000  C
  C21      1.0000 0.85540  0.53252  0.64108  Biso   1.000  C
  C22      1.0000 0.97225  0.48300  0.69270  Biso   1.000  C
  C23      1.0000 0.16356  0.50365  0.69763  Biso   1.000  C
  C24      1.0000 0.27597  0.45204  0.74362  Biso   1.000  C
  C25      1.0000 0.20354  0.37583  0.78589  Biso   1.000  C
  C26      1.0000 0.01110  0.35630  0.78090  Biso   1.000  C
  C27      1.0000 0.89671  0.40942  0.73516  Biso   1.000  C
  C28      1.0000 0.33335  0.31408  0.83262  Biso   1.000  C
  C29      1.0000 0.47901  0.35441  0.85137  Biso   1.000  C
  C30      1.0000 0.61121  0.29266  0.89152  Biso   1.000  C
  C31      1.0000 0.60155  0.18941  0.91429  Biso   1.000  C
  C32      1.0000 0.45137  0.15048  0.89738  Biso   1.000  C
  C33      1.0000 0.31927  0.21216  0.85710  Biso   1.000  C
  C34      1.0000 0.75194  0.12202  0.95490  Biso   1.000  C
  C35      1.0000 0.35390  0.70150  0.55470  Biso   1.000  C
  C36      1.0000 0.19610  0.78970  0.55490  Biso   1.000  C
  C37      1.0000 0.22740  0.88580  0.52420  Biso   1.000  C
  C38      1.0000 0.41670  0.89360  0.49320  Biso   1.000  C
  C39      1.0000 0.57450  0.80540  0.49300  Biso   1.000  C
  C40      1.0000 0.05470  0.98080  0.52560  Biso   1.000  C
  C41      1.0000 0.97100  0.03252  0.14108  Biso   1.000  C
  C42      1.0000 0.85205  0.98300  0.19270  Biso   1.000  C
  C43      1.0000 0.63516  0.00365  0.19763  Biso   1.000  C
  C44      1.0000 0.52837  0.95204  0.24362  Biso   1.000  C
  C45      1.0000 0.63474  0.87583  0.28589  Biso   1.000  C
  C46      1.0000 0.85170  0.85630  0.28090  Biso   1.000  C
  C47      1.0000 0.95871  0.90942  0.23516  Biso   1.000  C
  C48      1.0000 0.51995  0.81408  0.33262  Biso   1.000  C
  C49      1.0000 0.31521  0.85441  0.35137  Biso   1.000  C
  C50      1.0000 0.20461  0.79266  0.39152  Biso   1.000  C
  C51      1.0000 0.29475  0.68941  0.41429  Biso   1.000  C
  C52      1.0000 0.50077  0.65048  0.39738  Biso   1.000  C
  C53      1.0000 0.61147  0.71216  0.35710  Biso   1.000  C
  C54      1.0000 0.17114  0.62202  0.45490  Biso   1.000  C
  C55      1.0000 0.38990  0.20150  0.05470  Biso   1.000  C
  C56      1.0000 0.45930  0.28970  0.05490  Biso   1.000  C
  C57      1.0000 0.36260  0.38580  0.02420  Biso   1.000  C
  C58      1.0000 0.19650  0.39360  0.99320  Biso   1.000  C
  C59      1.0000 0.12710  0.30540  0.99300  Biso   1.000  C
  C60      1.0000 0.43890  0.48080  0.02560  Biso   1.000  C
  C61      1.0000 0.14460  0.46748  0.35892  Biso   1.000  C
  C62      1.0000 0.02775  0.51700  0.30730  Biso   1.000  C
  C63      1.0000 0.83644  0.49635  0.30237  Biso   1.000  C
  C64      1.0000 0.72403  0.54796  0.25638  Biso   1.000  C
  C65      1.0000 0.79646  0.62417  0.21411  Biso   1.000  C
  C66      1.0000 0.98890  0.64370  0.21910  Biso   1.000  C
  C67      1.0000 0.10329  0.59058  0.26484  Biso   1.000  C
  C68      1.0000 0.66665  0.68592  0.16738  Biso   1.000  C
  C69      1.0000 0.52099  0.64559  0.14863  Biso   1.000  C
  C70      1.0000 0.38879  0.70734  0.10848  Biso   1.000  C
  C71      1.0000 0.39845  0.81059  0.08571  Biso   1.000  C
  C72      1.0000 0.54863  0.84952  0.10262  Biso   1.000  C
  C73      1.0000 0.68073  0.78784  0.14290  Biso   1.000  C
  C74      1.0000 0.24806  0.87798  0.04510  Biso   1.000  C
  C75      1.0000 0.64610  0.29850  0.44530  Biso   1.000  C
  C76      1.0000 0.80390  0.21030  0.44510  Biso   1.000  C
  C77      1.0000 0.77260  0.11420  0.47580  Biso   1.000  C
  C78      1.0000 0.58330  0.10640  0.50680  Biso   1.000  C
  C79      1.0000 0.42550  0.19460  0.50700  Biso   1.000  C
  C80      1.0000 0.94530  0.01920  0.47440  Biso   1.000  C
  N1       1.0000 0.77620  0.79070  0.97630  Biso   1.000  N
  N2       1.0000 0.54320  0.70930  0.52370  Biso   1.000  N
  N3       1.0000 0.22380  0.20930  0.02370  Biso   1.000  N
  N4       1.0000 0.45680  0.29070  0.47630  Biso   1.000  N
  O1       1.0000 0.13226  0.92939  0.90329  Biso   1.000  O
  O2       1.0000 0.84557  0.96553  0.85753  Biso   1.000  O
  O3       1.0000 0.74027  0.47022  0.52404  Biso   1.000  O
  O4       1.0000 0.01878  0.33848  0.53376  Biso   1.000  O
  O5       1.0000 0.96494  0.57061  0.59671  Biso   1.000  O
  O6       1.0000 0.66863  0.53447  0.64247  Biso   1.000  O
  O7       1.0000 0.73453  0.02978  0.97596  Biso   1.000  O
  O8       1.0000 0.89102  0.16152  0.96624  Biso   1.000  O
  O9       1.0000 0.86774  0.07061  0.09671  Biso   1.000  O
  O10      1.0000 0.15443  0.03447  0.14247  Biso   1.000  O
  O11      1.0000 0.25973  0.52978  0.47596  Biso   1.000  O
  O12      1.0000 0.98122  0.66152  0.46624  Biso   1.000  O
  O13      1.0000 0.03506  0.42939  0.40329  Biso   1.000  O
  O14      1.0000 0.33137  0.46553  0.35753  Biso   1.000  O
  O15      1.0000 0.26547  0.97022  0.02404  Biso   1.000  O
  O16      1.0000 0.10898  0.83848  0.03376  Biso   1.000  O
