data_image0
_cell_length_a       15.9453
_cell_length_b       17.4202
_cell_length_c       11.0792
_cell_angle_alpha    90
_cell_angle_beta     123.926
_cell_angle_gamma    90

_symmetry_space_group_name_H-M    "P 1"
_symmetry_int_tables_number       1

loop_
  _symmetry_equiv_pos_as_xyz
  'x, y, z'

loop_
  _atom_site_label
  _atom_site_occupancy
  _atom_site_fract_x
  _atom_site_fract_y
  _atom_site_fract_z
  _atom_site_thermal_displace_type
  _atom_site_B_iso_or_equiv
  _atom_site_type_symbol
  O1       1.0000 0.25860  0.00850  0.14650  Biso   1.000  O
  O2       1.0000 0.28760  0.04561  0.90700  Biso   1.000  O
  O3       1.0000 0.26610  0.17990  0.07250  Biso   1.000  O
  C1       1.0000 0.18890  0.02790  0.18590  Biso   1.000  C
  C2       1.0000 0.30330  0.93430  0.20520  Biso   1.000  C
  C3       1.0000 0.24290  0.97150  0.84840  Biso   1.000  C
  C4       1.0000 0.35700  0.06490  0.86740  Biso   1.000  C
  C5       1.0000 0.32070  0.24770  0.15110  Biso   1.000  C
  C6       1.0000 0.16850  0.19950  0.94730  Biso   1.000  C
  Li1      1.0000 0.32890  0.07990  0.09950  Biso   1.000  Li
  H1       1.0000 0.15910  0.07900  0.14640  Biso   1.000  H
  H2       1.0000 0.13330  0.98980  0.14360  Biso   1.000  H
  H3       1.0000 0.24990  0.89450  0.16300  Biso   1.000  H
  H4       1.0000 0.35170  0.92170  0.17890  Biso   1.000  H
  H5       1.0000 0.19460  0.95890  0.87490  Biso   1.000  H
  H6       1.0000 0.29630  0.93170  0.89040  Biso   1.000  H
  H7       1.0000 0.41260  0.02690  0.90970  Biso   1.000  H
  H8       1.0000 0.38680  0.11610  0.90700  Biso   1.000  H
  H9       1.0000 0.38840  0.23330  0.23600  Biso   1.000  H
  H10      1.0000 0.28410  0.27450  0.18740  Biso   1.000  H
  H11      1.0000 0.12810  0.22510  0.97850  Biso   1.000  H
  H12      1.0000 0.13240  0.15220  0.89370  Biso   1.000  H
  O4       1.0000 0.75860  0.50850  0.14650  Biso   1.000  O
  O5       1.0000 0.78760  0.54561  0.90700  Biso   1.000  O
  O6       1.0000 0.76610  0.67990  0.07250  Biso   1.000  O
  C7       1.0000 0.68890  0.52790  0.18590  Biso   1.000  C
  C8       1.0000 0.80330  0.43430  0.20520  Biso   1.000  C
  C9       1.0000 0.74290  0.47150  0.84840  Biso   1.000  C
  C10      1.0000 0.85700  0.56490  0.86740  Biso   1.000  C
  C11      1.0000 0.82070  0.74770  0.15110  Biso   1.000  C
  C12      1.0000 0.66850  0.69950  0.94730  Biso   1.000  C
  Li2      1.0000 0.82890  0.57990  0.09950  Biso   1.000  Li
  H13      1.0000 0.65910  0.57900  0.14640  Biso   1.000  H
  H14      1.0000 0.63330  0.48980  0.14360  Biso   1.000  H
  H15      1.0000 0.74990  0.39450  0.16300  Biso   1.000  H
  H16      1.0000 0.85170  0.42170  0.17890  Biso   1.000  H
  H17      1.0000 0.69460  0.45890  0.87490  Biso   1.000  H
  H18      1.0000 0.79630  0.43170  0.89040  Biso   1.000  H
  H19      1.0000 0.91260  0.52690  0.90970  Biso   1.000  H
  H20      1.0000 0.88680  0.61610  0.90700  Biso   1.000  H
  H21      1.0000 0.88840  0.73330  0.23600  Biso   1.000  H
  H22      1.0000 0.78410  0.77450  0.18740  Biso   1.000  H
  H23      1.0000 0.62810  0.72510  0.97850  Biso   1.000  H
  H24      1.0000 0.63240  0.65220  0.89370  Biso   1.000  H
  O7       1.0000 0.74140  0.00850  0.35350  Biso   1.000  O
  O8       1.0000 0.71240  0.04561  0.59300  Biso   1.000  O
  O9       1.0000 0.73390  0.17990  0.42750  Biso   1.000  O
  C13      1.0000 0.81110  0.02790  0.31410  Biso   1.000  C
  C14      1.0000 0.69670  0.93430  0.29480  Biso   1.000  C
  C15      1.0000 0.75710  0.97150  0.65160  Biso   1.000  C
  C16      1.0000 0.64300  0.06490  0.63260  Biso   1.000  C
  C17      1.0000 0.67930  0.24770  0.34890  Biso   1.000  C
  C18      1.0000 0.83150  0.19950  0.55270  Biso   1.000  C
  Li3      1.0000 0.67110  0.07990  0.40050  Biso   1.000  Li
  H25      1.0000 0.84090  0.07900  0.35360  Biso   1.000  H
  H26      1.0000 0.86670  0.98980  0.35640  Biso   1.000  H
  H27      1.0000 0.75010  0.89450  0.33700  Biso   1.000  H
  H28      1.0000 0.64830  0.92170  0.32110  Biso   1.000  H
  H29      1.0000 0.80540  0.95890  0.62510  Biso   1.000  H
  H30      1.0000 0.70370  0.93170  0.60960  Biso   1.000  H
  H31      1.0000 0.58740  0.02690  0.59030  Biso   1.000  H
  H32      1.0000 0.61320  0.11610  0.59300  Biso   1.000  H
  H33      1.0000 0.61160  0.23330  0.26400  Biso   1.000  H
  H34      1.0000 0.71590  0.27450  0.31260  Biso   1.000  H
  H35      1.0000 0.87190  0.22510  0.52150  Biso   1.000  H
  H36      1.0000 0.86760  0.15220  0.60630  Biso   1.000  H
  O10      1.0000 0.24140  0.50850  0.35350  Biso   1.000  O
  O11      1.0000 0.21240  0.54561  0.59300  Biso   1.000  O
  O12      1.0000 0.23390  0.67990  0.42750  Biso   1.000  O
  C19      1.0000 0.31110  0.52790  0.31410  Biso   1.000  C
  C20      1.0000 0.19670  0.43430  0.29480  Biso   1.000  C
  C21      1.0000 0.25710  0.47150  0.65160  Biso   1.000  C
  C22      1.0000 0.14300  0.56490  0.63260  Biso   1.000  C
  C23      1.0000 0.17930  0.74770  0.34890  Biso   1.000  C
  C24      1.0000 0.33150  0.69950  0.55270  Biso   1.000  C
  Li4      1.0000 0.17110  0.57990  0.40050  Biso   1.000  Li
  H37      1.0000 0.34090  0.57900  0.35360  Biso   1.000  H
  H38      1.0000 0.36670  0.48980  0.35640  Biso   1.000  H
  H39      1.0000 0.25010  0.39450  0.33700  Biso   1.000  H
  H40      1.0000 0.14830  0.42170  0.32110  Biso   1.000  H
  H41      1.0000 0.30540  0.45890  0.62510  Biso   1.000  H
  H42      1.0000 0.20370  0.43170  0.60960  Biso   1.000  H
  H43      1.0000 0.08740  0.52690  0.59030  Biso   1.000  H
  H44      1.0000 0.11320  0.61610  0.59300  Biso   1.000  H
  H45      1.0000 0.11160  0.73330  0.26400  Biso   1.000  H
  H46      1.0000 0.21590  0.77450  0.31260  Biso   1.000  H
  H47      1.0000 0.37190  0.72510  0.52150  Biso   1.000  H
  H48      1.0000 0.36760  0.65220  0.60630  Biso   1.000  H
  O13      1.0000 0.74140  0.99150  0.85350  Biso   1.000  O
  O14      1.0000 0.71240  0.95439  0.09300  Biso   1.000  O
  O15      1.0000 0.73390  0.82010  0.92750  Biso   1.000  O
  C25      1.0000 0.81110  0.97210  0.81410  Biso   1.000  C
  C26      1.0000 0.69670  0.06570  0.79480  Biso   1.000  C
  C27      1.0000 0.75710  0.02850  0.15160  Biso   1.000  C
  C28      1.0000 0.64300  0.93510  0.13260  Biso   1.000  C
  C29      1.0000 0.67930  0.75230  0.84890  Biso   1.000  C
  C30      1.0000 0.83150  0.80050  0.05270  Biso   1.000  C
  Li5      1.0000 0.67110  0.92010  0.90050  Biso   1.000  Li
  H49      1.0000 0.84090  0.92100  0.85360  Biso   1.000  H
  H50      1.0000 0.86670  0.01020  0.85640  Biso   1.000  H
  H51      1.0000 0.75010  0.10550  0.83700  Biso   1.000  H
  H52      1.0000 0.64830  0.07830  0.82110  Biso   1.000  H
  H53      1.0000 0.80540  0.04110  0.12510  Biso   1.000  H
  H54      1.0000 0.70370  0.06830  0.10960  Biso   1.000  H
  H55      1.0000 0.58740  0.97310  0.09030  Biso   1.000  H
  H56      1.0000 0.61320  0.88390  0.09300  Biso   1.000  H
  H57      1.0000 0.61160  0.76670  0.76400  Biso   1.000  H
  H58      1.0000 0.71590  0.72550  0.81260  Biso   1.000  H
  H59      1.0000 0.87190  0.77490  0.02150  Biso   1.000  H
  H60      1.0000 0.86760  0.84780  0.10630  Biso   1.000  H
  O16      1.0000 0.24140  0.49150  0.85350  Biso   1.000  O
  O17      1.0000 0.21240  0.45439  0.09300  Biso   1.000  O
  O18      1.0000 0.23390  0.32010  0.92750  Biso   1.000  O
  C31      1.0000 0.31110  0.47210  0.81410  Biso   1.000  C
  C32      1.0000 0.19670  0.56570  0.79480  Biso   1.000  C
  C33      1.0000 0.25710  0.52850  0.15160  Biso   1.000  C
  C34      1.0000 0.14300  0.43510  0.13260  Biso   1.000  C
  C35      1.0000 0.17930  0.25230  0.84890  Biso   1.000  C
  C36      1.0000 0.33150  0.30050  0.05270  Biso   1.000  C
  Li6      1.0000 0.17110  0.42010  0.90050  Biso   1.000  Li
  H61      1.0000 0.34090  0.42100  0.85360  Biso   1.000  H
  H62      1.0000 0.36670  0.51020  0.85640  Biso   1.000  H
  H63      1.0000 0.25010  0.60550  0.83700  Biso   1.000  H
  H64      1.0000 0.14830  0.57830  0.82110  Biso   1.000  H
  H65      1.0000 0.30540  0.54110  0.12510  Biso   1.000  H
  H66      1.0000 0.20370  0.56830  0.10960  Biso   1.000  H
  H67      1.0000 0.08740  0.47310  0.09030  Biso   1.000  H
  H68      1.0000 0.11320  0.38390  0.09300  Biso   1.000  H
  H69      1.0000 0.11160  0.26670  0.76400  Biso   1.000  H
  H70      1.0000 0.21590  0.22550  0.81260  Biso   1.000  H
  H71      1.0000 0.37190  0.27490  0.02150  Biso   1.000  H
  H72      1.0000 0.36760  0.34780  0.10630  Biso   1.000  H
  O19      1.0000 0.25860  0.99150  0.64650  Biso   1.000  O
  O20      1.0000 0.28760  0.95439  0.40700  Biso   1.000  O
  O21      1.0000 0.26610  0.82010  0.57250  Biso   1.000  O
  C37      1.0000 0.18890  0.97210  0.68590  Biso   1.000  C
  C38      1.0000 0.30330  0.06570  0.70520  Biso   1.000  C
  C39      1.0000 0.24290  0.02850  0.34840  Biso   1.000  C
  C40      1.0000 0.35700  0.93510  0.36740  Biso   1.000  C
  C41      1.0000 0.32070  0.75230  0.65110  Biso   1.000  C
  C42      1.0000 0.16850  0.80050  0.44730  Biso   1.000  C
  Li7      1.0000 0.32890  0.92010  0.59950  Biso   1.000  Li
  H73      1.0000 0.15910  0.92100  0.64640  Biso   1.000  H
  H74      1.0000 0.13330  0.01020  0.64360  Biso   1.000  H
  H75      1.0000 0.24990  0.10550  0.66300  Biso   1.000  H
  H76      1.0000 0.35170  0.07830  0.67890  Biso   1.000  H
  H77      1.0000 0.19460  0.04110  0.37490  Biso   1.000  H
  H78      1.0000 0.29630  0.06830  0.39040  Biso   1.000  H
  H79      1.0000 0.41260  0.97310  0.40970  Biso   1.000  H
  H80      1.0000 0.38680  0.88390  0.40700  Biso   1.000  H
  H81      1.0000 0.38840  0.76670  0.73600  Biso   1.000  H
  H82      1.0000 0.28410  0.72550  0.68740  Biso   1.000  H
  H83      1.0000 0.12810  0.77490  0.47850  Biso   1.000  H
  H84      1.0000 0.13240  0.84780  0.39370  Biso   1.000  H
  O22      1.0000 0.75860  0.49150  0.64650  Biso   1.000  O
  O23      1.0000 0.78760  0.45439  0.40700  Biso   1.000  O
  O24      1.0000 0.76610  0.32010  0.57250  Biso   1.000  O
  C43      1.0000 0.68890  0.47210  0.68590  Biso   1.000  C
  C44      1.0000 0.80330  0.56570  0.70520  Biso   1.000  C
  C45      1.0000 0.74290  0.52850  0.34840  Biso   1.000  C
  C46      1.0000 0.85700  0.43510  0.36740  Biso   1.000  C
  C47      1.0000 0.82070  0.25230  0.65110  Biso   1.000  C
  C48      1.0000 0.66850  0.30050  0.44730  Biso   1.000  C
  Li8      1.0000 0.82890  0.42010  0.59950  Biso   1.000  Li
  H85      1.0000 0.65910  0.42100  0.64640  Biso   1.000  H
  H86      1.0000 0.63330  0.51020  0.64360  Biso   1.000  H
  H87      1.0000 0.74990  0.60550  0.66300  Biso   1.000  H
  H88      1.0000 0.85170  0.57830  0.67890  Biso   1.000  H
  H89      1.0000 0.69460  0.54110  0.37490  Biso   1.000  H
  H90      1.0000 0.79630  0.56830  0.39040  Biso   1.000  H
  H91      1.0000 0.91260  0.47310  0.40970  Biso   1.000  H
  H92      1.0000 0.88680  0.38390  0.40700  Biso   1.000  H
  H93      1.0000 0.88840  0.26670  0.73600  Biso   1.000  H
  H94      1.0000 0.78410  0.22550  0.68740  Biso   1.000  H
  H95      1.0000 0.62810  0.27490  0.47850  Biso   1.000  H
  H96      1.0000 0.63240  0.34780  0.39370  Biso   1.000  H
  Cl1      1.0000 0.50000  0.08867  0.25000  Biso   1.000  Cl
  Cl2      1.0000 0.00000  0.58867  0.25000  Biso   1.000  Cl
  Cl3      1.0000 0.50000  0.91133  0.75000  Biso   1.000  Cl
  Cl4      1.0000 0.00000  0.41133  0.75000  Biso   1.000  Cl
