data_image0
_cell_length_a       10.0517
_cell_length_b       10.4293
_cell_length_c       14.905
_cell_angle_alpha    90
_cell_angle_beta     90
_cell_angle_gamma    90

_symmetry_space_group_name_H-M    "P 1"
_symmetry_int_tables_number       1

loop_
  _symmetry_equiv_pos_as_xyz
  'x, y, z'

loop_
  _atom_site_label
  _atom_site_occupancy
  _atom_site_fract_x
  _atom_site_fract_y
  _atom_site_fract_z
  _atom_site_thermal_displace_type
  _atom_site_B_iso_or_equiv
  _atom_site_type_symbol
  Zn1      1.0000 0.86651  0.80572  0.67659  Biso   1.000  Zn
  Zn2      1.0000 0.62939  0.14276  0.76325  Biso   1.000  Zn
  P1       1.0000 0.59850  0.84080  0.77818  Biso   1.000  P
  P2       1.0000 0.93664  0.10943  0.70409  Biso   1.000  P
  P3       1.0000 0.92528  0.85143  0.46899  Biso   1.000  P
  O1       1.0000 0.88440  0.77090  0.54962  Biso   1.000  O
  O2       1.0000 0.67860  0.77960  0.70245  Biso   1.000  O
  O3       1.0000 0.94110  0.96470  0.72007  Biso   1.000  O
  O4       1.0000 0.03410  0.17140  0.76572  Biso   1.000  O
  O5       1.0000 0.55350  0.97440  0.75495  Biso   1.000  O
  O6       1.0000 0.80010  0.16330  0.70840  Biso   1.000  O
  O7       1.0000 0.85930  0.79850  0.38640  Biso   1.000  O
  O8       1.0000 0.48250  0.75760  0.80479  Biso   1.000  O
  O9       1.0000 0.69630  0.84900  0.86162  Biso   1.000  O
  O10      1.0000 0.98850  0.13880  0.60599  Biso   1.000  O
  O11      1.0000 0.90100  0.99310  0.48404  Biso   1.000  O
  O12      1.0000 0.08140  0.83300  0.45690  Biso   1.000  O
  H1       1.0000 0.65800  0.90800  0.90800  Biso   1.000  H
  H2       1.0000 0.94300  0.08300  0.56100  Biso   1.000  H
  H3       1.0000 0.10600  0.78700  0.40100  Biso   1.000  H
  Zn3      1.0000 0.63349  0.19428  0.17659  Biso   1.000  Zn
  Zn4      1.0000 0.87061  0.85724  0.26325  Biso   1.000  Zn
  P4       1.0000 0.90150  0.15920  0.27818  Biso   1.000  P
  P5       1.0000 0.56336  0.89057  0.20409  Biso   1.000  P
  P6       1.0000 0.57472  0.14857  0.96899  Biso   1.000  P
  O13      1.0000 0.61560  0.22910  0.04962  Biso   1.000  O
  O14      1.0000 0.82140  0.22040  0.20245  Biso   1.000  O
  O15      1.0000 0.55890  0.03530  0.22007  Biso   1.000  O
  O16      1.0000 0.46590  0.82860  0.26572  Biso   1.000  O
  O17      1.0000 0.94650  0.02560  0.25495  Biso   1.000  O
  O18      1.0000 0.69990  0.83670  0.20840  Biso   1.000  O
  O19      1.0000 0.64070  0.20150  0.88640  Biso   1.000  O
  O20      1.0000 0.01750  0.24240  0.30479  Biso   1.000  O
  O21      1.0000 0.80370  0.15100  0.36162  Biso   1.000  O
  O22      1.0000 0.51150  0.86120  0.10599  Biso   1.000  O
  O23      1.0000 0.59900  0.00690  0.98404  Biso   1.000  O
  O24      1.0000 0.41860  0.16700  0.95690  Biso   1.000  O
  H4       1.0000 0.84200  0.09200  0.40800  Biso   1.000  H
  H5       1.0000 0.55700  0.91700  0.06100  Biso   1.000  H
  H6       1.0000 0.39400  0.21300  0.90100  Biso   1.000  H
  Zn5      1.0000 0.13349  0.30572  0.82341  Biso   1.000  Zn
  Zn6      1.0000 0.37061  0.64276  0.73675  Biso   1.000  Zn
  P7       1.0000 0.40150  0.34080  0.72182  Biso   1.000  P
  P8       1.0000 0.06336  0.60943  0.79591  Biso   1.000  P
  P9       1.0000 0.07472  0.35143  0.03101  Biso   1.000  P
  O25      1.0000 0.11560  0.27090  0.95038  Biso   1.000  O
  O26      1.0000 0.32140  0.27960  0.79755  Biso   1.000  O
  O27      1.0000 0.05890  0.46470  0.77993  Biso   1.000  O
  O28      1.0000 0.96590  0.67140  0.73428  Biso   1.000  O
  O29      1.0000 0.44650  0.47440  0.74505  Biso   1.000  O
  O30      1.0000 0.19990  0.66330  0.79160  Biso   1.000  O
  O31      1.0000 0.14070  0.29850  0.11360  Biso   1.000  O
  O32      1.0000 0.51750  0.25760  0.69521  Biso   1.000  O
  O33      1.0000 0.30370  0.34900  0.63838  Biso   1.000  O
  O34      1.0000 0.01150  0.63880  0.89401  Biso   1.000  O
  O35      1.0000 0.09900  0.49310  0.01596  Biso   1.000  O
  O36      1.0000 0.91860  0.33300  0.04310  Biso   1.000  O
  H7       1.0000 0.34200  0.40800  0.59200  Biso   1.000  H
  H8       1.0000 0.05700  0.58300  0.93900  Biso   1.000  H
  H9       1.0000 0.89400  0.28700  0.09900  Biso   1.000  H
  Zn7      1.0000 0.36651  0.69428  0.32341  Biso   1.000  Zn
  Zn8      1.0000 0.12939  0.35724  0.23675  Biso   1.000  Zn
  P10      1.0000 0.09850  0.65920  0.22182  Biso   1.000  P
  P11      1.0000 0.43664  0.39057  0.29591  Biso   1.000  P
  P12      1.0000 0.42528  0.64857  0.53101  Biso   1.000  P
  O37      1.0000 0.38440  0.72910  0.45038  Biso   1.000  O
  O38      1.0000 0.17860  0.72040  0.29755  Biso   1.000  O
  O39      1.0000 0.44110  0.53530  0.27993  Biso   1.000  O
  O40      1.0000 0.53410  0.32860  0.23428  Biso   1.000  O
  O41      1.0000 0.05350  0.52560  0.24505  Biso   1.000  O
  O42      1.0000 0.30010  0.33670  0.29160  Biso   1.000  O
  O43      1.0000 0.35930  0.70150  0.61360  Biso   1.000  O
  O44      1.0000 0.98250  0.74240  0.19521  Biso   1.000  O
  O45      1.0000 0.19630  0.65100  0.13838  Biso   1.000  O
  O46      1.0000 0.48850  0.36120  0.39401  Biso   1.000  O
  O47      1.0000 0.40100  0.50690  0.51596  Biso   1.000  O
  O48      1.0000 0.58140  0.66700  0.54310  Biso   1.000  O
  H10      1.0000 0.15800  0.59200  0.09200  Biso   1.000  H
  H11      1.0000 0.44300  0.41700  0.43900  Biso   1.000  H
  H12      1.0000 0.60600  0.71300  0.59900  Biso   1.000  H
