data_image0
_cell_length_a       10.762
_cell_length_b       16.137
_cell_length_c       20.368
_cell_angle_alpha    111.65
_cell_angle_beta     90
_cell_angle_gamma    90

_symmetry_space_group_name_H-M    P 1
_symmetry_int_tables_number       1

loop_
  _symmetry_equiv_pos_as_xyz
  'x, y, z'

loop_
  _atom_site_label
  _atom_site_occupancy
  _atom_site_fract_x
  _atom_site_fract_y
  _atom_site_fract_z
  _atom_site_thermal_displace_type
  _atom_site_B_iso_or_equiv
  _atom_site_type_symbol
  Ti1      1.0000 0.35980  0.46180  0.78830  Biso   1.000  Ti
  Ti2      1.0000 0.57850  0.54040  0.71380  Biso   1.000  Ti
  Ti3      1.0000 0.85980  0.03820  0.71170  Biso   1.000  Ti
  Ti4      1.0000 0.07850  0.95960  0.78620  Biso   1.000  Ti
  Ti5      1.0000 0.64020  0.53820  0.21170  Biso   1.000  Ti
  Ti6      1.0000 0.42150  0.45960  0.28620  Biso   1.000  Ti
  Ti7      1.0000 0.14020  0.96180  0.28830  Biso   1.000  Ti
  Ti8      1.0000 0.92150  0.04040  0.21380  Biso   1.000  Ti
  H1       1.0000 0.58730  0.30730  0.63150  Biso   1.000  H
  H2       1.0000 0.71390  0.18380  0.61690  Biso   1.000  H
  H3       1.0000 0.27720  0.22420  0.67550  Biso   1.000  H
  H4       1.0000 0.65250  0.39880  0.83850  Biso   1.000  H
  H5       1.0000 0.16200  0.72830  0.68240  Biso   1.000  H
  H6       1.0000 0.29250  0.60750  0.66740  Biso   1.000  H
  H7       1.0000 0.35840  0.70400  0.87540  Biso   1.000  H
  H8       1.0000 0.22140  0.81930  0.89020  Biso   1.000  H
  H9       1.0000 0.07340  0.63630  0.80770  Biso   1.000  H
  H10      1.0000 0.87960  0.63710  0.75640  Biso   1.000  H
  H11      1.0000 0.87190  0.36970  0.68970  Biso   1.000  H
  H12      1.0000 0.06590  0.36820  0.73770  Biso   1.000  H
  H13      1.0000 0.44550  0.37290  0.90400  Biso   1.000  H
  H14      1.0000 0.49000  0.63870  0.99070  Biso   1.000  H
  H15      1.0000 0.31640  0.48170  0.55210  Biso   1.000  H
  H16      1.0000 0.68850  0.51140  0.56010  Biso   1.000  H
  H17      1.0000 0.08730  0.19270  0.86850  Biso   1.000  H
  H18      1.0000 0.21390  0.31620  0.88310  Biso   1.000  H
  H19      1.0000 0.77720  0.27580  0.82450  Biso   1.000  H
  H20      1.0000 0.15250  0.10120  0.66150  Biso   1.000  H
  H21      1.0000 0.66200  0.77170  0.81760  Biso   1.000  H
  H22      1.0000 0.79250  0.89250  0.83260  Biso   1.000  H
  H23      1.0000 0.85840  0.79600  0.62460  Biso   1.000  H
  H24      1.0000 0.72140  0.68070  0.60980  Biso   1.000  H
  H25      1.0000 0.57340  0.86370  0.69230  Biso   1.000  H
  H26      1.0000 0.37960  0.86290  0.74360  Biso   1.000  H
  H27      1.0000 0.37190  0.13030  0.81030  Biso   1.000  H
  H28      1.0000 0.56590  0.13180  0.76230  Biso   1.000  H
  H29      1.0000 0.94550  0.12710  0.59600  Biso   1.000  H
  H30      1.0000 0.99000  0.86130  0.50930  Biso   1.000  H
  H31      1.0000 0.81640  0.01830  0.94790  Biso   1.000  H
  H32      1.0000 0.18850  0.98860  0.93990  Biso   1.000  H
  H33      1.0000 0.41270  0.69270  0.36850  Biso   1.000  H
  H34      1.0000 0.28610  0.81620  0.38310  Biso   1.000  H
  H35      1.0000 0.72280  0.77580  0.32450  Biso   1.000  H
  H36      1.0000 0.34750  0.60120  0.16150  Biso   1.000  H
  H37      1.0000 0.83800  0.27170  0.31760  Biso   1.000  H
  H38      1.0000 0.70750  0.39250  0.33260  Biso   1.000  H
  H39      1.0000 0.64160  0.29600  0.12460  Biso   1.000  H
  H40      1.0000 0.77860  0.18070  0.10980  Biso   1.000  H
  H41      1.0000 0.92660  0.36370  0.19230  Biso   1.000  H
  H42      1.0000 0.12040  0.36290  0.24360  Biso   1.000  H
  H43      1.0000 0.12810  0.63030  0.31030  Biso   1.000  H
  H44      1.0000 0.93410  0.63180  0.26230  Biso   1.000  H
  H45      1.0000 0.55450  0.62710  0.09600  Biso   1.000  H
  H46      1.0000 0.51000  0.36130  0.00930  Biso   1.000  H
  H47      1.0000 0.68360  0.51830  0.44790  Biso   1.000  H
  H48      1.0000 0.31150  0.48860  0.43990  Biso   1.000  H
  H49      1.0000 0.91270  0.80730  0.13150  Biso   1.000  H
  H50      1.0000 0.78610  0.68380  0.11690  Biso   1.000  H
  H51      1.0000 0.22280  0.72420  0.17550  Biso   1.000  H
  H52      1.0000 0.84750  0.89880  0.33850  Biso   1.000  H
  H53      1.0000 0.33800  0.22830  0.18240  Biso   1.000  H
  H54      1.0000 0.20750  0.10750  0.16740  Biso   1.000  H
  H55      1.0000 0.14160  0.20400  0.37540  Biso   1.000  H
  H56      1.0000 0.27860  0.31930  0.39020  Biso   1.000  H
  H57      1.0000 0.42660  0.13630  0.30770  Biso   1.000  H
  H58      1.0000 0.62040  0.13710  0.25640  Biso   1.000  H
  H59      1.0000 0.62810  0.86970  0.18970  Biso   1.000  H
  H60      1.0000 0.43410  0.86820  0.23770  Biso   1.000  H
  H61      1.0000 0.05450  0.87290  0.40400  Biso   1.000  H
  H62      1.0000 0.01000  0.13870  0.49070  Biso   1.000  H
  H63      1.0000 0.18360  0.98170  0.05210  Biso   1.000  H
  H64      1.0000 0.81150  0.01140  0.06010  Biso   1.000  H
  C1       1.0000 0.60220  0.36260  0.73650  Biso   1.000  C
  C2       1.0000 0.62410  0.30080  0.67060  Biso   1.000  C
  C3       1.0000 0.70200  0.22720  0.66150  Biso   1.000  C
  C4       1.0000 0.26080  0.27990  0.78040  Biso   1.000  C
  C5       1.0000 0.24010  0.21800  0.71460  Biso   1.000  C
  C6       1.0000 0.66300  0.35500  0.79390  Biso   1.000  C
  C7       1.0000 0.17750  0.78490  0.78730  Biso   1.000  C
  C8       1.0000 0.19980  0.72250  0.72150  Biso   1.000  C
  C9       1.0000 0.27890  0.65010  0.71220  Biso   1.000  C
  C10      1.0000 0.33620  0.64280  0.77030  Biso   1.000  C
  C11      1.0000 0.31680  0.70750  0.83650  Biso   1.000  C
  C12      1.0000 0.23620  0.77730  0.84520  Biso   1.000  C
  C13      1.0000 0.08860  0.50390  0.77870  Biso   1.000  C
  C14      1.0000 0.03270  0.58270  0.78400  Biso   1.000  C
  C15      1.0000 0.91560  0.58380  0.75420  Biso   1.000  C
  C16      1.0000 0.85360  0.50150  0.72090  Biso   1.000  C
  C17      1.0000 0.91190  0.42350  0.71410  Biso   1.000  C
  C18      1.0000 0.02820  0.42200  0.74240  Biso   1.000  C
  C19      1.0000 0.45600  0.50890  0.93880  Biso   1.000  C
  C20      1.0000 0.46610  0.42370  0.94270  Biso   1.000  C
  C21      1.0000 0.49270  0.58320  0.99470  Biso   1.000  C
  C22      1.0000 0.50050  0.48670  0.56550  Biso   1.000  C
  C23      1.0000 0.39080  0.48700  0.53070  Biso   1.000  C
  C24      1.0000 0.61370  0.50500  0.53580  Biso   1.000  C
  C25      1.0000 0.10220  0.13740  0.76350  Biso   1.000  C
  C26      1.0000 0.12410  0.19920  0.82940  Biso   1.000  C
  C27      1.0000 0.20200  0.27280  0.83850  Biso   1.000  C
  C28      1.0000 0.76080  0.22010  0.71960  Biso   1.000  C
  C29      1.0000 0.74010  0.28200  0.78540  Biso   1.000  C
  C30      1.0000 0.16300  0.14500  0.70610  Biso   1.000  C
  C31      1.0000 0.67750  0.71510  0.71270  Biso   1.000  C
  C32      1.0000 0.69980  0.77750  0.77850  Biso   1.000  C
  C33      1.0000 0.77890  0.84990  0.78780  Biso   1.000  C
  C34      1.0000 0.83620  0.85720  0.72970  Biso   1.000  C
  C35      1.0000 0.81680  0.79250  0.66350  Biso   1.000  C
  C36      1.0000 0.73620  0.72270  0.65480  Biso   1.000  C
  C37      1.0000 0.58860  0.99610  0.72130  Biso   1.000  C
  C38      1.0000 0.53270  0.91730  0.71600  Biso   1.000  C
  C39      1.0000 0.41560  0.91620  0.74580  Biso   1.000  C
  C40      1.0000 0.35360  0.99850  0.77910  Biso   1.000  C
  C41      1.0000 0.41190  0.07650  0.78590  Biso   1.000  C
  C42      1.0000 0.52820  0.07800  0.75760  Biso   1.000  C
  C43      1.0000 0.95600  0.99110  0.56120  Biso   1.000  C
  C44      1.0000 0.96610  0.07630  0.55730  Biso   1.000  C
  C45      1.0000 0.99270  0.91680  0.50530  Biso   1.000  C
  C46      1.0000 0.00050  0.01330  0.93450  Biso   1.000  C
  C47      1.0000 0.89080  0.01300  0.96930  Biso   1.000  C
  C48      1.0000 0.11370  0.99500  0.96420  Biso   1.000  C
  C49      1.0000 0.39780  0.63740  0.26350  Biso   1.000  C
  C50      1.0000 0.37590  0.69920  0.32940  Biso   1.000  C
  C51      1.0000 0.29800  0.77280  0.33850  Biso   1.000  C
  C52      1.0000 0.73920  0.72010  0.21960  Biso   1.000  C
  C53      1.0000 0.75990  0.78200  0.28540  Biso   1.000  C
  C54      1.0000 0.33700  0.64500  0.20610  Biso   1.000  C
  C55      1.0000 0.82250  0.21510  0.21270  Biso   1.000  C
  C56      1.0000 0.80020  0.27750  0.27850  Biso   1.000  C
  C57      1.0000 0.72110  0.34990  0.28780  Biso   1.000  C
  C58      1.0000 0.66380  0.35720  0.22970  Biso   1.000  C
  C59      1.0000 0.68320  0.29250  0.16350  Biso   1.000  C
  C60      1.0000 0.76380  0.22270  0.15480  Biso   1.000  C
  C61      1.0000 0.91140  0.49610  0.22130  Biso   1.000  C
  C62      1.0000 0.96730  0.41730  0.21600  Biso   1.000  C
  C63      1.0000 0.08440  0.41620  0.24580  Biso   1.000  C
  C64      1.0000 0.14640  0.49850  0.27910  Biso   1.000  C
  C65      1.0000 0.08810  0.57650  0.28590  Biso   1.000  C
  C66      1.0000 0.97180  0.57800  0.25760  Biso   1.000  C
  C67      1.0000 0.54400  0.49110  0.06120  Biso   1.000  C
  C68      1.0000 0.53390  0.57630  0.05730  Biso   1.000  C
  C69      1.0000 0.50730  0.41680  0.00530  Biso   1.000  C
  C70      1.0000 0.49950  0.51330  0.43450  Biso   1.000  C
  C71      1.0000 0.60920  0.51300  0.46930  Biso   1.000  C
  C72      1.0000 0.38630  0.49500  0.46420  Biso   1.000  C
  C73      1.0000 0.89780  0.86260  0.23650  Biso   1.000  C
  C74      1.0000 0.87590  0.80080  0.17060  Biso   1.000  C
  C75      1.0000 0.79800  0.72720  0.16150  Biso   1.000  C
  C76      1.0000 0.23920  0.77990  0.28040  Biso   1.000  C
  C77      1.0000 0.25990  0.71800  0.21460  Biso   1.000  C
  C78      1.0000 0.83700  0.85500  0.29390  Biso   1.000  C
  C79      1.0000 0.32250  0.28490  0.28730  Biso   1.000  C
  C80      1.0000 0.30020  0.22250  0.22150  Biso   1.000  C
  C81      1.0000 0.22110  0.15010  0.21220  Biso   1.000  C
  C82      1.0000 0.16380  0.14280  0.27030  Biso   1.000  C
  C83      1.0000 0.18320  0.20750  0.33650  Biso   1.000  C
  C84      1.0000 0.26380  0.27730  0.34520  Biso   1.000  C
  C85      1.0000 0.41140  0.00390  0.27870  Biso   1.000  C
  C86      1.0000 0.46730  0.08270  0.28400  Biso   1.000  C
  C87      1.0000 0.58440  0.08380  0.25420  Biso   1.000  C
  C88      1.0000 0.64640  0.00150  0.22090  Biso   1.000  C
  C89      1.0000 0.58810  0.92350  0.21410  Biso   1.000  C
  C90      1.0000 0.47180  0.92200  0.24240  Biso   1.000  C
  C91      1.0000 0.04400  0.00890  0.43880  Biso   1.000  C
  C92      1.0000 0.03390  0.92370  0.44270  Biso   1.000  C
  C93      1.0000 0.00730  0.08320  0.49470  Biso   1.000  C
  C94      1.0000 0.99950  0.98670  0.06550  Biso   1.000  C
  C95      1.0000 0.10920  0.98700  0.03070  Biso   1.000  C
  C96      1.0000 0.88630  0.00500  0.03580  Biso   1.000  C
  O1       1.0000 0.20170  0.50620  0.81000  Biso   1.000  O
  O2       1.0000 0.53150  0.43690  0.74620  Biso   1.000  O
  O3       1.0000 0.41900  0.51720  0.87680  Biso   1.000  O
  O4       1.0000 0.41230  0.57020  0.76290  Biso   1.000  O
  O5       1.0000 0.30070  0.41520  0.67780  Biso   1.000  O
  O6       1.0000 0.33500  0.35240  0.78810  Biso   1.000  O
  O7       1.0000 0.63300  0.59830  0.82490  Biso   1.000  O
  O8       1.0000 0.09540  0.85330  0.79470  Biso   1.000  O
  O9       1.0000 0.73810  0.50290  0.69500  Biso   1.000  O
  O10      1.0000 0.50090  0.47900  0.62830  Biso   1.000  O
  O11      1.0000 0.70170  0.99380  0.69000  Biso   1.000  O
  O12      1.0000 0.03150  0.06310  0.75380  Biso   1.000  O
  O13      1.0000 0.91900  0.98280  0.62320  Biso   1.000  O
  O14      1.0000 0.91230  0.92980  0.73710  Biso   1.000  O
  O15      1.0000 0.80070  0.08480  0.82220  Biso   1.000  O
  O16      1.0000 0.83500  0.14760  0.71190  Biso   1.000  O
  O17      1.0000 0.13300  0.90170  0.67510  Biso   1.000  O
  O18      1.0000 0.59540  0.64670  0.70530  Biso   1.000  O
  O19      1.0000 0.23810  0.99710  0.80500  Biso   1.000  O
  O20      1.0000 0.00090  0.02100  0.87170  Biso   1.000  O
  O21      1.0000 0.79830  0.49380  0.19000  Biso   1.000  O
  O22      1.0000 0.46850  0.56310  0.25380  Biso   1.000  O
  O23      1.0000 0.58100  0.48280  0.12320  Biso   1.000  O
  O24      1.0000 0.58770  0.42980  0.23710  Biso   1.000  O
  O25      1.0000 0.69930  0.58480  0.32220  Biso   1.000  O
  O26      1.0000 0.66500  0.64760  0.21190  Biso   1.000  O
  O27      1.0000 0.36700  0.40170  0.17510  Biso   1.000  O
  O28      1.0000 0.90460  0.14670  0.20530  Biso   1.000  O
  O29      1.0000 0.26190  0.49710  0.30500  Biso   1.000  O
  O30      1.0000 0.49910  0.52100  0.37170  Biso   1.000  O
  O31      1.0000 0.29830  0.00620  0.31000  Biso   1.000  O
  O32      1.0000 0.96850  0.93690  0.24620  Biso   1.000  O
  O33      1.0000 0.08100  0.01720  0.37680  Biso   1.000  O
  O34      1.0000 0.08770  0.07020  0.26290  Biso   1.000  O
  O35      1.0000 0.19930  0.91520  0.17780  Biso   1.000  O
  O36      1.0000 0.16500  0.85240  0.28810  Biso   1.000  O
  O37      1.0000 0.86700  0.09830  0.32490  Biso   1.000  O
  O38      1.0000 0.40460  0.35330  0.29470  Biso   1.000  O
  O39      1.0000 0.76190  0.00290  0.19500  Biso   1.000  O
  O40      1.0000 0.99910  0.97900  0.12830  Biso   1.000  O
