data_MARDAM_charged
_audit_creation_date              2014-07-02
_audit_creation_method            'Materials Studio'
_symmetry_space_group_name_H-M    'P1'
_symmetry_Int_Tables_number       1
_symmetry_cell_setting            triclinic
loop_
_symmetry_equiv_pos_as_xyz
  x,y,z
_cell_length_a                    16.0824
_cell_length_b                    23.8642
_cell_length_c                    23.8642
_cell_angle_alpha                 83.4806
_cell_angle_beta                  70.3084
_cell_angle_gamma                 70.3085
loop_
_atom_site_label
_atom_site_type_symbol
_atom_site_fract_x
_atom_site_fract_y
_atom_site_fract_z
_atom_site_U_iso_or_equiv
_atom_site_adp_type
_atom_site_occupancy
Co1    Co    0.35048   0.06758   0.65412   0.01267  Uiso   1.00
Co2    Co    0.57218   0.43242   0.84588   0.01267  Uiso   1.00
Co3    Co    0.00460   0.34588   0.56758   0.01267  Uiso   1.00
Co4    Co    0.41806   0.15412   0.93242   0.01267  Uiso   1.00
Co5    Co    0.64952   0.93242   0.34588   0.01267  Uiso   1.00
Co6    Co    0.42782   0.56758   0.15412   0.01267  Uiso   1.00
Co7    Co    0.99540   0.65412   0.43242   0.01267  Uiso   1.00
Co8    Co    0.58194   0.84588   0.06758   0.01267  Uiso   1.00
Co9    Co    0.50000   1.00000   0.50000   0.01267  Uiso   1.00
Co10   Co    0.50000   0.50000   0.00000   0.01267  Uiso   1.00
Co11   Co    0.00000   0.50000   0.50000   0.01267  Uiso   1.00
Co12   Co    0.50000   1.00000  -0.00000   0.01267  Uiso   1.00
H1     H     0.35920   0.19980   0.60740   0.01267  Uiso   1.00
H2     H     0.51760   0.13250   0.45030   0.01267  Uiso   1.00
H3     H     0.57820   0.21460   0.44180   0.01267  Uiso   1.00
H4     H     0.32480   0.29250   0.55410   0.01267  Uiso   1.00
H5     H     0.59090   0.30660   0.40700   0.01267  Uiso   1.00
H6     H     0.33900   0.38470   0.52070   0.01267  Uiso   1.00
H7     H     0.42090   0.44760   0.45860   0.01267  Uiso   1.00
H8     H     0.48820   0.41950   0.39670   0.01267  Uiso   1.00
H9     H     0.62900   0.43940   0.36840   0.01267  Uiso   1.00
H10    H     0.51030   0.41490   0.53990   0.01267  Uiso   1.00
H11    H     0.75860   0.44430   0.38750   0.01267  Uiso   1.00
H12    H     0.63590   0.42090   0.56130   0.01267  Uiso   1.00
H13    H     0.82110   0.35360   0.53600   0.01267  Uiso   1.00
H14    H     0.82220   0.50610   0.45590   0.01267  Uiso   1.00
H15    H     0.49630   0.97830   0.71390   0.01267  Uiso   1.00
H16    H     0.64790   0.90430   0.55790   0.01267  Uiso   1.00
H17    H     0.76330   0.85460   0.59520   0.01267  Uiso   1.00
H18    H     0.57310   0.89440   0.75780   0.01267  Uiso   1.00
H19    H     0.86170   0.78340   0.63760   0.01267  Uiso   1.00
H20    H     0.67680   0.82510   0.79830   0.01267  Uiso   1.00
H21    H     0.85610   0.76750   0.78030   0.01267  Uiso   1.00
H22    H     0.66640   0.30020   0.89260   0.01267  Uiso   1.00
H23    H     0.60040   0.36750   0.04970   0.01267  Uiso   1.00
H24    H     0.73460   0.28540   0.05820   0.01267  Uiso   1.00
H25    H     0.67140   0.20750   0.94590   0.01267  Uiso   1.00
H26    H     0.80450   0.19340   0.09300   0.01267  Uiso   1.00
H27    H     0.74440   0.11530   0.97930   0.01267  Uiso   1.00
H28    H     0.82710   0.05240   0.04140   0.01267  Uiso   1.00
H29    H     0.80440   0.08050   0.10330   0.01267  Uiso   1.00
H30    H     0.93680   0.06060   0.13160   0.01267  Uiso   1.00
H31    H     0.96510   0.08510   0.96010   0.01267  Uiso   1.00
H32    H     0.09040   0.05570   0.11250   0.01267  Uiso   1.00
H33    H     0.11810   0.07910   0.93870   0.01267  Uiso   1.00
H34    H     0.21070   0.14640   0.96400   0.01267  Uiso   1.00
H35    H     0.28420   0.99390   0.04410   0.01267  Uiso   1.00
H36    H     0.68850   0.52170   0.78610   0.01267  Uiso   1.00
H37    H     0.61010   0.59570   0.94210   0.01267  Uiso   1.00
H38    H     0.71310   0.64540   0.90480   0.01267  Uiso   1.00
H39    H     0.72530   0.60560   0.74220   0.01267  Uiso   1.00
H40    H     0.78270   0.71660   0.86240   0.01267  Uiso   1.00
H41    H     0.80020   0.67490   0.70170   0.01267  Uiso   1.00
H42    H     0.90390   0.73250   0.71970   0.01267  Uiso   1.00
H43    H     0.96660   0.39260   0.69980   0.01267  Uiso   1.00
H44    H     0.96790   0.54970   0.63250   0.01267  Uiso   1.00
H45    H     0.02000   0.55820   0.71460   0.01267  Uiso   1.00
H46    H     0.87890   0.44590   0.79250   0.01267  Uiso   1.00
H47    H     0.99790   0.59300   0.80660   0.01267  Uiso   1.00
H48    H     0.85970   0.47930   0.88470   0.01267  Uiso   1.00
H49    H     0.87950   0.54140   0.94760   0.01267  Uiso   1.00
H50    H     0.88490   0.60330   0.91950   0.01267  Uiso   1.00
H51    H     0.99740   0.63160   0.93940   0.01267  Uiso   1.00
H52    H     0.05020   0.46010   0.91490   0.01267  Uiso   1.00
H53    H     0.14610   0.61250   0.94430   0.01267  Uiso   1.00
H54    H     0.19720   0.43870   0.92090   0.01267  Uiso   1.00
H55    H     0.35710   0.46400   0.85360   0.01267  Uiso   1.00
H56    H     0.27810   0.54410   0.00610   0.01267  Uiso   1.00
H57    H     0.21020   0.28610   0.47830   0.01267  Uiso   1.00
H58    H     0.20580   0.44210   0.40430   0.01267  Uiso   1.00
H59    H     0.35850   0.40480   0.35460   0.01267  Uiso   1.00
H60    H     0.33090   0.24220   0.39440   0.01267  Uiso   1.00
H61    H     0.49930   0.36240   0.28340   0.01267  Uiso   1.00
H62    H     0.47510   0.20170   0.32510   0.01267  Uiso   1.00
H63    H     0.63640   0.21970   0.26750   0.01267  Uiso   1.00
H64    H     0.55900   0.10740   0.80020   0.01267  Uiso   1.00
H65    H     0.65010   0.95030   0.86750   0.01267  Uiso   1.00
H66    H     0.79280   0.94180   0.78540   0.01267  Uiso   1.00
H67    H     0.61730   0.05410   0.70750   0.01267  Uiso   1.00
H68    H     0.89750   0.90700   0.69340   0.01267  Uiso   1.00
H69    H     0.72370   0.02070   0.61530   0.01267  Uiso   1.00
H70    H     0.86850   0.95860   0.55240   0.01267  Uiso   1.00
H71    H     0.90770   0.89670   0.58050   0.01267  Uiso   1.00
H72    H     0.06840   0.86840   0.56060   0.01267  Uiso   1.00
H73    H     0.92520   0.03990   0.58510   0.01267  Uiso   1.00
H74    H     0.20290   0.88750   0.55570   0.01267  Uiso   1.00
H75    H     0.05680   0.06130   0.57910   0.01267  Uiso   1.00
H76    H     0.17470   0.03600   0.64640   0.01267  Uiso   1.00
H77    H     0.32830   0.95590   0.49390   0.01267  Uiso   1.00
H78    H     0.47460   0.21390   0.02170   0.01267  Uiso   1.00
H79    H     0.55220   0.05790   0.09570   0.01267  Uiso   1.00
H80    H     0.61790   0.09520   0.14540   0.01267  Uiso   1.00
H81    H     0.46750   0.25780   0.10560   0.01267  Uiso   1.00
H82    H     0.64510   0.13760   0.21660   0.01267  Uiso   1.00
H83    H     0.50190   0.29830   0.17490   0.01267  Uiso   1.00
H84    H     0.62360   0.28030   0.23250   0.01267  Uiso   1.00
H85    H     0.64080   0.80020   0.39260   0.01267  Uiso   1.00
H86    H     0.48240   0.86750   0.54970   0.01267  Uiso   1.00
H87    H     0.42180   0.78540   0.55820   0.01267  Uiso   1.00
H88    H     0.67520   0.70750   0.44590   0.01267  Uiso   1.00
H89    H     0.40910   0.69340   0.59300   0.01267  Uiso   1.00
H90    H     0.66100   0.61530   0.47930   0.01267  Uiso   1.00
H91    H     0.57910   0.55240   0.54140   0.01267  Uiso   1.00
H92    H     0.51180   0.58050   0.60330   0.01267  Uiso   1.00
H93    H     0.37100   0.56060   0.63160   0.01267  Uiso   1.00
H94    H     0.48970   0.58510   0.46010   0.01267  Uiso   1.00
H95    H     0.24140   0.55570   0.61250   0.01267  Uiso   1.00
H96    H     0.36410   0.57910   0.43870   0.01267  Uiso   1.00
H97    H     0.17890   0.64640   0.46400   0.01267  Uiso   1.00
H98    H     0.17780   0.49390   0.54410   0.01267  Uiso   1.00
H99    H     0.50370   0.02170   0.28610   0.01267  Uiso   1.00
H100   H     0.35210   0.09570   0.44210   0.01267  Uiso   1.00
H101   H     0.23670   0.14540   0.40480   0.01267  Uiso   1.00
H102   H     0.42690   0.10560   0.24220   0.01267  Uiso   1.00
H103   H     0.13830   0.21660   0.36240   0.01267  Uiso   1.00
H104   H     0.32320   0.17490   0.20170   0.01267  Uiso   1.00
H105   H     0.14390   0.23250   0.21970   0.01267  Uiso   1.00
H106   H     0.33360   0.69980   0.10740   0.01267  Uiso   1.00
H107   H     0.39960   0.63250   0.95030   0.01267  Uiso   1.00
H108   H     0.26540   0.71460   0.94180   0.01267  Uiso   1.00
H109   H     0.32860   0.79250   0.05410   0.01267  Uiso   1.00
H110   H     0.19550   0.80660   0.90700   0.01267  Uiso   1.00
H111   H     0.25560   0.88470   0.02070   0.01267  Uiso   1.00
H112   H     0.17290   0.94760   0.95860   0.01267  Uiso   1.00
H113   H     0.19560   0.91950   0.89670   0.01267  Uiso   1.00
H114   H     0.06320   0.93940   0.86840   0.01267  Uiso   1.00
H115   H     0.03490   0.91490   0.03990   0.01267  Uiso   1.00
H116   H     0.90960   0.94430   0.88750   0.01267  Uiso   1.00
H117   H     0.88190   0.92090   0.06130   0.01267  Uiso   1.00
H118   H     0.78930   0.85360   0.03600   0.01267  Uiso   1.00
H119   H     0.71580   0.00610   0.95590   0.01267  Uiso   1.00
H120   H     0.31150   0.47830   0.21390   0.01267  Uiso   1.00
H121   H     0.38990   0.40430   0.05790   0.01267  Uiso   1.00
H122   H     0.28690   0.35460   0.09520   0.01267  Uiso   1.00
H123   H     0.27470   0.39440   0.25780   0.01267  Uiso   1.00
H124   H     0.21730   0.28340   0.13760   0.01267  Uiso   1.00
H125   H     0.19980   0.32510   0.29830   0.01267  Uiso   1.00
H126   H     0.09610   0.26750   0.28030   0.01267  Uiso   1.00
H127   H     0.03340   0.60740   0.30020   0.01267  Uiso   1.00
H128   H     0.03210   0.45030   0.36750   0.01267  Uiso   1.00
H129   H     0.98000   0.44180   0.28540   0.01267  Uiso   1.00
H130   H     0.12110   0.55410   0.20750   0.01267  Uiso   1.00
H131   H     0.00210   0.40700   0.19340   0.01267  Uiso   1.00
H132   H     0.14030   0.52070   0.11530   0.01267  Uiso   1.00
H133   H     0.12050   0.45860   0.05240   0.01267  Uiso   1.00
H134   H     0.11510   0.39670   0.08050   0.01267  Uiso   1.00
H135   H     0.00260   0.36840   0.06060   0.01267  Uiso   1.00
H136   H     0.94980   0.53990   0.08510   0.01267  Uiso   1.00
H137   H     0.85390   0.38750   0.05570   0.01267  Uiso   1.00
H138   H     0.80280   0.56130   0.07910   0.01267  Uiso   1.00
H139   H     0.64290   0.53600   0.14640   0.01267  Uiso   1.00
H140   H     0.72190   0.45590   0.99390   0.01267  Uiso   1.00
H141   H     0.78980   0.71390   0.52170   0.01267  Uiso   1.00
H142   H     0.79420   0.55790   0.59570   0.01267  Uiso   1.00
H143   H     0.64150   0.59520   0.64540   0.01267  Uiso   1.00
H144   H     0.66910   0.75780   0.60560   0.01267  Uiso   1.00
H145   H     0.50070   0.63760   0.71660   0.01267  Uiso   1.00
H146   H     0.52490   0.79830   0.67490   0.01267  Uiso   1.00
H147   H     0.36360   0.78030   0.73250   0.01267  Uiso   1.00
H148   H     0.44100   0.89260   0.19980   0.01267  Uiso   1.00
H149   H     0.34990   0.04970   0.13250   0.01267  Uiso   1.00
H150   H     0.20720   0.05820   0.21460   0.01267  Uiso   1.00
H151   H     0.38270   0.94590   0.29250   0.01267  Uiso   1.00
H152   H     0.10250   0.09300   0.30660   0.01267  Uiso   1.00
H153   H     0.27630   0.97930   0.38470   0.01267  Uiso   1.00
H154   H     0.13150   0.04140   0.44760   0.01267  Uiso   1.00
H155   H     0.09230   0.10330   0.41950   0.01267  Uiso   1.00
H156   H     0.93160   0.13160   0.43940   0.01267  Uiso   1.00
H157   H     0.07480   0.96010   0.41490   0.01267  Uiso   1.00
H158   H     0.79710   0.11250   0.44430   0.01267  Uiso   1.00
H159   H     0.94320   0.93870   0.42090   0.01267  Uiso   1.00
H160   H     0.82530   0.96400   0.35360   0.01267  Uiso   1.00
H161   H     0.67170   0.04410   0.50610   0.01267  Uiso   1.00
H162   H     0.52540   0.78610   0.97830   0.01267  Uiso   1.00
H163   H     0.44780   0.94210   0.90430   0.01267  Uiso   1.00
H164   H     0.38210   0.90480   0.85460   0.01267  Uiso   1.00
H165   H     0.53250   0.74220   0.89440   0.01267  Uiso   1.00
H166   H     0.35490   0.86240   0.78340   0.01267  Uiso   1.00
H167   H     0.49810   0.70170   0.82510   0.01267  Uiso   1.00
H168   H     0.37640   0.71970   0.76750   0.01267  Uiso   1.00
C1     C     0.39410   0.17298   0.57622   0.01267  Uiso   1.00
C2     C     0.48086   0.13626   0.49002   0.01267  Uiso   1.00
C3     C     0.45065   0.24515   0.49995   0.01267  Uiso   1.00
C4     C     0.52940   0.24900   0.45740   0.01267  Uiso   1.00
C5     C     0.37840   0.29540   0.52460   0.01267  Uiso   1.00
C6     C     0.53720   0.30420   0.43700   0.01267  Uiso   1.00
C7     C     0.38740   0.35050   0.50430   0.01267  Uiso   1.00
C8     C     0.46570   0.35610   0.46070   0.01267  Uiso   1.00
C9     C     0.47780   0.41630   0.43930   0.01267  Uiso   1.00
C10    C     0.55800   0.42510   0.45210   0.01267  Uiso   1.00
C11    C     0.63120   0.43490   0.40710   0.01267  Uiso   1.00
C12    C     0.56070   0.42050   0.50910   0.01267  Uiso   1.00
C13    C     0.70870   0.43810   0.41830   0.01267  Uiso   1.00
C14    C     0.63530   0.42390   0.52230   0.01267  Uiso   1.00
C15    C     0.83750   0.38747   0.52073   0.01267  Uiso   1.00
C16    C     0.83789   0.47099   0.47703   0.01267  Uiso   1.00
C17    C     0.71040   0.43190   0.47550   0.01267  Uiso   1.00
C18    C     0.51802   0.96973   0.67343   0.01267  Uiso   1.00
C19    C     0.60130   0.92921   0.58799   0.01267  Uiso   1.00
C20    C     0.65864   0.88151   0.67221   0.01267  Uiso   1.00
C21    C     0.74520   0.84851   0.63609   0.01267  Uiso   1.00
C22    C     0.63178   0.87264   0.73340   0.01267  Uiso   1.00
C23    C     0.80405   0.80654   0.66176   0.01267  Uiso   1.00
C24    C     0.69390   0.83090   0.75730   0.01267  Uiso   1.00
C25    C     0.77983   0.79785   0.72249   0.01267  Uiso   1.00
C26    C     0.64330   0.32702   0.92378   0.01267  Uiso   1.00
C27    C     0.60714   0.36374   0.00998   0.01267  Uiso   1.00
C28    C     0.69575   0.25485   0.00005   0.01267  Uiso   1.00
C29    C     0.73580   0.25100   0.04260   0.01267  Uiso   1.00
C30    C     0.69840   0.20460   0.97540   0.01267  Uiso   1.00
C31    C     0.77840   0.19580   0.06300   0.01267  Uiso   1.00
C32    C     0.74220   0.14950   0.99570   0.01267  Uiso   1.00
C33    C     0.78250   0.14390   0.03930   0.01267  Uiso   1.00
C34    C     0.83340   0.08370   0.06070   0.01267  Uiso   1.00
C35    C     0.93520   0.07490   0.04790   0.01267  Uiso   1.00
C36    C     0.97320   0.06510   0.09290   0.01267  Uiso   1.00
C37    C     0.99030   0.07950   0.99090   0.01267  Uiso   1.00
C38    C     0.06510   0.06190   0.08170   0.01267  Uiso   1.00
C39    C     0.08150   0.07610   0.97770   0.01267  Uiso   1.00
C40    C     0.24570   0.11253   0.97927   0.01267  Uiso   1.00
C41    C     0.28591   0.02901   0.02297   0.01267  Uiso   1.00
C42    C     0.11780   0.06810   0.02450   0.01267  Uiso   1.00
C43    C     0.66118   0.53027   0.82657   0.01267  Uiso   1.00
C44    C     0.61850   0.57079   0.91201   0.01267  Uiso   1.00
C45    C     0.71236   0.61849   0.82779   0.01267  Uiso   1.00
C46    C     0.72980   0.65149   0.86391   0.01267  Uiso   1.00
C47    C     0.73782   0.62736   0.76660   0.01267  Uiso   1.00
C48    C     0.77235   0.69346   0.83824   0.01267  Uiso   1.00
C49    C     0.78210   0.66910   0.74270   0.01267  Uiso   1.00
C50    C     0.80017   0.70215   0.77751   0.01267  Uiso   1.00
C51    C     0.97032   0.42378   0.67298   0.01267  Uiso   1.00
C52    C     0.97088   0.50998   0.63626   0.01267  Uiso   1.00
C53    C     0.95060   0.50005   0.74515   0.01267  Uiso   1.00
C54    C     0.98680   0.54260   0.74900   0.01267  Uiso   1.00
C55    C     0.90300   0.47540   0.79540   0.01267  Uiso   1.00
C56    C     0.97420   0.56300   0.80420   0.01267  Uiso   1.00
C57    C     0.89170   0.49570   0.85050   0.01267  Uiso   1.00
C58    C     0.92640   0.53930   0.85610   0.01267  Uiso   1.00
C59    C     0.91710   0.56070   0.91630   0.01267  Uiso   1.00
C60    C     0.01010   0.54790   0.92510   0.01267  Uiso   1.00
C61    C     0.03830   0.59290   0.93490   0.01267  Uiso   1.00
C62    C     0.06980   0.49090   0.92050   0.01267  Uiso   1.00
C63    C     0.12700   0.58170   0.93810   0.01267  Uiso   1.00
C64    C     0.15760   0.47770   0.92390   0.01267  Uiso   1.00
C65    C     0.35823   0.47927   0.88747   0.01267  Uiso   1.00
C66    C     0.31492   0.52297   0.97099   0.01267  Uiso   1.00
C67    C     0.18590   0.52450   0.93190   0.01267  Uiso   1.00
C68    C     0.19145   0.32657   0.46973   0.01267  Uiso   1.00
C69    C     0.18929   0.41201   0.42921   0.01267  Uiso   1.00
C70    C     0.33085   0.32779   0.38151   0.01267  Uiso   1.00
C71    C     0.38129   0.36391   0.34851   0.01267  Uiso   1.00
C72    C     0.36518   0.26660   0.37264   0.01267  Uiso   1.00
C73    C     0.46581   0.33824   0.30654   0.01267  Uiso   1.00
C74    C     0.45120   0.24270   0.33090   0.01267  Uiso   1.00
C75    C     0.50232   0.27751   0.29785   0.01267  Uiso   1.00
C76    C     0.56708   0.07622   0.82702   0.01267  Uiso   1.00
C77    C     0.61712   0.99002   0.86374   0.01267  Uiso   1.00
C78    C     0.69580   0.99995   0.75485   0.01267  Uiso   1.00
C79    C     0.77840   0.95740   0.75100   0.01267  Uiso   1.00
C80    C     0.67380   0.02460   0.70460   0.01267  Uiso   1.00
C81    C     0.84140   0.93700   0.69580   0.01267  Uiso   1.00
C82    C     0.73790   0.00430   0.64950   0.01267  Uiso   1.00
C83    C     0.82180   0.96070   0.64390   0.01267  Uiso   1.00
C84    C     0.89410   0.93930   0.58370   0.01267  Uiso   1.00
C85    C     0.98310   0.95210   0.57490   0.01267  Uiso   1.00
C86    C     0.06610   0.90710   0.56510   0.01267  Uiso   1.00
C87    C     0.98120   0.00910   0.57950   0.01267  Uiso   1.00
C88    C     0.14680   0.91830   0.56190   0.01267  Uiso   1.00
C89    C     0.05920   0.02230   0.57610   0.01267  Uiso   1.00
C90    C     0.22497   0.02073   0.61253   0.01267  Uiso   1.00
C91    C     0.30888   0.97703   0.52901   0.01267  Uiso   1.00
C92    C     0.14230   0.97550   0.56810   0.01267  Uiso   1.00
C93    C     0.48775   0.17343   0.03027   0.01267  Uiso   1.00
C94    C     0.53051   0.08799   0.07079   0.01267  Uiso   1.00
C95    C     0.54015   0.17221   0.11849   0.01267  Uiso   1.00
C96    C     0.59371   0.13609   0.15149   0.01267  Uiso   1.00
C97    C     0.50442   0.23340   0.12736   0.01267  Uiso   1.00
C98    C     0.61059   0.16176   0.19346   0.01267  Uiso   1.00
C99    C     0.52480   0.25730   0.16910   0.01267  Uiso   1.00
C100   C     0.57768   0.22249   0.20215   0.01267  Uiso   1.00
C101   C     0.60590   0.82702   0.42378   0.01267  Uiso   1.00
C102   C     0.51914   0.86374   0.50998   0.01267  Uiso   1.00
C103   C     0.54935   0.75485   0.50005   0.01267  Uiso   1.00
C104   C     0.47060   0.75100   0.54260   0.01267  Uiso   1.00
C105   C     0.62160   0.70460   0.47540   0.01267  Uiso   1.00
C106   C     0.46280   0.69580   0.56300   0.01267  Uiso   1.00
C107   C     0.61260   0.64950   0.49570   0.01267  Uiso   1.00
C108   C     0.53430   0.64390   0.53930   0.01267  Uiso   1.00
C109   C     0.52220   0.58370   0.56070   0.01267  Uiso   1.00
C110   C     0.44200   0.57490   0.54790   0.01267  Uiso   1.00
C111   C     0.36880   0.56510   0.59290   0.01267  Uiso   1.00
C112   C     0.43930   0.57950   0.49090   0.01267  Uiso   1.00
C113   C     0.29130   0.56190   0.58170   0.01267  Uiso   1.00
C114   C     0.36470   0.57610   0.47770   0.01267  Uiso   1.00
C115   C     0.16250   0.61253   0.47927   0.01267  Uiso   1.00
C116   C     0.16211   0.52901   0.52297   0.01267  Uiso   1.00
C117   C     0.28960   0.56810   0.52450   0.01267  Uiso   1.00
C118   C     0.48198   0.03027   0.32657   0.01267  Uiso   1.00
C119   C     0.39870   0.07079   0.41201   0.01267  Uiso   1.00
C120   C     0.34136   0.11849   0.32779   0.01267  Uiso   1.00
C121   C     0.25480   0.15149   0.36391   0.01267  Uiso   1.00
C122   C     0.36822   0.12736   0.26660   0.01267  Uiso   1.00
C123   C     0.19595   0.19346   0.33824   0.01267  Uiso   1.00
C124   C     0.30610   0.16910   0.24270   0.01267  Uiso   1.00
C125   C     0.22017   0.20215   0.27751   0.01267  Uiso   1.00
C126   C     0.35670   0.67298   0.07622   0.01267  Uiso   1.00
C127   C     0.39286   0.63626   0.99002   0.01267  Uiso   1.00
C128   C     0.30425   0.74515   0.99995   0.01267  Uiso   1.00
C129   C     0.26420   0.74900   0.95740   0.01267  Uiso   1.00
C130   C     0.30160   0.79540   0.02460   0.01267  Uiso   1.00
C131   C     0.22160   0.80420   0.93700   0.01267  Uiso   1.00
C132   C     0.25780   0.85050   0.00430   0.01267  Uiso   1.00
C133   C     0.21750   0.85610   0.96070   0.01267  Uiso   1.00
C134   C     0.16660   0.91630   0.93930   0.01267  Uiso   1.00
C135   C     0.06480   0.92510   0.95210   0.01267  Uiso   1.00
C136   C     0.02680   0.93490   0.90710   0.01267  Uiso   1.00
C137   C     0.00970   0.92050   0.00910   0.01267  Uiso   1.00
C138   C     0.93490   0.93810   0.91830   0.01267  Uiso   1.00
C139   C     0.91850   0.92390   0.02230   0.01267  Uiso   1.00
C140   C     0.75430   0.88747   0.02073   0.01267  Uiso   1.00
C141   C     0.71409   0.97099   0.97703   0.01267  Uiso   1.00
C142   C     0.88220   0.93190   0.97550   0.01267  Uiso   1.00
C143   C     0.33882   0.46973   0.17343   0.01267  Uiso   1.00
C144   C     0.38150   0.42921   0.08799   0.01267  Uiso   1.00
C145   C     0.28764   0.38151   0.17221   0.01267  Uiso   1.00
C146   C     0.27020   0.34851   0.13609   0.01267  Uiso   1.00
C147   C     0.26218   0.37264   0.23340   0.01267  Uiso   1.00
C148   C     0.22765   0.30654   0.16176   0.01267  Uiso   1.00
C149   C     0.21790   0.33090   0.25730   0.01267  Uiso   1.00
C150   C     0.19983   0.29785   0.22249   0.01267  Uiso   1.00
C151   C     0.02968   0.57622   0.32702   0.01267  Uiso   1.00
C152   C     0.02912   0.49002   0.36374   0.01267  Uiso   1.00
C153   C     0.04940   0.49995   0.25485   0.01267  Uiso   1.00
C154   C     0.01320   0.45740   0.25100   0.01267  Uiso   1.00
C155   C     0.09700   0.52460   0.20460   0.01267  Uiso   1.00
C156   C     0.02580   0.43700   0.19580   0.01267  Uiso   1.00
C157   C     0.10830   0.50430   0.14950   0.01267  Uiso   1.00
C158   C     0.07360   0.46070   0.14390   0.01267  Uiso   1.00
C159   C     0.08290   0.43930   0.08370   0.01267  Uiso   1.00
C160   C     0.98990   0.45210   0.07490   0.01267  Uiso   1.00
C161   C     0.96170   0.40710   0.06510   0.01267  Uiso   1.00
C162   C     0.93020   0.50910   0.07950   0.01267  Uiso   1.00
C163   C     0.87300   0.41830   0.06190   0.01267  Uiso   1.00
C164   C     0.84240   0.52230   0.07610   0.01267  Uiso   1.00
C165   C     0.64177   0.52073   0.11253   0.01267  Uiso   1.00
C166   C     0.68508   0.47703   0.02901   0.01267  Uiso   1.00
C167   C     0.81410   0.47550   0.06810   0.01267  Uiso   1.00
C168   C     0.80855   0.67343   0.53027   0.01267  Uiso   1.00
C169   C     0.81071   0.58799   0.57079   0.01267  Uiso   1.00
C170   C     0.66915   0.67221   0.61849   0.01267  Uiso   1.00
C171   C     0.61871   0.63609   0.65149   0.01267  Uiso   1.00
C172   C     0.63482   0.73340   0.62736   0.01267  Uiso   1.00
C173   C     0.53419   0.66176   0.69346   0.01267  Uiso   1.00
C174   C     0.54880   0.75730   0.66910   0.01267  Uiso   1.00
C175   C     0.49768   0.72249   0.70215   0.01267  Uiso   1.00
C176   C     0.43292   0.92378   0.17298   0.01267  Uiso   1.00
C177   C     0.38288   0.00998   0.13626   0.01267  Uiso   1.00
C178   C     0.30420   0.00005   0.24515   0.01267  Uiso   1.00
C179   C     0.22160   0.04260   0.24900   0.01267  Uiso   1.00
C180   C     0.32620   0.97540   0.29540   0.01267  Uiso   1.00
C181   C     0.15860   0.06300   0.30420   0.01267  Uiso   1.00
C182   C     0.26210   0.99570   0.35050   0.01267  Uiso   1.00
C183   C     0.17820   0.03930   0.35610   0.01267  Uiso   1.00
C184   C     0.10590   0.06070   0.41630   0.01267  Uiso   1.00
C185   C     0.01690   0.04790   0.42510   0.01267  Uiso   1.00
C186   C     0.93390   0.09290   0.43490   0.01267  Uiso   1.00
C187   C     0.01880   0.99090   0.42050   0.01267  Uiso   1.00
C188   C     0.85320   0.08170   0.43810   0.01267  Uiso   1.00
C189   C     0.94080   0.97770   0.42390   0.01267  Uiso   1.00
C190   C     0.77503   0.97927   0.38747   0.01267  Uiso   1.00
C191   C     0.69112   0.02297   0.47099   0.01267  Uiso   1.00
C192   C     0.85770   0.02450   0.43190   0.01267  Uiso   1.00
C193   C     0.51225   0.82657   0.96973   0.01267  Uiso   1.00
C194   C     0.46949   0.91201   0.92921   0.01267  Uiso   1.00
C195   C     0.45985   0.82779   0.88151   0.01267  Uiso   1.00
C196   C     0.40629   0.86391   0.84851   0.01267  Uiso   1.00
C197   C     0.49558   0.76660   0.87264   0.01267  Uiso   1.00
C198   C     0.38941   0.83824   0.80654   0.01267  Uiso   1.00
C199   C     0.47520   0.74270   0.83090   0.01267  Uiso   1.00
C200   C     0.42232   0.77751   0.79785   0.01267  Uiso   1.00
C201   C     0.84470   0.75000   0.75000   0.01267  Uiso   1.00
C202   C     0.59470   0.25000   0.25000   0.01267  Uiso   1.00
C203   C     0.15530   0.25000   0.25000   0.01267  Uiso   1.00
C204   C     0.40530   0.75000   0.75000   0.01267  Uiso   1.00
N1     N     0.44336   0.18741   0.52107   0.01267  Uiso   1.00
N2     N     0.40239   0.11676   0.57926   0.01267  Uiso   1.00
N3     N     0.45893   0.09261   0.52293   0.01267  Uiso   1.00
N4     N     0.79281   0.43056   0.48942   0.01267  Uiso   1.00
N5     N     0.90616   0.45415   0.49873   0.01267  Uiso   1.00
N6     N     0.90592   0.40000   0.52636   0.01267  Uiso   1.00
N7     N     0.59596   0.92396   0.64592   0.01267  Uiso   1.00
N8     N     0.53245   0.97384   0.57966   0.01267  Uiso   1.00
N9     N     0.47892   0.99940   0.63496   0.01267  Uiso   1.00
N10    N     0.65184   0.31259   0.97893   0.01267  Uiso   1.00
N11    N     0.59841   0.38324   0.92074   0.01267  Uiso   1.00
N12    N     0.57447   0.40739   0.97707   0.01267  Uiso   1.00
N13    N     0.21279   0.06944   0.01058   0.01267  Uiso   1.00
N14    N     0.35904   0.04585   0.00127   0.01267  Uiso   1.00
N15    N     0.33228   0.10000   0.97364   0.01267  Uiso   1.00
N16    N     0.66584   0.57604   0.85408   0.01267  Uiso   1.00
N17    N     0.58595   0.52616   0.92034   0.01267  Uiso   1.00
N18    N     0.61328   0.50060   0.86504   0.01267  Uiso   1.00
N19    N     0.96443   0.47893   0.68741   0.01267  Uiso   1.00
N20    N     0.98165   0.42074   0.61676   0.01267  Uiso   1.00
N21    N     0.98186   0.47707   0.59261   0.01267  Uiso   1.00
N22    N     0.28223   0.51058   0.93056   0.01267  Uiso   1.00
N23    N     0.40489   0.50127   0.95415   0.01267  Uiso   1.00
N24    N     0.43228   0.47364   0.90000   0.01267  Uiso   1.00
N25    N     0.24188   0.35408   0.42396   0.01267  Uiso   1.00
N26    N     0.11211   0.42034   0.47384   0.01267  Uiso   1.00
N27    N     0.11388   0.36504   0.49940   0.01267  Uiso   1.00
N28    N     0.63077   0.02107   0.81259   0.01267  Uiso   1.00
N29    N     0.51915   0.07926   0.88324   0.01267  Uiso   1.00
N30    N     0.55154   0.02293   0.90739   0.01267  Uiso   1.00
N31    N     0.22337   0.98942   0.56944   0.01267  Uiso   1.00
N32    N     0.36031   0.99873   0.54585   0.01267  Uiso   1.00
N33    N     0.30592   0.02636   0.60000   0.01267  Uiso   1.00
N34    N     0.51992   0.14592   0.07604   0.01267  Uiso   1.00
N35    N     0.50629   0.07966   0.02616   0.01267  Uiso   1.00
N36    N     0.47832   0.13496   0.00060   0.01267  Uiso   1.00
N37    N     0.55664   0.81259   0.47893   0.01267  Uiso   1.00
N38    N     0.59761   0.88324   0.42074   0.01267  Uiso   1.00
N39    N     0.54107   0.90739   0.47707   0.01267  Uiso   1.00
N40    N     0.20719   0.56944   0.51058   0.01267  Uiso   1.00
N41    N     0.09384   0.54585   0.50127   0.01267  Uiso   1.00
N42    N     0.09408   0.60000   0.47364   0.01267  Uiso   1.00
N43    N     0.40404   0.07604   0.35408   0.01267  Uiso   1.00
N44    N     0.46755   0.02616   0.42034   0.01267  Uiso   1.00
N45    N     0.52108   0.00060   0.36504   0.01267  Uiso   1.00
N46    N     0.34816   0.68741   0.02107   0.01267  Uiso   1.00
N47    N     0.40159   0.61676   0.07926   0.01267  Uiso   1.00
N48    N     0.42553   0.59261   0.02293   0.01267  Uiso   1.00
N49    N     0.78721   0.93056   0.98942   0.01267  Uiso   1.00
N50    N     0.64096   0.95415   0.99873   0.01267  Uiso   1.00
N51    N     0.66772   0.90000   0.02636   0.01267  Uiso   1.00
N52    N     0.33416   0.42396   0.14592   0.01267  Uiso   1.00
N53    N     0.41405   0.47384   0.07966   0.01267  Uiso   1.00
N54    N     0.38672   0.49940   0.13496   0.01267  Uiso   1.00
N55    N     0.03557   0.52107   0.31259   0.01267  Uiso   1.00
N56    N     0.01835   0.57926   0.38324   0.01267  Uiso   1.00
N57    N     0.01814   0.52293   0.40739   0.01267  Uiso   1.00
N58    N     0.71777   0.48942   0.06944   0.01267  Uiso   1.00
N59    N     0.59511   0.49873   0.04585   0.01267  Uiso   1.00
N60    N     0.56772   0.52636   0.10000   0.01267  Uiso   1.00
N61    N     0.75812   0.64592   0.57604   0.01267  Uiso   1.00
N62    N     0.88789   0.57966   0.52616   0.01267  Uiso   1.00
N63    N     0.88612   0.63496   0.50060   0.01267  Uiso   1.00
N64    N     0.36923   0.97893   0.18741   0.01267  Uiso   1.00
N65    N     0.48085   0.92074   0.11676   0.01267  Uiso   1.00
N66    N     0.44846   0.97707   0.09261   0.01267  Uiso   1.00
N67    N     0.77663   0.01058   0.43056   0.01267  Uiso   1.00
N68    N     0.63969   0.00127   0.45415   0.01267  Uiso   1.00
N69    N     0.69408   0.97364   0.40000   0.01267  Uiso   1.00
N70    N     0.48008   0.85408   0.92396   0.01267  Uiso   1.00
N71    N     0.49371   0.92034   0.97384   0.01267  Uiso   1.00
N72    N     0.52168   0.86504   0.99940   0.01267  Uiso   1.00
O1     O     0.30080   0.01744   0.73016   0.01267  Uiso   1.00
O2     O     0.21972   0.13215   0.67901   0.01267  Uiso   1.00
O3     O     0.39195   0.11077   0.70673   0.01267  Uiso   1.00
O4     O     0.54840   0.48256   0.76984   0.01267  Uiso   1.00
O5     O     0.53088   0.36785   0.82099   0.01267  Uiso   1.00
O6     O     0.70945   0.38923   0.79327   0.01267  Uiso   1.00
O7     O     0.03096   0.26984   0.51744   0.01267  Uiso   1.00
O8     O     0.89873   0.32099   0.63215   0.01267  Uiso   1.00
O9     O     0.09868   0.29327   0.61077   0.01267  Uiso   1.00
O10    O     0.31824   0.23016   0.98256   0.01267  Uiso   1.00
O11    O     0.35187   0.17901   0.86785   0.01267  Uiso   1.00
O12    O     0.50272   0.20673   0.88923   0.01267  Uiso   1.00
O13    O     0.69920   0.98256   0.26984   0.01267  Uiso   1.00
O14    O     0.78028   0.86785   0.32099   0.01267  Uiso   1.00
O15    O     0.60805   0.88923   0.29327   0.01267  Uiso   1.00
O16    O     0.45160   0.51744   0.23016   0.01267  Uiso   1.00
O17    O     0.46912   0.63215   0.17901   0.01267  Uiso   1.00
O18    O     0.29055   0.61077   0.20673   0.01267  Uiso   1.00
O19    O     0.96904   0.73016   0.48256   0.01267  Uiso   1.00
O20    O     0.10127   0.67901   0.36785   0.01267  Uiso   1.00
O21    O     0.90132   0.70673   0.38923   0.01267  Uiso   1.00
O22    O     0.68176   0.76984   0.01744   0.01267  Uiso   1.00
O23    O     0.64813   0.82099   0.13215   0.01267  Uiso   1.00
O24    O     0.49728   0.79327   0.11077   0.01267  Uiso   1.00
N73    N     0.73785   0.46572   0.65938   0.01267  Uiso   1.00
O25    O     0.73944   0.41261   0.67611   0.01267  Uiso   1.00
O26    O     0.76099   0.49583   0.68679   0.01267  Uiso   1.00
O27    O     0.71284   0.48623   0.61529   0.01267  Uiso   1.00
N74    N     0.37993   0.61072   0.83582   0.01267  Uiso   1.00
O28    O     0.44718   0.60513   0.85031   0.01267  Uiso   1.00
O29    O     0.38990   0.58530   0.78890   0.01267  Uiso   1.00
O30    O     0.30164   0.64086   0.86586   0.01267  Uiso   1.00
N75    N     0.60390   0.13900   0.58920   0.01267  Uiso   1.00
O31    O     0.55250   0.18710   0.62350   0.01267  Uiso   1.00
O32    O     0.58680   0.09460   0.59860   0.01267  Uiso   1.00
O33    O     0.66690   0.14380   0.54640   0.01267  Uiso   1.00
N76    N     0.36295   0.03428   0.84062   0.01267  Uiso   1.00
O34    O     0.32816   0.08739   0.82389   0.01267  Uiso   1.00
O35    O     0.44361   0.00417   0.81321   0.01267  Uiso   1.00
O36    O     0.31436   0.01377   0.88471   0.01267  Uiso   1.00
N77    N     0.32647   0.88928   0.66418   0.01267  Uiso   1.00
O37    O     0.40262   0.89487   0.64969   0.01267  Uiso   1.00
O38    O     0.26410   0.91470   0.71110   0.01267  Uiso   1.00
O39    O     0.30836   0.85914   0.63414   0.01267  Uiso   1.00
N78    N     0.83210   0.36100   0.91080   0.01267  Uiso   1.00
O40    O     0.86310   0.31290   0.87650   0.01267  Uiso   1.00
O41    O     0.78000   0.40540   0.90140   0.01267  Uiso   1.00
O42    O     0.85710   0.35620   0.95360   0.01267  Uiso   1.00
N79    N     0.39723   0.34062   0.96572   0.01267  Uiso   1.00
O43    O     0.41555   0.32389   0.91261   0.01267  Uiso   1.00
O44    O     0.44778   0.31321   0.99583   0.01267  Uiso   1.00
O45    O     0.32813   0.38471   0.98623   0.01267  Uiso   1.00
N80    N     0.21575   0.16418   0.11072   0.01267  Uiso   1.00
O46    O     0.29749   0.14969   0.10513   0.01267  Uiso   1.00
O47    O     0.17880   0.21110   0.08530   0.01267  Uiso   1.00
O48    O     0.16750   0.13414   0.14086   0.01267  Uiso   1.00
N81    N     0.19310   0.41080   0.63900   0.01267  Uiso   1.00
O49    O     0.17600   0.37650   0.68710   0.01267  Uiso   1.00
O50    O     0.18540   0.40140   0.59460   0.01267  Uiso   1.00
O51    O     0.21330   0.45360   0.64380   0.01267  Uiso   1.00
N82    N     0.20357   0.15938   0.53428   0.01267  Uiso   1.00
O52    O     0.15205   0.17611   0.58739   0.01267  Uiso   1.00
O53    O     0.25682   0.18679   0.50417   0.01267  Uiso   1.00
O54    O     0.19907   0.11529   0.51377   0.01267  Uiso   1.00
N83    N     0.99065   0.33582   0.38928   0.01267  Uiso   1.00
O55    O     0.05231   0.35031   0.39487   0.01267  Uiso   1.00
O56    O     0.97520   0.28890   0.41470   0.01267  Uiso   1.00
O57    O     0.94250   0.36586   0.35914   0.01267  Uiso   1.00
N84    N     0.74290   0.08920   0.86100   0.01267  Uiso   1.00
O58    O     0.73960   0.12350   0.81290   0.01267  Uiso   1.00
O59    O     0.68140   0.09860   0.90540   0.01267  Uiso   1.00
O60    O     0.81070   0.04640   0.85620   0.01267  Uiso   1.00
N85    N     0.26215   0.53428   0.34062   0.01267  Uiso   1.00
O61    O     0.26056   0.58739   0.32389   0.01267  Uiso   1.00
O62    O     0.23901   0.50417   0.31321   0.01267  Uiso   1.00
O63    O     0.28716   0.51377   0.38471   0.01267  Uiso   1.00
N86    N     0.62007   0.38928   0.16418   0.01267  Uiso   1.00
O64    O     0.55282   0.39487   0.14969   0.01267  Uiso   1.00
O65    O     0.61010   0.41470   0.21110   0.01267  Uiso   1.00
O66    O     0.69836   0.35914   0.13414   0.01267  Uiso   1.00
N87    N     0.39610   0.86100   0.41080   0.01267  Uiso   1.00
O67    O     0.44750   0.81290   0.37650   0.01267  Uiso   1.00
O68    O     0.41320   0.90540   0.40140   0.01267  Uiso   1.00
O69    O     0.33310   0.85620   0.45360   0.01267  Uiso   1.00
N88    N     0.63705   0.96572   0.15938   0.01267  Uiso   1.00
O70    O     0.67184   0.91261   0.17611   0.01267  Uiso   1.00
O71    O     0.55639   0.99583   0.18679   0.01267  Uiso   1.00
O72    O     0.68564   0.98623   0.11529   0.01267  Uiso   1.00
N89    N     0.67353   0.11072   0.33582   0.01267  Uiso   1.00
O73    O     0.59738   0.10513   0.35031   0.01267  Uiso   1.00
O74    O     0.73590   0.08530   0.28890   0.01267  Uiso   1.00
O75    O     0.69164   0.14086   0.36586   0.01267  Uiso   1.00
N90    N     0.16790   0.63900   0.08920   0.01267  Uiso   1.00
O76    O     0.13690   0.68710   0.12350   0.01267  Uiso   1.00
O77    O     0.22000   0.59460   0.09860   0.01267  Uiso   1.00
O78    O     0.14290   0.64380   0.04640   0.01267  Uiso   1.00
N91    N     0.60277   0.65938   0.03428   0.01267  Uiso   1.00
O79    O     0.58445   0.67611   0.08739   0.01267  Uiso   1.00
O80    O     0.55222   0.68679   0.00417   0.01267  Uiso   1.00
O81    O     0.67187   0.61529   0.01377   0.01267  Uiso   1.00
N92    N     0.78425   0.83582   0.88928   0.01267  Uiso   1.00
O82    O     0.70251   0.85031   0.89487   0.01267  Uiso   1.00
O83    O     0.82120   0.78890   0.91470   0.01267  Uiso   1.00
O84    O     0.83250   0.86586   0.85914   0.01267  Uiso   1.00
N93    N     0.80690   0.58920   0.36100   0.01267  Uiso   1.00
O85    O     0.82400   0.62350   0.31290   0.01267  Uiso   1.00
O86    O     0.81460   0.59860   0.40540   0.01267  Uiso   1.00
O87    O     0.78670   0.54640   0.35620   0.01267  Uiso   1.00
N94    N     0.79643   0.84062   0.46572   0.01267  Uiso   1.00
O88    O     0.84795   0.82389   0.41261   0.01267  Uiso   1.00
O89    O     0.74318   0.81321   0.49583   0.01267  Uiso   1.00
O90    O     0.80093   0.88471   0.48623   0.01267  Uiso   1.00
N95    N     0.00935   0.66418   0.61072   0.01267  Uiso   1.00
O91    O     0.94769   0.64969   0.60513   0.01267  Uiso   1.00
O92    O     0.02480   0.71110   0.58530   0.01267  Uiso   1.00
O93    O     0.05750   0.63414   0.64086   0.01267  Uiso   1.00
N96    N     0.25710   0.91080   0.13900   0.01267  Uiso   1.00
O94    O     0.26040   0.87650   0.18710   0.01267  Uiso   1.00
O95    O     0.31860   0.90140   0.09460   0.01267  Uiso   1.00
O96    O     0.18930   0.95360   0.14380   0.01267  Uiso   1.00
