data_image0
_cell_length_a       18.91
_cell_length_b       11.795
_cell_length_c       21.01
_cell_angle_alpha    90
_cell_angle_beta     115.2
_cell_angle_gamma    90

_symmetry_space_group_name_H-M    "P 1"
_symmetry_int_tables_number       1

loop_
  _symmetry_equiv_pos_as_xyz
  'x, y, z'

loop_
  _atom_site_label
  _atom_site_occupancy
  _atom_site_fract_x
  _atom_site_fract_y
  _atom_site_fract_z
  _atom_site_thermal_displace_type
  _atom_site_B_iso_or_equiv
  _atom_site_type_symbol
  Zn1      1.0000 0.47090  0.64940  0.37790  Biso   1.000  Zn
  O1       1.0000 0.59860  0.54860  0.34750  Biso   1.000  O
  O2       1.0000 0.58590  0.65100  0.43140  Biso   1.000  O
  O3       1.0000 0.92510  0.59200  0.68010  Biso   1.000  O
  O4       1.0000 0.81880  0.69120  0.66330  Biso   1.000  O
  O5       1.0000 0.94710  0.93290  0.28520  Biso   1.000  O
  O6       1.0000 0.94290  0.99320  0.38490  Biso   1.000  O
  O7       1.0000 0.44930  0.69090  0.28150  Biso   1.000  O
  H1       1.0000 0.39420  0.69900  0.25400  Biso   1.000  H
  N1       1.0000 0.87470  0.40690  0.45080  Biso   1.000  N
  N2       1.0000 0.94490  0.37470  0.39180  Biso   1.000  N
  N3       1.0000 0.92880  0.27300  0.41560  Biso   1.000  N
  C1       1.0000 0.91180  0.45470  0.41300  Biso   1.000  C
  C2       1.0000 0.88660  0.29300  0.45060  Biso   1.000  C
  C3       1.0000 0.82640  0.46690  0.47830  Biso   1.000  C
  C4       1.0000 0.75110  0.49380  0.43280  Biso   1.000  C
  H2       1.0000 0.72980  0.46790  0.38660  Biso   1.000  H
  C5       1.0000 0.70710  0.56070  0.45720  Biso   1.000  C
  C6       1.0000 0.74010  0.60050  0.52610  Biso   1.000  C
  H3       1.0000 0.71110  0.64680  0.54200  Biso   1.000  H
  C7       1.0000 0.81640  0.57120  0.57140  Biso   1.000  C
  C8       1.0000 0.85980  0.50260  0.54730  Biso   1.000  C
  H4       1.0000 0.91050  0.48110  0.57730  Biso   1.000  H
  C9       1.0000 0.62400  0.58900  0.40750  Biso   1.000  C
  C10      1.0000 0.85500  0.62250  0.64430  Biso   1.000  C
  C11      1.0000 0.91580  0.57520  0.39610  Biso   1.000  C
  C12      1.0000 0.92960  0.59790  0.33740  Biso   1.000  C
  H5       1.0000 0.93310  0.53850  0.30980  Biso   1.000  H
  C13      1.0000 0.93800  0.70860  0.31980  Biso   1.000  C
  H6       1.0000 0.94880  0.72310  0.28130  Biso   1.000  H
  C14      1.0000 0.93070  0.79770  0.35940  Biso   1.000  C
  C15      1.0000 0.91730  0.77440  0.41850  Biso   1.000  C
  H7       1.0000 0.91350  0.83380  0.44590  Biso   1.000  H
  C16      1.0000 0.90980  0.66420  0.43650  Biso   1.000  C
  H8       1.0000 0.90070  0.64960  0.47590  Biso   1.000  H
  C17      1.0000 0.94080  0.91760  0.34110  Biso   1.000  C
  C18      1.0000 0.85640  0.20680  0.48450  Biso   1.000  C
  H9       1.0000 0.80040  0.20900  0.46340  Biso   1.000  H
  H10      1.0000 0.87590  0.22280  0.53380  Biso   1.000  H
  H11      1.0000 0.87360  0.13280  0.47810  Biso   1.000  H
  Zn2      1.0000 0.97090  0.14940  0.37790  Biso   1.000  Zn
  O8       1.0000 0.09860  0.04860  0.34750  Biso   1.000  O
  O9       1.0000 0.08590  0.15100  0.43140  Biso   1.000  O
  O10      1.0000 0.42510  0.09200  0.68010  Biso   1.000  O
  O11      1.0000 0.31880  0.19120  0.66330  Biso   1.000  O
  O12      1.0000 0.44710  0.43290  0.28520  Biso   1.000  O
  O13      1.0000 0.44290  0.49320  0.38490  Biso   1.000  O
  O14      1.0000 0.94930  0.19090  0.28150  Biso   1.000  O
  H12      1.0000 0.89420  0.19900  0.25400  Biso   1.000  H
  N4       1.0000 0.37470  0.90690  0.45080  Biso   1.000  N
  N5       1.0000 0.44490  0.87470  0.39180  Biso   1.000  N
  N6       1.0000 0.42880  0.77300  0.41560  Biso   1.000  N
  C19      1.0000 0.41180  0.95470  0.41300  Biso   1.000  C
  C20      1.0000 0.38660  0.79300  0.45060  Biso   1.000  C
  C21      1.0000 0.32640  0.96690  0.47830  Biso   1.000  C
  C22      1.0000 0.25110  0.99380  0.43280  Biso   1.000  C
  H13      1.0000 0.22980  0.96790  0.38660  Biso   1.000  H
  C23      1.0000 0.20710  0.06070  0.45720  Biso   1.000  C
  C24      1.0000 0.24010  0.10050  0.52610  Biso   1.000  C
  H14      1.0000 0.21110  0.14680  0.54200  Biso   1.000  H
  C25      1.0000 0.31640  0.07120  0.57140  Biso   1.000  C
  C26      1.0000 0.35980  0.00260  0.54730  Biso   1.000  C
  H15      1.0000 0.41050  0.98110  0.57730  Biso   1.000  H
  C27      1.0000 0.12400  0.08900  0.40750  Biso   1.000  C
  C28      1.0000 0.35500  0.12250  0.64430  Biso   1.000  C
  C29      1.0000 0.41580  0.07520  0.39610  Biso   1.000  C
  C30      1.0000 0.42960  0.09790  0.33740  Biso   1.000  C
  H16      1.0000 0.43310  0.03850  0.30980  Biso   1.000  H
  C31      1.0000 0.43800  0.20860  0.31980  Biso   1.000  C
  H17      1.0000 0.44880  0.22310  0.28130  Biso   1.000  H
  C32      1.0000 0.43070  0.29770  0.35940  Biso   1.000  C
  C33      1.0000 0.41730  0.27440  0.41850  Biso   1.000  C
  H18      1.0000 0.41350  0.33380  0.44590  Biso   1.000  H
  C34      1.0000 0.40980  0.16420  0.43650  Biso   1.000  C
  H19      1.0000 0.40070  0.14960  0.47590  Biso   1.000  H
  C35      1.0000 0.44080  0.41760  0.34110  Biso   1.000  C
  C36      1.0000 0.35640  0.70680  0.48450  Biso   1.000  C
  H20      1.0000 0.30040  0.70900  0.46340  Biso   1.000  H
  H21      1.0000 0.37590  0.72280  0.53380  Biso   1.000  H
  H22      1.0000 0.37360  0.63280  0.47810  Biso   1.000  H
  Zn3      1.0000 0.52910  0.64940  0.12210  Biso   1.000  Zn
  O15      1.0000 0.40140  0.54860  0.15250  Biso   1.000  O
  O16      1.0000 0.41410  0.65100  0.06860  Biso   1.000  O
  O17      1.0000 0.07490  0.59200  0.81990  Biso   1.000  O
  O18      1.0000 0.18120  0.69120  0.83670  Biso   1.000  O
  O19      1.0000 0.05290  0.93290  0.21480  Biso   1.000  O
  O20      1.0000 0.05710  0.99320  0.11510  Biso   1.000  O
  O21      1.0000 0.55070  0.69090  0.21850  Biso   1.000  O
  H23      1.0000 0.60580  0.69900  0.24600  Biso   1.000  H
  N7       1.0000 0.12530  0.40690  0.04920  Biso   1.000  N
  N8       1.0000 0.05510  0.37470  0.10820  Biso   1.000  N
  N9       1.0000 0.07120  0.27300  0.08440  Biso   1.000  N
  C37      1.0000 0.08820  0.45470  0.08700  Biso   1.000  C
  C38      1.0000 0.11340  0.29300  0.04940  Biso   1.000  C
  C39      1.0000 0.17360  0.46690  0.02170  Biso   1.000  C
  C40      1.0000 0.24890  0.49380  0.06720  Biso   1.000  C
  H24      1.0000 0.27020  0.46790  0.11340  Biso   1.000  H
  C41      1.0000 0.29290  0.56070  0.04280  Biso   1.000  C
  C42      1.0000 0.25990  0.60050  0.97390  Biso   1.000  C
  H25      1.0000 0.28890  0.64680  0.95800  Biso   1.000  H
  C43      1.0000 0.18360  0.57120  0.92860  Biso   1.000  C
  C44      1.0000 0.14020  0.50260  0.95270  Biso   1.000  C
  H26      1.0000 0.08950  0.48110  0.92270  Biso   1.000  H
  C45      1.0000 0.37600  0.58900  0.09250  Biso   1.000  C
  C46      1.0000 0.14500  0.62250  0.85570  Biso   1.000  C
  C47      1.0000 0.08420  0.57520  0.10390  Biso   1.000  C
  C48      1.0000 0.07040  0.59790  0.16260  Biso   1.000  C
  H27      1.0000 0.06690  0.53850  0.19020  Biso   1.000  H
  C49      1.0000 0.06200  0.70860  0.18020  Biso   1.000  C
  H28      1.0000 0.05120  0.72310  0.21870  Biso   1.000  H
  C50      1.0000 0.06930  0.79770  0.14060  Biso   1.000  C
  C51      1.0000 0.08270  0.77440  0.08150  Biso   1.000  C
  H29      1.0000 0.08650  0.83380  0.05410  Biso   1.000  H
  C52      1.0000 0.09020  0.66420  0.06350  Biso   1.000  C
  H30      1.0000 0.09930  0.64960  0.02410  Biso   1.000  H
  C53      1.0000 0.05920  0.91760  0.15890  Biso   1.000  C
  C54      1.0000 0.14360  0.20680  0.01550  Biso   1.000  C
  H31      1.0000 0.19960  0.20900  0.03660  Biso   1.000  H
  H32      1.0000 0.12410  0.22280  0.96620  Biso   1.000  H
  H33      1.0000 0.12640  0.13280  0.02190  Biso   1.000  H
  Zn4      1.0000 0.02910  0.14940  0.12210  Biso   1.000  Zn
  O22      1.0000 0.90140  0.04860  0.15250  Biso   1.000  O
  O23      1.0000 0.91410  0.15100  0.06860  Biso   1.000  O
  O24      1.0000 0.57490  0.09200  0.81990  Biso   1.000  O
  O25      1.0000 0.68120  0.19120  0.83670  Biso   1.000  O
  O26      1.0000 0.55290  0.43290  0.21480  Biso   1.000  O
  O27      1.0000 0.55710  0.49320  0.11510  Biso   1.000  O
  O28      1.0000 0.05070  0.19090  0.21850  Biso   1.000  O
  H34      1.0000 0.10580  0.19900  0.24600  Biso   1.000  H
  N10      1.0000 0.62530  0.90690  0.04920  Biso   1.000  N
  N11      1.0000 0.55510  0.87470  0.10820  Biso   1.000  N
  N12      1.0000 0.57120  0.77300  0.08440  Biso   1.000  N
  C55      1.0000 0.58820  0.95470  0.08700  Biso   1.000  C
  C56      1.0000 0.61340  0.79300  0.04940  Biso   1.000  C
  C57      1.0000 0.67360  0.96690  0.02170  Biso   1.000  C
  C58      1.0000 0.74890  0.99380  0.06720  Biso   1.000  C
  H35      1.0000 0.77020  0.96790  0.11340  Biso   1.000  H
  C59      1.0000 0.79290  0.06070  0.04280  Biso   1.000  C
  C60      1.0000 0.75990  0.10050  0.97390  Biso   1.000  C
  H36      1.0000 0.78890  0.14680  0.95800  Biso   1.000  H
  C61      1.0000 0.68360  0.07120  0.92860  Biso   1.000  C
  C62      1.0000 0.64020  0.00260  0.95270  Biso   1.000  C
  H37      1.0000 0.58950  0.98110  0.92270  Biso   1.000  H
  C63      1.0000 0.87600  0.08900  0.09250  Biso   1.000  C
  C64      1.0000 0.64500  0.12250  0.85570  Biso   1.000  C
  C65      1.0000 0.58420  0.07520  0.10390  Biso   1.000  C
  C66      1.0000 0.57040  0.09790  0.16260  Biso   1.000  C
  H38      1.0000 0.56690  0.03850  0.19020  Biso   1.000  H
  C67      1.0000 0.56200  0.20860  0.18020  Biso   1.000  C
  H39      1.0000 0.55120  0.22310  0.21870  Biso   1.000  H
  C68      1.0000 0.56930  0.29770  0.14060  Biso   1.000  C
  C69      1.0000 0.58270  0.27440  0.08150  Biso   1.000  C
  H40      1.0000 0.58650  0.33380  0.05410  Biso   1.000  H
  C70      1.0000 0.59020  0.16420  0.06350  Biso   1.000  C
  H41      1.0000 0.59930  0.14960  0.02410  Biso   1.000  H
  C71      1.0000 0.55920  0.41760  0.15890  Biso   1.000  C
  C72      1.0000 0.64360  0.70680  0.01550  Biso   1.000  C
  H42      1.0000 0.69960  0.70900  0.03660  Biso   1.000  H
  H43      1.0000 0.62410  0.72280  0.96620  Biso   1.000  H
  H44      1.0000 0.62640  0.63280  0.02190  Biso   1.000  H
  Zn5      1.0000 0.52910  0.35060  0.62210  Biso   1.000  Zn
  O29      1.0000 0.40140  0.45140  0.65250  Biso   1.000  O
  O30      1.0000 0.41410  0.34900  0.56860  Biso   1.000  O
  O31      1.0000 0.07490  0.40800  0.31990  Biso   1.000  O
  O32      1.0000 0.18120  0.30880  0.33670  Biso   1.000  O
  O33      1.0000 0.05290  0.06710  0.71480  Biso   1.000  O
  O34      1.0000 0.05710  0.00680  0.61510  Biso   1.000  O
  O35      1.0000 0.55070  0.30910  0.71850  Biso   1.000  O
  H45      1.0000 0.60580  0.30100  0.74600  Biso   1.000  H
  N13      1.0000 0.12530  0.59310  0.54920  Biso   1.000  N
  N14      1.0000 0.05510  0.62530  0.60820  Biso   1.000  N
  N15      1.0000 0.07120  0.72700  0.58440  Biso   1.000  N
  C73      1.0000 0.08820  0.54530  0.58700  Biso   1.000  C
  C74      1.0000 0.11340  0.70700  0.54940  Biso   1.000  C
  C75      1.0000 0.17360  0.53310  0.52170  Biso   1.000  C
  C76      1.0000 0.24890  0.50620  0.56720  Biso   1.000  C
  H46      1.0000 0.27020  0.53210  0.61340  Biso   1.000  H
  C77      1.0000 0.29290  0.43930  0.54280  Biso   1.000  C
  C78      1.0000 0.25990  0.39950  0.47390  Biso   1.000  C
  H47      1.0000 0.28890  0.35320  0.45800  Biso   1.000  H
  C79      1.0000 0.18360  0.42880  0.42860  Biso   1.000  C
  C80      1.0000 0.14020  0.49740  0.45270  Biso   1.000  C
  H48      1.0000 0.08950  0.51890  0.42270  Biso   1.000  H
  C81      1.0000 0.37600  0.41100  0.59250  Biso   1.000  C
  C82      1.0000 0.14500  0.37750  0.35570  Biso   1.000  C
  C83      1.0000 0.08420  0.42480  0.60390  Biso   1.000  C
  C84      1.0000 0.07040  0.40210  0.66260  Biso   1.000  C
  H49      1.0000 0.06690  0.46150  0.69020  Biso   1.000  H
  C85      1.0000 0.06200  0.29140  0.68020  Biso   1.000  C
  H50      1.0000 0.05120  0.27690  0.71870  Biso   1.000  H
  C86      1.0000 0.06930  0.20230  0.64060  Biso   1.000  C
  C87      1.0000 0.08270  0.22560  0.58150  Biso   1.000  C
  H51      1.0000 0.08650  0.16620  0.55410  Biso   1.000  H
  C88      1.0000 0.09020  0.33580  0.56350  Biso   1.000  C
  H52      1.0000 0.09930  0.35040  0.52410  Biso   1.000  H
  C89      1.0000 0.05920  0.08240  0.65890  Biso   1.000  C
  C90      1.0000 0.14360  0.79320  0.51550  Biso   1.000  C
  H53      1.0000 0.19960  0.79100  0.53660  Biso   1.000  H
  H54      1.0000 0.12410  0.77720  0.46620  Biso   1.000  H
  H55      1.0000 0.12640  0.86720  0.52190  Biso   1.000  H
  Zn6      1.0000 0.02910  0.85060  0.62210  Biso   1.000  Zn
  O36      1.0000 0.90140  0.95140  0.65250  Biso   1.000  O
  O37      1.0000 0.91410  0.84900  0.56860  Biso   1.000  O
  O38      1.0000 0.57490  0.90800  0.31990  Biso   1.000  O
  O39      1.0000 0.68120  0.80880  0.33670  Biso   1.000  O
  O40      1.0000 0.55290  0.56710  0.71480  Biso   1.000  O
  O41      1.0000 0.55710  0.50680  0.61510  Biso   1.000  O
  O42      1.0000 0.05070  0.80910  0.71850  Biso   1.000  O
  H56      1.0000 0.10580  0.80100  0.74600  Biso   1.000  H
  N16      1.0000 0.62530  0.09310  0.54920  Biso   1.000  N
  N17      1.0000 0.55510  0.12530  0.60820  Biso   1.000  N
  N18      1.0000 0.57120  0.22700  0.58440  Biso   1.000  N
  C91      1.0000 0.58820  0.04530  0.58700  Biso   1.000  C
  C92      1.0000 0.61340  0.20700  0.54940  Biso   1.000  C
  C93      1.0000 0.67360  0.03310  0.52170  Biso   1.000  C
  C94      1.0000 0.74890  0.00620  0.56720  Biso   1.000  C
  H57      1.0000 0.77020  0.03210  0.61340  Biso   1.000  H
  C95      1.0000 0.79290  0.93930  0.54280  Biso   1.000  C
  C96      1.0000 0.75990  0.89950  0.47390  Biso   1.000  C
  H58      1.0000 0.78890  0.85320  0.45800  Biso   1.000  H
  C97      1.0000 0.68360  0.92880  0.42860  Biso   1.000  C
  C98      1.0000 0.64020  0.99740  0.45270  Biso   1.000  C
  H59      1.0000 0.58950  0.01890  0.42270  Biso   1.000  H
  C99      1.0000 0.87600  0.91100  0.59250  Biso   1.000  C
  C100     1.0000 0.64500  0.87750  0.35570  Biso   1.000  C
  C101     1.0000 0.58420  0.92480  0.60390  Biso   1.000  C
  C102     1.0000 0.57040  0.90210  0.66260  Biso   1.000  C
  H60      1.0000 0.56690  0.96150  0.69020  Biso   1.000  H
  C103     1.0000 0.56200  0.79140  0.68020  Biso   1.000  C
  H61      1.0000 0.55120  0.77690  0.71870  Biso   1.000  H
  C104     1.0000 0.56930  0.70230  0.64060  Biso   1.000  C
  C105     1.0000 0.58270  0.72560  0.58150  Biso   1.000  C
  H62      1.0000 0.58650  0.66620  0.55410  Biso   1.000  H
  C106     1.0000 0.59020  0.83580  0.56350  Biso   1.000  C
  H63      1.0000 0.59930  0.85040  0.52410  Biso   1.000  H
  C107     1.0000 0.55920  0.58240  0.65890  Biso   1.000  C
  C108     1.0000 0.64360  0.29320  0.51550  Biso   1.000  C
  H64      1.0000 0.69960  0.29100  0.53660  Biso   1.000  H
  H65      1.0000 0.62410  0.27720  0.46620  Biso   1.000  H
  H66      1.0000 0.62640  0.36720  0.52190  Biso   1.000  H
  Zn7      1.0000 0.47090  0.35060  0.87790  Biso   1.000  Zn
  O43      1.0000 0.59860  0.45140  0.84750  Biso   1.000  O
  O44      1.0000 0.58590  0.34900  0.93140  Biso   1.000  O
  O45      1.0000 0.92510  0.40800  0.18010  Biso   1.000  O
  O46      1.0000 0.81880  0.30880  0.16330  Biso   1.000  O
  O47      1.0000 0.94710  0.06710  0.78520  Biso   1.000  O
  O48      1.0000 0.94290  0.00680  0.88490  Biso   1.000  O
  O49      1.0000 0.44930  0.30910  0.78150  Biso   1.000  O
  H67      1.0000 0.39420  0.30100  0.75400  Biso   1.000  H
  N19      1.0000 0.87470  0.59310  0.95080  Biso   1.000  N
  N20      1.0000 0.94490  0.62530  0.89180  Biso   1.000  N
  N21      1.0000 0.92880  0.72700  0.91560  Biso   1.000  N
  C109     1.0000 0.91180  0.54530  0.91300  Biso   1.000  C
  C110     1.0000 0.88660  0.70700  0.95060  Biso   1.000  C
  C111     1.0000 0.82640  0.53310  0.97830  Biso   1.000  C
  C112     1.0000 0.75110  0.50620  0.93280  Biso   1.000  C
  H68      1.0000 0.72980  0.53210  0.88660  Biso   1.000  H
  C113     1.0000 0.70710  0.43930  0.95720  Biso   1.000  C
  C114     1.0000 0.74010  0.39950  0.02610  Biso   1.000  C
  H69      1.0000 0.71110  0.35320  0.04200  Biso   1.000  H
  C115     1.0000 0.81640  0.42880  0.07140  Biso   1.000  C
  C116     1.0000 0.85980  0.49740  0.04730  Biso   1.000  C
  H70      1.0000 0.91050  0.51890  0.07730  Biso   1.000  H
  C117     1.0000 0.62400  0.41100  0.90750  Biso   1.000  C
  C118     1.0000 0.85500  0.37750  0.14430  Biso   1.000  C
  C119     1.0000 0.91580  0.42480  0.89610  Biso   1.000  C
  C120     1.0000 0.92960  0.40210  0.83740  Biso   1.000  C
  H71      1.0000 0.93310  0.46150  0.80980  Biso   1.000  H
  C121     1.0000 0.93800  0.29140  0.81980  Biso   1.000  C
  H72      1.0000 0.94880  0.27690  0.78130  Biso   1.000  H
  C122     1.0000 0.93070  0.20230  0.85940  Biso   1.000  C
  C123     1.0000 0.91730  0.22560  0.91850  Biso   1.000  C
  H73      1.0000 0.91350  0.16620  0.94590  Biso   1.000  H
  C124     1.0000 0.90980  0.33580  0.93650  Biso   1.000  C
  H74      1.0000 0.90070  0.35040  0.97590  Biso   1.000  H
  C125     1.0000 0.94080  0.08240  0.84110  Biso   1.000  C
  C126     1.0000 0.85640  0.79320  0.98450  Biso   1.000  C
  H75      1.0000 0.80040  0.79100  0.96340  Biso   1.000  H
  H76      1.0000 0.87590  0.77720  0.03380  Biso   1.000  H
  H77      1.0000 0.87360  0.86720  0.97810  Biso   1.000  H
  Zn8      1.0000 0.97090  0.85060  0.87790  Biso   1.000  Zn
  O50      1.0000 0.09860  0.95140  0.84750  Biso   1.000  O
  O51      1.0000 0.08590  0.84900  0.93140  Biso   1.000  O
  O52      1.0000 0.42510  0.90800  0.18010  Biso   1.000  O
  O53      1.0000 0.31880  0.80880  0.16330  Biso   1.000  O
  O54      1.0000 0.44710  0.56710  0.78520  Biso   1.000  O
  O55      1.0000 0.44290  0.50680  0.88490  Biso   1.000  O
  O56      1.0000 0.94930  0.80910  0.78150  Biso   1.000  O
  H78      1.0000 0.89420  0.80100  0.75400  Biso   1.000  H
  N22      1.0000 0.37470  0.09310  0.95080  Biso   1.000  N
  N23      1.0000 0.44490  0.12530  0.89180  Biso   1.000  N
  N24      1.0000 0.42880  0.22700  0.91560  Biso   1.000  N
  C127     1.0000 0.41180  0.04530  0.91300  Biso   1.000  C
  C128     1.0000 0.38660  0.20700  0.95060  Biso   1.000  C
  C129     1.0000 0.32640  0.03310  0.97830  Biso   1.000  C
  C130     1.0000 0.25110  0.00620  0.93280  Biso   1.000  C
  H79      1.0000 0.22980  0.03210  0.88660  Biso   1.000  H
  C131     1.0000 0.20710  0.93930  0.95720  Biso   1.000  C
  C132     1.0000 0.24010  0.89950  0.02610  Biso   1.000  C
  H80      1.0000 0.21110  0.85320  0.04200  Biso   1.000  H
  C133     1.0000 0.31640  0.92880  0.07140  Biso   1.000  C
  C134     1.0000 0.35980  0.99740  0.04730  Biso   1.000  C
  H81      1.0000 0.41050  0.01890  0.07730  Biso   1.000  H
  C135     1.0000 0.12400  0.91100  0.90750  Biso   1.000  C
  C136     1.0000 0.35500  0.87750  0.14430  Biso   1.000  C
  C137     1.0000 0.41580  0.92480  0.89610  Biso   1.000  C
  C138     1.0000 0.42960  0.90210  0.83740  Biso   1.000  C
  H82      1.0000 0.43310  0.96150  0.80980  Biso   1.000  H
  C139     1.0000 0.43800  0.79140  0.81980  Biso   1.000  C
  H83      1.0000 0.44880  0.77690  0.78130  Biso   1.000  H
  C140     1.0000 0.43070  0.70230  0.85940  Biso   1.000  C
  C141     1.0000 0.41730  0.72560  0.91850  Biso   1.000  C
  H84      1.0000 0.41350  0.66620  0.94590  Biso   1.000  H
  C142     1.0000 0.40980  0.83580  0.93650  Biso   1.000  C
  H85      1.0000 0.40070  0.85040  0.97590  Biso   1.000  H
  C143     1.0000 0.44080  0.58240  0.84110  Biso   1.000  C
  C144     1.0000 0.35640  0.29320  0.98450  Biso   1.000  C
  H86      1.0000 0.30040  0.29100  0.96340  Biso   1.000  H
  H87      1.0000 0.37590  0.27720  0.03380  Biso   1.000  H
  H88      1.0000 0.37360  0.36720  0.97810  Biso   1.000  H
  Zn9      1.0000 0.50000  0.55270  0.25000  Biso   1.000  Zn
  Zn10     1.0000 0.50000  0.81350  0.25000  Biso   1.000  Zn
  Zn11     1.0000 0.00000  0.05270  0.25000  Biso   1.000  Zn
  Zn12     1.0000 0.00000  0.31350  0.25000  Biso   1.000  Zn
  Zn13     1.0000 0.50000  0.44730  0.75000  Biso   1.000  Zn
  Zn14     1.0000 0.50000  0.18650  0.75000  Biso   1.000  Zn
  Zn15     1.0000 0.00000  0.94730  0.75000  Biso   1.000  Zn
  Zn16     1.0000 0.00000  0.68650  0.75000  Biso   1.000  Zn
