data_image0
_cell_length_a       9.489
_cell_length_b       12.76
_cell_length_c       13.117
_cell_angle_alpha    75.88
_cell_angle_beta     72.93
_cell_angle_gamma    69.65

_symmetry_space_group_name_H-M    "P 1"
_symmetry_int_tables_number       1

loop_
  _symmetry_equiv_pos_as_xyz
  'x, y, z'

loop_
  _atom_site_label
  _atom_site_occupancy
  _atom_site_fract_x
  _atom_site_fract_y
  _atom_site_fract_z
  _atom_site_thermal_displace_type
  _atom_site_B_iso_or_equiv
  _atom_site_type_symbol
  Cu1      1.0000 0.74626  0.46285  0.05426  Biso   1.000  Cu
  N1       1.0000 0.34160  0.52410  0.77730  Biso   1.000  N
  C1       1.0000 0.25410  0.56280  0.70570  Biso   1.000  C
  H1       1.0000 0.14910  0.59760  0.72960  Biso   1.000  H
  C2       1.0000 0.31190  0.55390  0.59690  Biso   1.000  C
  H2       1.0000 0.24580  0.58210  0.54980  Biso   1.000  H
  C3       1.0000 0.46550  0.50390  0.55890  Biso   1.000  C
  C4       1.0000 0.55540  0.46430  0.63170  Biso   1.000  C
  H3       1.0000 0.66100  0.42990  0.60970  Biso   1.000  H
  C5       1.0000 0.48900  0.47540  0.73870  Biso   1.000  C
  H4       1.0000 0.55300  0.44630  0.78710  Biso   1.000  H
  C6       1.0000 0.96450  0.05730  0.01480  Biso   1.000  C
  C7       1.0000 0.03590  0.10580  0.05940  Biso   1.000  C
  H5       1.0000 0.86940  0.93530  0.92360  Biso   1.000  H
  C8       1.0000 0.96580  0.21660  0.07880  Biso   1.000  C
  H6       1.0000 0.98300  0.75220  0.89160  Biso   1.000  H
  N2       1.0000 0.83000  0.28100  0.05790  Biso   1.000  N
  C9       1.0000 0.23870  0.76660  0.98480  Biso   1.000  C
  H7       1.0000 0.33460  0.72440  0.99930  Biso   1.000  H
  C10      1.0000 0.17540  0.87570  0.00880  Biso   1.000  C
  H8       1.0000 0.22710  0.90390  0.04080  Biso   1.000  H
  C11      1.0000 0.55650  0.49690  0.00910  Biso   1.000  C
  N3       1.0000 0.06120  0.50370  0.98760  Biso   1.000  N
  Cu2      1.0000 0.25374  0.53715  0.94574  Biso   1.000  Cu
  N4       1.0000 0.65840  0.47590  0.22270  Biso   1.000  N
  C12      1.0000 0.74590  0.43720  0.29430  Biso   1.000  C
  H9       1.0000 0.85090  0.40240  0.27040  Biso   1.000  H
  C13      1.0000 0.68810  0.44610  0.40310  Biso   1.000  C
  H10      1.0000 0.75420  0.41790  0.45020  Biso   1.000  H
  C14      1.0000 0.53450  0.49610  0.44110  Biso   1.000  C
  C15      1.0000 0.44460  0.53570  0.36830  Biso   1.000  C
  H11      1.0000 0.33900  0.57010  0.39030  Biso   1.000  H
  C16      1.0000 0.51100  0.52460  0.26130  Biso   1.000  C
  H12      1.0000 0.44700  0.55370  0.21290  Biso   1.000  H
  C17      1.0000 0.03550  0.94270  0.98520  Biso   1.000  C
  C18      1.0000 0.96410  0.89420  0.94060  Biso   1.000  C
  H13      1.0000 0.13060  0.06470  0.07640  Biso   1.000  H
  C19      1.0000 0.03420  0.78340  0.92120  Biso   1.000  C
  H14      1.0000 0.01700  0.24780  0.10840  Biso   1.000  H
  N5       1.0000 0.17000  0.71900  0.94210  Biso   1.000  N
  C20      1.0000 0.76130  0.23340  0.01520  Biso   1.000  C
  H15      1.0000 0.66540  0.27560  0.00070  Biso   1.000  H
  C21      1.0000 0.82460  0.12430  0.99120  Biso   1.000  C
  H16      1.0000 0.77290  0.09610  0.95920  Biso   1.000  H
  C22      1.0000 0.44350  0.50310  0.99090  Biso   1.000  C
  N6       1.0000 0.93880  0.49630  0.01240  Biso   1.000  N
