data_image0
_cell_length_a       15.0373
_cell_length_b       15.0373
_cell_length_c       18.1026
_cell_angle_alpha    94.4723
_cell_angle_beta     94.4723
_cell_angle_gamma    90.0859

_symmetry_space_group_name_H-M    P 1
_symmetry_int_tables_number       1

loop_
  _symmetry_equiv_pos_as_xyz
  'x, y, z'

loop_
  _atom_site_label
  _atom_site_occupancy
  _atom_site_fract_x
  _atom_site_fract_y
  _atom_site_fract_z
  _atom_site_thermal_displace_type
  _atom_site_B_iso_or_equiv
  _atom_site_type_symbol
  Cu1      1.0000 0.40623  0.23047  0.47426  Biso   1.000  Cu
  Cu2      1.0000 0.19631  0.37457  0.51048  Biso   1.000  Cu
  Cu3      1.0000 0.28100  0.19510  0.64125  Biso   1.000  Cu
  Cu4      1.0000 0.76953  0.59377  0.02574  Biso   1.000  Cu
  Cu5      1.0000 0.62543  0.80369  0.98952  Biso   1.000  Cu
  Cu6      1.0000 0.80490  0.71900  0.85875  Biso   1.000  Cu
  Mo1      1.0000 0.23281  0.19769  0.49590  Biso   1.000  Mo
  Mo2      1.0000 0.80231  0.76719  0.00410  Biso   1.000  Mo
  H1       1.0000 0.56640  0.11180  0.43230  Biso   1.000  H
  H2       1.0000 0.61550  0.03350  0.33010  Biso   1.000  H
  H3       1.0000 0.42070  0.14530  0.20630  Biso   1.000  H
  H4       1.0000 0.37510  0.21650  0.31230  Biso   1.000  H
  H5       1.0000 0.71670  0.94590  0.10530  Biso   1.000  H
  H6       1.0000 0.68360  0.03400  0.20810  Biso   1.000  H
  H7       1.0000 0.42630  0.00450  0.13950  Biso   1.000  H
  H8       1.0000 0.46540  0.91380  0.04110  Biso   1.000  H
  H9       1.0000 0.62000  0.67000  0.80740  Biso   1.000  H
  H10      1.0000 0.53930  0.57270  0.72530  Biso   1.000  H
  H11      1.0000 0.76780  0.47840  0.65380  Biso   1.000  H
  H12      1.0000 0.84180  0.58180  0.73550  Biso   1.000  H
  H13      1.0000 0.40530  0.41550  0.53250  Biso   1.000  H
  H14      1.0000 0.48290  0.52030  0.60870  Biso   1.000  H
  H15      1.0000 0.68410  0.35050  0.62170  Biso   1.000  H
  H16      1.0000 0.60230  0.25270  0.54200  Biso   1.000  H
  H17      1.0000 0.84270  0.80170  0.71140  Biso   1.000  H
  H18      1.0000 0.93710  0.89990  0.66900  Biso   1.000  H
  H19      1.0000 0.08010  0.90450  0.86480  Biso   1.000  H
  H20      1.0000 0.98440  0.80120  0.89980  Biso   1.000  H
  H21      1.0000 0.88820  0.43360  0.06770  Biso   1.000  H
  H22      1.0000 0.96650  0.38450  0.16990  Biso   1.000  H
  H23      1.0000 0.85470  0.57930  0.29370  Biso   1.000  H
  H24      1.0000 0.78350  0.62490  0.18770  Biso   1.000  H
  H25      1.0000 0.05410  0.28330  0.39470  Biso   1.000  H
  H26      1.0000 0.96600  0.31640  0.29190  Biso   1.000  H
  H27      1.0000 0.99550  0.57370  0.36050  Biso   1.000  H
  H28      1.0000 0.08620  0.53460  0.45890  Biso   1.000  H
  H29      1.0000 0.33000  0.38000  0.69260  Biso   1.000  H
  H30      1.0000 0.42730  0.46070  0.77470  Biso   1.000  H
  H31      1.0000 0.52160  0.23220  0.84620  Biso   1.000  H
  H32      1.0000 0.41820  0.15820  0.76450  Biso   1.000  H
  H33      1.0000 0.58450  0.59470  0.96750  Biso   1.000  H
  H34      1.0000 0.47970  0.51710  0.89130  Biso   1.000  H
  H35      1.0000 0.64950  0.31590  0.87830  Biso   1.000  H
  H36      1.0000 0.74730  0.39770  0.95800  Biso   1.000  H
  H37      1.0000 0.19830  0.15730  0.78860  Biso   1.000  H
  H38      1.0000 0.10010  0.06290  0.83100  Biso   1.000  H
  H39      1.0000 0.09550  0.91990  0.63520  Biso   1.000  H
  H40      1.0000 0.19880  0.01560  0.60020  Biso   1.000  H
  C1       1.0000 0.53610  0.11770  0.38620  Biso   1.000  C
  C2       1.0000 0.56670  0.07090  0.32470  Biso   1.000  C
  C3       1.0000 0.52450  0.07970  0.25500  Biso   1.000  C
  C4       1.0000 0.45130  0.13650  0.25180  Biso   1.000  C
  C5       1.0000 0.42450  0.17950  0.31580  Biso   1.000  C
  C6       1.0000 0.65710  0.95630  0.11320  Biso   1.000  C
  C7       1.0000 0.63770  0.00990  0.17510  Biso   1.000  C
  C8       1.0000 0.55090  0.02750  0.18780  Biso   1.000  C
  C9       1.0000 0.48610  0.99170  0.13460  Biso   1.000  C
  C10      1.0000 0.51010  0.93790  0.07530  Biso   1.000  C
  C11      1.0000 0.65060  0.63120  0.77590  Biso   1.000  C
  C12      1.0000 0.60120  0.57220  0.72690  Biso   1.000  C
  C13      1.0000 0.64390  0.51190  0.68010  Biso   1.000  C
  C14      1.0000 0.73580  0.51680  0.68440  Biso   1.000  C
  C15      1.0000 0.77990  0.57930  0.73420  Biso   1.000  C
  C16      1.0000 0.46250  0.40130  0.55130  Biso   1.000  C
  C17      1.0000 0.50850  0.46510  0.59760  Biso   1.000  C
  C18      1.0000 0.59300  0.44660  0.62760  Biso   1.000  C
  C19      1.0000 0.62650  0.36570  0.60470  Biso   1.000  C
  C20      1.0000 0.57630  0.30650  0.55710  Biso   1.000  C
  C21      1.0000 0.89170  0.82210  0.74260  Biso   1.000  C
  C22      1.0000 0.94760  0.88160  0.71680  Biso   1.000  C
  C23      1.0000 0.02100  0.91500  0.76280  Biso   1.000  C
  C24      1.0000 0.03250  0.88390  0.83200  Biso   1.000  C
  C25      1.0000 0.97400  0.82240  0.85310  Biso   1.000  C
  C26      1.0000 0.88230  0.46390  0.11380  Biso   1.000  C
  C27      1.0000 0.92910  0.43330  0.17530  Biso   1.000  C
  C28      1.0000 0.92030  0.47550  0.24500  Biso   1.000  C
  C29      1.0000 0.86350  0.54870  0.24820  Biso   1.000  C
  C30      1.0000 0.82050  0.57550  0.18420  Biso   1.000  C
  C31      1.0000 0.04370  0.34290  0.38680  Biso   1.000  C
  C32      1.0000 0.99010  0.36230  0.32490  Biso   1.000  C
  C33      1.0000 0.97250  0.44910  0.31220  Biso   1.000  C
  C34      1.0000 0.00830  0.51390  0.36540  Biso   1.000  C
  C35      1.0000 0.06210  0.48990  0.42470  Biso   1.000  C
  C36      1.0000 0.36880  0.34940  0.72410  Biso   1.000  C
  C37      1.0000 0.42780  0.39880  0.77310  Biso   1.000  C
  C38      1.0000 0.48810  0.35610  0.81990  Biso   1.000  C
  C39      1.0000 0.48320  0.26420  0.81560  Biso   1.000  C
  C40      1.0000 0.42070  0.22010  0.76580  Biso   1.000  C
  C41      1.0000 0.59870  0.53750  0.94870  Biso   1.000  C
  C42      1.0000 0.53490  0.49150  0.90240  Biso   1.000  C
  C43      1.0000 0.55340  0.40700  0.87240  Biso   1.000  C
  C44      1.0000 0.63430  0.37350  0.89530  Biso   1.000  C
  C45      1.0000 0.69350  0.42370  0.94290  Biso   1.000  C
  C46      1.0000 0.17790  0.10830  0.75740  Biso   1.000  C
  C47      1.0000 0.11840  0.05240  0.78320  Biso   1.000  C
  C48      1.0000 0.08500  0.97900  0.73720  Biso   1.000  C
  C49      1.0000 0.11610  0.96750  0.66800  Biso   1.000  C
  C50      1.0000 0.17760  0.02600  0.64690  Biso   1.000  C
  S1       1.0000 0.28191  0.30125  0.42505  Biso   1.000  S
  S2       1.0000 0.35375  0.12719  0.54642  Biso   1.000  S
  S3       1.0000 0.16283  0.27039  0.58904  Biso   1.000  S
  S4       1.0000 0.69875  0.71809  0.07495  Biso   1.000  S
  S5       1.0000 0.87281  0.64625  0.95358  Biso   1.000  S
  S6       1.0000 0.72961  0.83717  0.91096  Biso   1.000  S
  I1       1.0000 0.24669  0.52759  0.57014  Biso   1.000  I
  I2       1.0000 0.47241  0.75331  0.92986  Biso   1.000  I
  N1       1.0000 0.46560  0.17080  0.38300  Biso   1.000  N
  N2       1.0000 0.59520  0.91840  0.06400  Biso   1.000  N
  N3       1.0000 0.73900  0.63620  0.78080  Biso   1.000  N
  N4       1.0000 0.49290  0.32110  0.53130  Biso   1.000  N
  N5       1.0000 0.90240  0.79120  0.80970  Biso   1.000  N
  N6       1.0000 0.82920  0.53440  0.11700  Biso   1.000  N
  N7       1.0000 0.08160  0.40480  0.43600  Biso   1.000  N
  N8       1.0000 0.36380  0.26100  0.71920  Biso   1.000  N
  N9       1.0000 0.67890  0.50710  0.96870  Biso   1.000  N
  N10      1.0000 0.20880  0.09760  0.69030  Biso   1.000  N
  O1       1.0000 0.16150  0.12390  0.44510  Biso   1.000  O
  O2       1.0000 0.87610  0.83850  0.05490  Biso   1.000  O
  Cu7      1.0000 0.59377  0.76953  0.52574  Biso   1.000  Cu
  Cu8      1.0000 0.80369  0.62543  0.48952  Biso   1.000  Cu
  Cu9      1.0000 0.71900  0.80490  0.35875  Biso   1.000  Cu
  Cu10     1.0000 0.23047  0.40623  0.97426  Biso   1.000  Cu
  Cu11     1.0000 0.37457  0.19631  0.01048  Biso   1.000  Cu
  Cu12     1.0000 0.19510  0.28100  0.14125  Biso   1.000  Cu
  Mo3      1.0000 0.76719  0.80231  0.50410  Biso   1.000  Mo
  Mo4      1.0000 0.19769  0.23281  0.99590  Biso   1.000  Mo
  H41      1.0000 0.43360  0.88820  0.56770  Biso   1.000  H
  H42      1.0000 0.38450  0.96650  0.66990  Biso   1.000  H
  H43      1.0000 0.57930  0.85470  0.79370  Biso   1.000  H
  H44      1.0000 0.62490  0.78350  0.68770  Biso   1.000  H
  H45      1.0000 0.28330  0.05410  0.89470  Biso   1.000  H
  H46      1.0000 0.31640  0.96600  0.79190  Biso   1.000  H
  H47      1.0000 0.57370  0.99550  0.86050  Biso   1.000  H
  H48      1.0000 0.53460  0.08620  0.95890  Biso   1.000  H
  H49      1.0000 0.38000  0.33000  0.19260  Biso   1.000  H
  H50      1.0000 0.46070  0.42730  0.27470  Biso   1.000  H
  H51      1.0000 0.23220  0.52160  0.34620  Biso   1.000  H
  H52      1.0000 0.15820  0.41820  0.26450  Biso   1.000  H
  H53      1.0000 0.59470  0.58450  0.46750  Biso   1.000  H
  H54      1.0000 0.51710  0.47970  0.39130  Biso   1.000  H
  H55      1.0000 0.31590  0.64950  0.37830  Biso   1.000  H
  H56      1.0000 0.39770  0.74730  0.45800  Biso   1.000  H
  H57      1.0000 0.15730  0.19830  0.28860  Biso   1.000  H
  H58      1.0000 0.06290  0.10010  0.33100  Biso   1.000  H
  H59      1.0000 0.91990  0.09550  0.13520  Biso   1.000  H
  H60      1.0000 0.01560  0.19880  0.10020  Biso   1.000  H
  H61      1.0000 0.11180  0.56640  0.93230  Biso   1.000  H
  H62      1.0000 0.03350  0.61550  0.83010  Biso   1.000  H
  H63      1.0000 0.14530  0.42070  0.70630  Biso   1.000  H
  H64      1.0000 0.21650  0.37510  0.81230  Biso   1.000  H
  H65      1.0000 0.94590  0.71670  0.60530  Biso   1.000  H
  H66      1.0000 0.03400  0.68360  0.70810  Biso   1.000  H
  H67      1.0000 0.00450  0.42630  0.63950  Biso   1.000  H
  H68      1.0000 0.91380  0.46540  0.54110  Biso   1.000  H
  H69      1.0000 0.67000  0.62000  0.30740  Biso   1.000  H
  H70      1.0000 0.57270  0.53930  0.22530  Biso   1.000  H
  H71      1.0000 0.47840  0.76780  0.15380  Biso   1.000  H
  H72      1.0000 0.58180  0.84180  0.23550  Biso   1.000  H
  H73      1.0000 0.41550  0.40530  0.03250  Biso   1.000  H
  H74      1.0000 0.52030  0.48290  0.10870  Biso   1.000  H
  H75      1.0000 0.35050  0.68410  0.12170  Biso   1.000  H
  H76      1.0000 0.25270  0.60230  0.04200  Biso   1.000  H
  H77      1.0000 0.80170  0.84270  0.21140  Biso   1.000  H
  H78      1.0000 0.89990  0.93710  0.16900  Biso   1.000  H
  H79      1.0000 0.90450  0.08010  0.36480  Biso   1.000  H
  H80      1.0000 0.80120  0.98440  0.39980  Biso   1.000  H
  C51      1.0000 0.46390  0.88230  0.61380  Biso   1.000  C
  C52      1.0000 0.43330  0.92910  0.67530  Biso   1.000  C
  C53      1.0000 0.47550  0.92030  0.74500  Biso   1.000  C
  C54      1.0000 0.54870  0.86350  0.74820  Biso   1.000  C
  C55      1.0000 0.57550  0.82050  0.68420  Biso   1.000  C
  C56      1.0000 0.34290  0.04370  0.88680  Biso   1.000  C
  C57      1.0000 0.36230  0.99010  0.82490  Biso   1.000  C
  C58      1.0000 0.44910  0.97250  0.81220  Biso   1.000  C
  C59      1.0000 0.51390  0.00830  0.86540  Biso   1.000  C
  C60      1.0000 0.48990  0.06210  0.92470  Biso   1.000  C
  C61      1.0000 0.34940  0.36880  0.22410  Biso   1.000  C
  C62      1.0000 0.39880  0.42780  0.27310  Biso   1.000  C
  C63      1.0000 0.35610  0.48810  0.31990  Biso   1.000  C
  C64      1.0000 0.26420  0.48320  0.31560  Biso   1.000  C
  C65      1.0000 0.22010  0.42070  0.26580  Biso   1.000  C
  C66      1.0000 0.53750  0.59870  0.44870  Biso   1.000  C
  C67      1.0000 0.49150  0.53490  0.40240  Biso   1.000  C
  C68      1.0000 0.40700  0.55340  0.37240  Biso   1.000  C
  C69      1.0000 0.37350  0.63430  0.39530  Biso   1.000  C
  C70      1.0000 0.42370  0.69350  0.44290  Biso   1.000  C
  C71      1.0000 0.10830  0.17790  0.25740  Biso   1.000  C
  C72      1.0000 0.05240  0.11840  0.28320  Biso   1.000  C
  C73      1.0000 0.97900  0.08500  0.23720  Biso   1.000  C
  C74      1.0000 0.96750  0.11610  0.16800  Biso   1.000  C
  C75      1.0000 0.02600  0.17760  0.14690  Biso   1.000  C
  C76      1.0000 0.11770  0.53610  0.88620  Biso   1.000  C
  C77      1.0000 0.07090  0.56670  0.82470  Biso   1.000  C
  C78      1.0000 0.07970  0.52450  0.75500  Biso   1.000  C
  C79      1.0000 0.13650  0.45130  0.75180  Biso   1.000  C
  C80      1.0000 0.17950  0.42450  0.81580  Biso   1.000  C
  C81      1.0000 0.95630  0.65710  0.61320  Biso   1.000  C
  C82      1.0000 0.00990  0.63770  0.67510  Biso   1.000  C
  C83      1.0000 0.02750  0.55090  0.68780  Biso   1.000  C
  C84      1.0000 0.99170  0.48610  0.63460  Biso   1.000  C
  C85      1.0000 0.93790  0.51010  0.57530  Biso   1.000  C
  C86      1.0000 0.63120  0.65060  0.27590  Biso   1.000  C
  C87      1.0000 0.57220  0.60120  0.22690  Biso   1.000  C
  C88      1.0000 0.51190  0.64390  0.18010  Biso   1.000  C
  C89      1.0000 0.51680  0.73580  0.18440  Biso   1.000  C
  C90      1.0000 0.57930  0.77990  0.23420  Biso   1.000  C
  C91      1.0000 0.40130  0.46250  0.05130  Biso   1.000  C
  C92      1.0000 0.46510  0.50850  0.09760  Biso   1.000  C
  C93      1.0000 0.44660  0.59300  0.12760  Biso   1.000  C
  C94      1.0000 0.36570  0.62650  0.10470  Biso   1.000  C
  C95      1.0000 0.30650  0.57630  0.05710  Biso   1.000  C
  C96      1.0000 0.82210  0.89170  0.24260  Biso   1.000  C
  C97      1.0000 0.88160  0.94760  0.21680  Biso   1.000  C
  C98      1.0000 0.91500  0.02100  0.26280  Biso   1.000  C
  C99      1.0000 0.88390  0.03250  0.33200  Biso   1.000  C
  C100     1.0000 0.82240  0.97400  0.35310  Biso   1.000  C
  S7       1.0000 0.71809  0.69875  0.57495  Biso   1.000  S
  S8       1.0000 0.64625  0.87281  0.45358  Biso   1.000  S
  S9       1.0000 0.83717  0.72961  0.41096  Biso   1.000  S
  S10      1.0000 0.30125  0.28191  0.92505  Biso   1.000  S
  S11      1.0000 0.12719  0.35375  0.04642  Biso   1.000  S
  S12      1.0000 0.27039  0.16283  0.08904  Biso   1.000  S
  I3       1.0000 0.75331  0.47241  0.42986  Biso   1.000  I
  I4       1.0000 0.52759  0.24669  0.07014  Biso   1.000  I
  N11      1.0000 0.53440  0.82920  0.61700  Biso   1.000  N
  N12      1.0000 0.40480  0.08160  0.93600  Biso   1.000  N
  N13      1.0000 0.26100  0.36380  0.21920  Biso   1.000  N
  N14      1.0000 0.50710  0.67890  0.46870  Biso   1.000  N
  N15      1.0000 0.09760  0.20880  0.19030  Biso   1.000  N
  N16      1.0000 0.17080  0.46560  0.88300  Biso   1.000  N
  N17      1.0000 0.91840  0.59520  0.56400  Biso   1.000  N
  N18      1.0000 0.63620  0.73900  0.28080  Biso   1.000  N
  N19      1.0000 0.32110  0.49290  0.03130  Biso   1.000  N
  N20      1.0000 0.79120  0.90240  0.30970  Biso   1.000  N
  O3       1.0000 0.83850  0.87610  0.55490  Biso   1.000  O
  O4       1.0000 0.12390  0.16150  0.94510  Biso   1.000  O
