data_image0
_cell_length_a       7.6146
_cell_length_b       7.5144
_cell_length_c       17.75
_cell_angle_alpha    90
_cell_angle_beta     97.351
_cell_angle_gamma    90

_symmetry_space_group_name_H-M    "P 1"
_symmetry_int_tables_number       1

loop_
  _symmetry_equiv_pos_as_xyz
  'x, y, z'

loop_
  _atom_site_label
  _atom_site_occupancy
  _atom_site_fract_x
  _atom_site_fract_y
  _atom_site_fract_z
  _atom_site_thermal_displace_type
  _atom_site_B_iso_or_equiv
  _atom_site_type_symbol
  Co1      1.0000 0.37927  0.44264  0.13809  Biso   1.000  Co
  Co2      1.0000 0.72532  0.68016  0.19338  Biso   1.000  Co
  P1       1.0000 0.55099  0.06759  0.18833  Biso   1.000  P
  H1       1.0000 0.66280  0.13290  0.19910  Biso   1.000  H
  O1       1.0000 0.42820  0.18030  0.13365  Biso   1.000  O
  O2       1.0000 0.20880  0.65390  0.12222  Biso   1.000  O
  O3       1.0000 0.59880  0.53420  0.09315  Biso   1.000  O
  O4       1.0000 0.47600  0.04490  0.26435  Biso   1.000  O
  O5       1.0000 0.70250  0.59010  0.98324  Biso   1.000  O
  O6       1.0000 0.16280  0.35660  0.20223  Biso   1.000  O
  O7       1.0000 0.59260  0.89290  0.15336  Biso   1.000  O
  O8       1.0000 0.94300  0.74830  0.14110  Biso   1.000  O
  O9       1.0000 0.89930  0.46510  0.22607  Biso   1.000  O
  C1       1.0000 0.58860  0.53680  0.02128  Biso   1.000  C
  C2       1.0000 0.04010  0.47110  0.19715  Biso   1.000  C
  C3       1.0000 0.06670  0.63830  0.14928  Biso   1.000  C
  Co3      1.0000 0.62073  0.94264  0.36191  Biso   1.000  Co
  Co4      1.0000 0.27468  0.18016  0.30662  Biso   1.000  Co
  P2       1.0000 0.44901  0.56759  0.31167  Biso   1.000  P
  H2       1.0000 0.33720  0.63290  0.30090  Biso   1.000  H
  O10      1.0000 0.57180  0.68030  0.36635  Biso   1.000  O
  O11      1.0000 0.79120  0.15390  0.37778  Biso   1.000  O
  O12      1.0000 0.40120  0.03420  0.40685  Biso   1.000  O
  O13      1.0000 0.52400  0.54490  0.23565  Biso   1.000  O
  O14      1.0000 0.29750  0.09010  0.51676  Biso   1.000  O
  O15      1.0000 0.83720  0.85660  0.29777  Biso   1.000  O
  O16      1.0000 0.40740  0.39290  0.34664  Biso   1.000  O
  O17      1.0000 0.05700  0.24830  0.35890  Biso   1.000  O
  O18      1.0000 0.10070  0.96510  0.27393  Biso   1.000  O
  C4       1.0000 0.41140  0.03680  0.47872  Biso   1.000  C
  C5       1.0000 0.95990  0.97110  0.30285  Biso   1.000  C
  C6       1.0000 0.93330  0.13830  0.35072  Biso   1.000  C
  Co5      1.0000 0.62073  0.55736  0.86191  Biso   1.000  Co
  Co6      1.0000 0.27468  0.31984  0.80662  Biso   1.000  Co
  P3       1.0000 0.44901  0.93241  0.81167  Biso   1.000  P
  H3       1.0000 0.33720  0.86710  0.80090  Biso   1.000  H
  O19      1.0000 0.57180  0.81970  0.86635  Biso   1.000  O
  O20      1.0000 0.79120  0.34610  0.87778  Biso   1.000  O
  O21      1.0000 0.40120  0.46580  0.90685  Biso   1.000  O
  O22      1.0000 0.52400  0.95510  0.73565  Biso   1.000  O
  O23      1.0000 0.29750  0.40990  0.01676  Biso   1.000  O
  O24      1.0000 0.83720  0.64340  0.79777  Biso   1.000  O
  O25      1.0000 0.40740  0.10710  0.84664  Biso   1.000  O
  O26      1.0000 0.05700  0.25170  0.85890  Biso   1.000  O
  O27      1.0000 0.10070  0.53490  0.77393  Biso   1.000  O
  C7       1.0000 0.41140  0.46320  0.97872  Biso   1.000  C
  C8       1.0000 0.95990  0.52890  0.80285  Biso   1.000  C
  C9       1.0000 0.93330  0.36170  0.85072  Biso   1.000  C
  Co7      1.0000 0.37927  0.05736  0.63809  Biso   1.000  Co
  Co8      1.0000 0.72532  0.81984  0.69338  Biso   1.000  Co
  P4       1.0000 0.55099  0.43241  0.68833  Biso   1.000  P
  H4       1.0000 0.66280  0.36710  0.69910  Biso   1.000  H
  O28      1.0000 0.42820  0.31970  0.63365  Biso   1.000  O
  O29      1.0000 0.20880  0.84610  0.62222  Biso   1.000  O
  O30      1.0000 0.59880  0.96580  0.59315  Biso   1.000  O
  O31      1.0000 0.47600  0.45510  0.76435  Biso   1.000  O
  O32      1.0000 0.70250  0.90990  0.48324  Biso   1.000  O
  O33      1.0000 0.16280  0.14340  0.70223  Biso   1.000  O
  O34      1.0000 0.59260  0.60710  0.65336  Biso   1.000  O
  O35      1.0000 0.94300  0.75170  0.64110  Biso   1.000  O
  O36      1.0000 0.89930  0.03490  0.72607  Biso   1.000  O
  C10      1.0000 0.58860  0.96320  0.52128  Biso   1.000  C
  C11      1.0000 0.04010  0.02890  0.69715  Biso   1.000  C
  C12      1.0000 0.06670  0.86170  0.64928  Biso   1.000  C
