data_image0
_cell_length_a       10.886
_cell_length_b       10.919
_cell_length_c       14.091
_cell_angle_alpha    89.294
_cell_angle_beta     89.081
_cell_angle_gamma    79.691

_symmetry_space_group_name_H-M    P 1
_symmetry_int_tables_number       1

loop_
  _symmetry_equiv_pos_as_xyz
  'x, y, z'

loop_
  _atom_site_label
  _atom_site_occupancy
  _atom_site_fract_x
  _atom_site_fract_y
  _atom_site_fract_z
  _atom_site_thermal_displace_type
  _atom_site_B_iso_or_equiv
  _atom_site_type_symbol
  Zn1      1.0000 0.72348  0.83591  0.80074  Biso   1.000  Zn
  Zn2      1.0000 0.72772  0.83920  0.59123  Biso   1.000  Zn
  H1       1.0000 0.62970  0.25480  0.57270  Biso   1.000  H
  H2       1.0000 0.62800  0.47470  0.57990  Biso   1.000  H
  H3       1.0000 0.82410  0.41660  0.82180  Biso   1.000  H
  H4       1.0000 0.79400  0.21290  0.82960  Biso   1.000  H
  H5       1.0000 0.33090  0.87390  0.54970  Biso   1.000  H
  H6       1.0000 0.11440  0.87650  0.55260  Biso   1.000  H
  H7       1.0000 0.12200  0.79650  0.83220  Biso   1.000  H
  H8       1.0000 0.33660  0.81070  0.83680  Biso   1.000  H
  H9       1.0000 0.91170  0.80830  0.42870  Biso   1.000  H
  H10      1.0000 0.92060  0.80700  0.26610  Biso   1.000  H
  H11      1.0000 0.54270  0.85730  0.26870  Biso   1.000  H
  H12      1.0000 0.54770  0.86240  0.43370  Biso   1.000  H
  H13      1.0000 0.88340  0.70340  0.11910  Biso   1.000  H
  H14      1.0000 0.85830  0.69070  0.95730  Biso   1.000  H
  H15      1.0000 0.59240  0.97800  0.96310  Biso   1.000  H
  H16      1.0000 0.57950  0.97220  0.12590  Biso   1.000  H
  C1       1.0000 0.71000  0.07690  0.69980  Biso   1.000  C
  C2       1.0000 0.72200  0.20960  0.70060  Biso   1.000  C
  C3       1.0000 0.66720  0.28900  0.62410  Biso   1.000  C
  C4       1.0000 0.66970  0.41900  0.62620  Biso   1.000  C
  C5       1.0000 0.73940  0.46250  0.70310  Biso   1.000  C
  C6       1.0000 0.78190  0.38580  0.77130  Biso   1.000  C
  C7       1.0000 0.76920  0.26170  0.77460  Biso   1.000  C
  C8       1.0000 0.74300  0.60030  0.70200  Biso   1.000  C
  C9       1.0000 0.48770  0.84730  0.69290  Biso   1.000  C
  C10      1.0000 0.35280  0.84250  0.69310  Biso   1.000  C
  C11      1.0000 0.28870  0.86090  0.60750  Biso   1.000  C
  C12      1.0000 0.16030  0.85940  0.60941  Biso   1.000  C
  C13      1.0000 0.09840  0.83360  0.69210  Biso   1.000  C
  C14      1.0000 0.16410  0.81440  0.77550  Biso   1.000  C
  C15      1.0000 0.29260  0.82080  0.77870  Biso   1.000  C
  C16      1.0000 0.96180  0.82930  0.69170  Biso   1.000  C
  C17      1.0000 0.83570  0.81860  0.39490  Biso   1.000  C
  C18      1.0000 0.84250  0.81740  0.29870  Biso   1.000  C
  C19      1.0000 0.72770  0.83260  0.24820  Biso   1.000  C
  C20      1.0000 0.62060  0.84770  0.29980  Biso   1.000  C
  C21      1.0000 0.62400  0.84930  0.39840  Biso   1.000  C
  C22      1.0000 0.72700  0.83340  0.14230  Biso   1.000  C
  C23      1.0000 0.81570  0.75540  0.08880  Biso   1.000  C
  C24      1.0000 0.80520  0.75360  0.99210  Biso   1.000  C
  C25      1.0000 0.64810  0.91530  0.99580  Biso   1.000  C
  C26      1.0000 0.64200  0.91560  0.09330  Biso   1.000  C
  N1       1.0000 0.73060  0.83300  0.44430  Biso   1.000  N
  N2       1.0000 0.72360  0.83660  0.94527  Biso   1.000  N
  O1       1.0000 0.70670  0.02500  0.62112  Biso   1.000  O
  O2       1.0000 0.70510  0.02210  0.77751  Biso   1.000  O
  O3       1.0000 0.74520  0.65400  0.62483  Biso   1.000  O
  O4       1.0000 0.74280  0.64998  0.78135  Biso   1.000  O
  O5       1.0000 0.54470  0.85230  0.61301  Biso   1.000  O
  O6       1.0000 0.54100  0.84680  0.77096  Biso   1.000  O
  O7       1.0000 0.91313  0.82830  0.60988  Biso   1.000  O
  O8       1.0000 0.90770  0.82480  0.77018  Biso   1.000  O
  Zn3      1.0000 0.27652  0.16409  0.19926  Biso   1.000  Zn
  Zn4      1.0000 0.27228  0.16080  0.40877  Biso   1.000  Zn
  H17      1.0000 0.37030  0.74520  0.42730  Biso   1.000  H
  H18      1.0000 0.37200  0.52530  0.42010  Biso   1.000  H
  H19      1.0000 0.17590  0.58340  0.17820  Biso   1.000  H
  H20      1.0000 0.20600  0.78710  0.17040  Biso   1.000  H
  H21      1.0000 0.66910  0.12610  0.45030  Biso   1.000  H
  H22      1.0000 0.88560  0.12350  0.44740  Biso   1.000  H
  H23      1.0000 0.87800  0.20350  0.16780  Biso   1.000  H
  H24      1.0000 0.66340  0.18930  0.16320  Biso   1.000  H
  H25      1.0000 0.08830  0.19170  0.57130  Biso   1.000  H
  H26      1.0000 0.07940  0.19300  0.73390  Biso   1.000  H
  H27      1.0000 0.45730  0.14270  0.73130  Biso   1.000  H
  H28      1.0000 0.45230  0.13760  0.56630  Biso   1.000  H
  H29      1.0000 0.11660  0.29660  0.88090  Biso   1.000  H
  H30      1.0000 0.14170  0.30930  0.04270  Biso   1.000  H
  H31      1.0000 0.40760  0.02200  0.03690  Biso   1.000  H
  H32      1.0000 0.42050  0.02780  0.87410  Biso   1.000  H
  C27      1.0000 0.29000  0.92310  0.30020  Biso   1.000  C
  C28      1.0000 0.27800  0.79040  0.29940  Biso   1.000  C
  C29      1.0000 0.33280  0.71100  0.37590  Biso   1.000  C
  C30      1.0000 0.33030  0.58100  0.37380  Biso   1.000  C
  C31      1.0000 0.26060  0.53750  0.29690  Biso   1.000  C
  C32      1.0000 0.21810  0.61420  0.22870  Biso   1.000  C
  C33      1.0000 0.23080  0.73830  0.22540  Biso   1.000  C
  C34      1.0000 0.25700  0.39970  0.29800  Biso   1.000  C
  C35      1.0000 0.51230  0.15270  0.30710  Biso   1.000  C
  C36      1.0000 0.64720  0.15750  0.30690  Biso   1.000  C
  C37      1.0000 0.71130  0.13910  0.39250  Biso   1.000  C
  C38      1.0000 0.83970  0.14060  0.39059  Biso   1.000  C
  C39      1.0000 0.90160  0.16640  0.30790  Biso   1.000  C
  C40      1.0000 0.83590  0.18560  0.22450  Biso   1.000  C
  C41      1.0000 0.70740  0.17920  0.22130  Biso   1.000  C
  C42      1.0000 0.03820  0.17070  0.30830  Biso   1.000  C
  C43      1.0000 0.16430  0.18140  0.60510  Biso   1.000  C
  C44      1.0000 0.15750  0.18260  0.70130  Biso   1.000  C
  C45      1.0000 0.27230  0.16740  0.75180  Biso   1.000  C
  C46      1.0000 0.37940  0.15230  0.70020  Biso   1.000  C
  C47      1.0000 0.37600  0.15070  0.60160  Biso   1.000  C
  C48      1.0000 0.27300  0.16660  0.85770  Biso   1.000  C
  C49      1.0000 0.18430  0.24460  0.91120  Biso   1.000  C
  C50      1.0000 0.19480  0.24640  0.00790  Biso   1.000  C
  C51      1.0000 0.35190  0.08470  0.00420  Biso   1.000  C
  C52      1.0000 0.35800  0.08440  0.90670  Biso   1.000  C
  N3       1.0000 0.26940  0.16700  0.55570  Biso   1.000  N
  N4       1.0000 0.27640  0.16340  0.05473  Biso   1.000  N
  O9       1.0000 0.29330  0.97500  0.37888  Biso   1.000  O
  O10      1.0000 0.29490  0.97790  0.22249  Biso   1.000  O
  O11      1.0000 0.25480  0.34600  0.37517  Biso   1.000  O
  O12      1.0000 0.25720  0.35002  0.21865  Biso   1.000  O
  O13      1.0000 0.45530  0.14770  0.38699  Biso   1.000  O
  O14      1.0000 0.45900  0.15320  0.22904  Biso   1.000  O
  O15      1.0000 0.08687  0.17170  0.39012  Biso   1.000  O
  O16      1.0000 0.09230  0.17520  0.22982  Biso   1.000  O
