data_image0
_cell_length_a       12.9758
_cell_length_b       13.1095
_cell_length_c       13.9258
_cell_angle_alpha    85.31
_cell_angle_beta     70.71
_cell_angle_gamma    84.193

_symmetry_space_group_name_H-M    P 1
_symmetry_int_tables_number       1

loop_
  _symmetry_equiv_pos_as_xyz
  'x, y, z'

loop_
  _atom_site_label
  _atom_site_occupancy
  _atom_site_fract_x
  _atom_site_fract_y
  _atom_site_fract_z
  _atom_site_thermal_displace_type
  _atom_site_B_iso_or_equiv
  _atom_site_type_symbol
  Zn1      1.0000 0.19248  0.31891  0.66323  Biso   1.000  Zn
  Zn2      1.0000 0.12893  0.32562  0.88645  Biso   1.000  Zn
  H1       1.0000 0.76000  0.34740  0.97070  Biso   1.000  H
  H2       1.0000 0.58200  0.34980  0.97210  Biso   1.000  H
  H3       1.0000 0.87210  0.30510  0.66830  Biso   1.000  H
  H4       1.0000 0.44900  0.32940  0.88050  Biso   1.000  H
  H5       1.0000 0.56060  0.28640  0.57850  Biso   1.000  H
  H6       1.0000 0.73720  0.28790  0.57650  Biso   1.000  H
  H7       1.0000 0.20100  0.98860  0.65080  Biso   1.000  H
  H8       1.0000 0.10560  0.82340  0.97650  Biso   1.000  H
  H9       1.0000 0.11710  0.99890  0.95720  Biso   1.000  H
  H10      1.0000 0.12470  0.65550  0.89840  Biso   1.000  H
  H11      1.0000 0.17040  0.64970  0.60100  Biso   1.000  H
  H12      1.0000 0.18410  0.82000  0.57340  Biso   1.000  H
  H13      1.0000 0.11960  0.17490  0.05830  Biso   1.000  H
  H14      1.0000 0.13530  0.16720  0.21750  Biso   1.000  H
  H15      1.0000 0.09900  0.46760  0.21630  Biso   1.000  H
  H16      1.0000 0.08160  0.46630  0.06040  Biso   1.000  H
  H17      1.0000 0.19620  0.16800  0.34260  Biso   1.000  H
  H18      1.0000 0.20900  0.17060  0.50410  Biso   1.000  H
  H19      1.0000 0.09090  0.44830  0.52860  Biso   1.000  H
  H20      1.0000 0.06520  0.45020  0.37310  Biso   1.000  H
  C1       1.0000 0.94839  0.32832  0.81527  Biso   1.000  C
  C2       1.0000 0.83298  0.32694  0.81709  Biso   1.000  C
  C3       1.0000 0.74539  0.33922  0.90934  Biso   1.000  C
  C4       1.0000 0.64024  0.33928  0.91016  Biso   1.000  C
  C5       1.0000 0.61571  0.32408  0.82133  Biso   1.000  C
  C6       1.0000 0.70435  0.31094  0.72831  Biso   1.000  C
  C7       1.0000 0.81252  0.31327  0.72971  Biso   1.000  C
  C8       1.0000 0.50866  0.32175  0.81899  Biso   1.000  C
  C9       1.0000 0.48739  0.30886  0.73100  Biso   1.000  C
  C10      1.0000 0.57488  0.29586  0.63969  Biso   1.000  C
  C11      1.0000 0.67907  0.29686  0.63879  Biso   1.000  C
  C12      1.0000 0.37024  0.31186  0.73314  Biso   1.000  C
  C13      1.0000 0.16280  0.12564  0.79067  Biso   1.000  C
  C14      1.0000 0.15991  0.01121  0.80109  Biso   1.000  C
  C15      1.0000 0.18166  0.95484  0.71665  Biso   1.000  C
  C16      1.0000 0.17558  0.84751  0.72662  Biso   1.000  C
  C17      1.0000 0.14766  0.79746  0.82417  Biso   1.000  C
  C18      1.0000 0.12525  0.85621  0.91027  Biso   1.000  C
  C19      1.0000 0.13174  0.96021  0.89872  Biso   1.000  C
  C20      1.0000 0.14218  0.68976  0.83284  Biso   1.000  C
  C21      1.0000 0.16133  0.63410  0.74972  Biso   1.000  C
  C22      1.0000 0.17000  0.68825  0.65604  Biso   1.000  C
  C23      1.0000 0.17760  0.78769  0.63848  Biso   1.000  C
  C24      1.0000 0.15746  0.51922  0.76033  Biso   1.000  C
  C25      1.0000 0.12950  0.23595  0.08545  Biso   1.000  C
  C26      1.0000 0.13860  0.23120  0.17975  Biso   1.000  C
  C27      1.0000 0.15326  0.32222  0.22350  Biso   1.000  C
  C28      1.0000 0.16399  0.32067  0.32588  Biso   1.000  C
  C29      1.0000 0.11798  0.40591  0.18094  Biso   1.000  C
  C30      1.0000 0.10862  0.40440  0.08729  Biso   1.000  C
  C31      1.0000 0.18660  0.23133  0.37423  Biso   1.000  C
  C32      1.0000 0.19540  0.23400  0.47046  Biso   1.000  C
  C33      1.0000 0.12580  0.39399  0.48513  Biso   1.000  C
  C34      1.0000 0.11110  0.39680  0.39198  Biso   1.000  C
  N1       1.0000 0.13399  0.32378  0.02964  Biso   1.000  N
  N2       1.0000 0.18601  0.32008  0.51920  Biso   1.000  N
  O1       1.0000 0.96610  0.33485  0.89823  Biso   1.000  O
  O2       1.0000 0.02260  0.32630  0.72878  Biso   1.000  O
  O3       1.0000 0.29685  0.31456  0.81760  Biso   1.000  O
  O4       1.0000 0.35438  0.31195  0.64860  Biso   1.000  O
  O5       1.0000 0.19199  0.16632  0.70096  Biso   1.000  O
  O6       1.0000 0.13347  0.17274  0.87144  Biso   1.000  O
  O7       1.0000 0.18100  0.47280  0.67859  Biso   1.000  O
  O8       1.0000 0.13121  0.47804  0.84895  Biso   1.000  O
  Zn3      1.0000 0.80752  0.68109  0.33677  Biso   1.000  Zn
  Zn4      1.0000 0.87107  0.67438  0.11355  Biso   1.000  Zn
  H21      1.0000 0.24000  0.65260  0.02930  Biso   1.000  H
  H22      1.0000 0.41800  0.65020  0.02790  Biso   1.000  H
  H23      1.0000 0.12790  0.69490  0.33170  Biso   1.000  H
  H24      1.0000 0.55100  0.67060  0.11950  Biso   1.000  H
  H25      1.0000 0.43940  0.71360  0.42150  Biso   1.000  H
  H26      1.0000 0.26280  0.71210  0.42350  Biso   1.000  H
  H27      1.0000 0.79900  0.01140  0.34920  Biso   1.000  H
  H28      1.0000 0.89440  0.17660  0.02350  Biso   1.000  H
  H29      1.0000 0.88290  0.00110  0.04280  Biso   1.000  H
  H30      1.0000 0.87530  0.34450  0.10160  Biso   1.000  H
  H31      1.0000 0.82960  0.35030  0.39900  Biso   1.000  H
  H32      1.0000 0.81590  0.18000  0.42660  Biso   1.000  H
  H33      1.0000 0.88040  0.82510  0.94170  Biso   1.000  H
  H34      1.0000 0.86470  0.83280  0.78250  Biso   1.000  H
  H35      1.0000 0.90100  0.53240  0.78370  Biso   1.000  H
  H36      1.0000 0.91840  0.53370  0.93960  Biso   1.000  H
  H37      1.0000 0.80380  0.83200  0.65740  Biso   1.000  H
  H38      1.0000 0.79100  0.82940  0.49590  Biso   1.000  H
  H39      1.0000 0.90910  0.55170  0.47140  Biso   1.000  H
  H40      1.0000 0.93480  0.54980  0.62690  Biso   1.000  H
  C35      1.0000 0.05161  0.67168  0.18473  Biso   1.000  C
  C36      1.0000 0.16702  0.67306  0.18291  Biso   1.000  C
  C37      1.0000 0.25461  0.66078  0.09066  Biso   1.000  C
  C38      1.0000 0.35976  0.66072  0.08984  Biso   1.000  C
  C39      1.0000 0.38429  0.67592  0.17867  Biso   1.000  C
  C40      1.0000 0.29565  0.68906  0.27169  Biso   1.000  C
  C41      1.0000 0.18748  0.68673  0.27029  Biso   1.000  C
  C42      1.0000 0.49134  0.67825  0.18101  Biso   1.000  C
  C43      1.0000 0.51261  0.69114  0.26900  Biso   1.000  C
  C44      1.0000 0.42512  0.70414  0.36031  Biso   1.000  C
  C45      1.0000 0.32093  0.70314  0.36121  Biso   1.000  C
  C46      1.0000 0.62976  0.68814  0.26686  Biso   1.000  C
  C47      1.0000 0.83720  0.87436  0.20933  Biso   1.000  C
  C48      1.0000 0.84009  0.98879  0.19891  Biso   1.000  C
  C49      1.0000 0.81834  0.04516  0.28335  Biso   1.000  C
  C50      1.0000 0.82442  0.15249  0.27338  Biso   1.000  C
  C51      1.0000 0.85234  0.20254  0.17583  Biso   1.000  C
  C52      1.0000 0.87475  0.14379  0.08973  Biso   1.000  C
  C53      1.0000 0.86826  0.03979  0.10128  Biso   1.000  C
  C54      1.0000 0.85782  0.31024  0.16716  Biso   1.000  C
  C55      1.0000 0.83867  0.36590  0.25028  Biso   1.000  C
  C56      1.0000 0.83000  0.31175  0.34396  Biso   1.000  C
  C57      1.0000 0.82240  0.21231  0.36152  Biso   1.000  C
  C58      1.0000 0.84254  0.48078  0.23967  Biso   1.000  C
  C59      1.0000 0.87050  0.76405  0.91455  Biso   1.000  C
  C60      1.0000 0.86140  0.76880  0.82025  Biso   1.000  C
  C61      1.0000 0.84674  0.67778  0.77650  Biso   1.000  C
  C62      1.0000 0.83601  0.67933  0.67412  Biso   1.000  C
  C63      1.0000 0.88202  0.59409  0.81906  Biso   1.000  C
  C64      1.0000 0.89138  0.59560  0.91271  Biso   1.000  C
  C65      1.0000 0.81340  0.76867  0.62577  Biso   1.000  C
  C66      1.0000 0.80460  0.76600  0.52954  Biso   1.000  C
  C67      1.0000 0.87420  0.60601  0.51487  Biso   1.000  C
  C68      1.0000 0.88890  0.60320  0.60802  Biso   1.000  C
  N3       1.0000 0.86601  0.67622  0.97036  Biso   1.000  N
  N4       1.0000 0.81399  0.67992  0.48080  Biso   1.000  N
  O9       1.0000 0.03390  0.66515  0.10177  Biso   1.000  O
  O10      1.0000 0.97740  0.67370  0.27122  Biso   1.000  O
  O11      1.0000 0.70315  0.68544  0.18240  Biso   1.000  O
  O12      1.0000 0.64562  0.68805  0.35140  Biso   1.000  O
  O13      1.0000 0.80801  0.83368  0.29904  Biso   1.000  O
  O14      1.0000 0.86653  0.82726  0.12856  Biso   1.000  O
  O15      1.0000 0.81900  0.52720  0.32141  Biso   1.000  O
  O16      1.0000 0.86879  0.52196  0.15105  Biso   1.000  O
