data_MAWFAT_charged
_audit_creation_date              2014-07-02
_audit_creation_method            'Materials Studio'
_symmetry_space_group_name_H-M    'P1'
_symmetry_Int_Tables_number       1
_symmetry_cell_setting            triclinic
loop_
_symmetry_equiv_pos_as_xyz
  x,y,z
_cell_length_a                    17.0073
_cell_length_b                    17.0073
_cell_length_c                    24.5230
_cell_angle_alpha                 73.8582
_cell_angle_beta                  73.8582
_cell_angle_gamma                 88.3634
loop_
_atom_site_label
_atom_site_type_symbol
_atom_site_fract_x
_atom_site_fract_y
_atom_site_fract_z
_atom_site_U_iso_or_equiv
_atom_site_adp_type
_atom_site_occupancy
Mn1    Mn    0.12630   0.71280   0.58490   0.01267  Uiso   1.00
Mn2    Mn    0.28720   0.87370   0.91510   0.01267  Uiso   1.00
Mn3    Mn    0.87370   0.28720   0.41510   0.01267  Uiso   1.00
Mn4    Mn    0.71280   0.12630   0.08490   0.01267  Uiso   1.00
Cu1    Cu    0.00000   0.00000   0.50000   0.01267  Uiso   1.00
Cu2    Cu    0.00000   0.00000   0.00000   0.01267  Uiso   1.00
Cu3    Cu    0.00000   0.50000   0.50000   0.01267  Uiso   1.00
Cu4    Cu    0.50000  -0.00000   0.00000   0.01267  Uiso   1.00
Cu5    Cu    0.26533   0.73467   0.75000   0.01267  Uiso   1.00
Cu6    Cu    0.73467   0.26533   0.25000   0.01267  Uiso   1.00
H1     H     0.11980   0.84100   0.30610   0.01267  Uiso   1.00
H2     H     0.23870   0.93110   0.25810   0.01267  Uiso   1.00
H3     H     0.27510   0.02870   0.29550   0.01267  Uiso   1.00
H4     H     0.02240   0.78540   0.38450   0.01267  Uiso   1.00
H5     H     0.02090   0.79650   0.44610   0.01267  Uiso   1.00
H6     H     0.89530   0.83110   0.42690   0.01267  Uiso   1.00
H7     H     0.93820   0.90920   0.43030   0.01267  Uiso   1.00
H8     H     0.93980   0.89820   0.36860   0.01267  Uiso   1.00
H9     H     0.24940   0.08300   0.38190   0.01267  Uiso   1.00
H10    H     0.17500   0.05200   0.43870   0.01267  Uiso   1.00
H11    H     0.30310   0.01530   0.46600   0.01267  Uiso   1.00
H12    H     0.25250   0.93410   0.47640   0.01267  Uiso   1.00
H13    H     0.32680   0.96480   0.41970   0.01267  Uiso   1.00
H14    H     0.32410   0.38010   0.49690   0.01267  Uiso   1.00
H15    H     0.37680   0.44340   0.40380   0.01267  Uiso   1.00
H16    H     0.31930   0.52990   0.34810   0.01267  Uiso   1.00
H17    H     0.16330   0.45730   0.59250   0.01267  Uiso   1.00
H18    H     0.23030   0.39130   0.59360   0.01267  Uiso   1.00
H19    H     0.09680   0.32520   0.62790   0.01267  Uiso   1.00
H20    H     0.08100   0.37000   0.56700   0.01267  Uiso   1.00
H21    H     0.14710   0.30390   0.57020   0.01267  Uiso   1.00
H22    H     0.12460   0.58600   0.38690   0.01267  Uiso   1.00
H23    H     0.17180   0.64760   0.40500   0.01267  Uiso   1.00
H24    H     0.19560   0.68820   0.30120   0.01267  Uiso   1.00
H25    H     0.27910   0.66570   0.31560   0.01267  Uiso   1.00
H26    H     0.23210   0.60370   0.29740   0.01267  Uiso   1.00
H27    H     0.39620   0.02580   0.56320   0.01267  Uiso   1.00
H28    H     0.52720   0.97800   0.54150   0.01267  Uiso   1.00
H29    H     0.54650   0.83890   0.57330   0.01267  Uiso   1.00
H30    H     0.23220   0.93480   0.66130   0.01267  Uiso   1.00
H31    H     0.25870   0.00290   0.59930   0.01267  Uiso   1.00
H32    H     0.47540   0.69660   0.63430   0.01267  Uiso   1.00
H33    H     0.37920   0.69080   0.64880   0.01267  Uiso   1.00
H34    H     0.16450   0.89870   0.59420   0.01267  Uiso   1.00
H35    H     0.25070   0.89910   0.54920   0.01267  Uiso   1.00
H36    H     0.22580   0.83140   0.61020   0.01267  Uiso   1.00
H37    H     0.43530   0.64890   0.56070   0.01267  Uiso   1.00
H38    H     0.39240   0.73120   0.54320   0.01267  Uiso   1.00
H39    H     0.15900   0.88020   0.19390   0.01267  Uiso   1.00
H40    H     0.06890   0.76130   0.24190   0.01267  Uiso   1.00
H41    H     0.97130   0.72490   0.20450   0.01267  Uiso   1.00
H42    H     0.21460   0.97760   0.11550   0.01267  Uiso   1.00
H43    H     0.20350   0.97910   0.05390   0.01267  Uiso   1.00
H44    H     0.16890   0.10470   0.07310   0.01267  Uiso   1.00
H45    H     0.09080   0.06180   0.06970   0.01267  Uiso   1.00
H46    H     0.10180   0.06020   0.13140   0.01267  Uiso   1.00
H47    H     0.91700   0.75060   0.11810   0.01267  Uiso   1.00
H48    H     0.94800   0.82500   0.06130   0.01267  Uiso   1.00
H49    H     0.98470   0.69690   0.03400   0.01267  Uiso   1.00
H50    H     0.06590   0.74750   0.02360   0.01267  Uiso   1.00
H51    H     0.03520   0.67320   0.08030   0.01267  Uiso   1.00
H52    H     0.61990   0.67590   0.00310   0.01267  Uiso   1.00
H53    H     0.55660   0.62320   0.09620   0.01267  Uiso   1.00
H54    H     0.47010   0.68070   0.15190   0.01267  Uiso   1.00
H55    H     0.54270   0.83670   0.90750   0.01267  Uiso   1.00
H56    H     0.60870   0.76970   0.90640   0.01267  Uiso   1.00
H57    H     0.67480   0.90320   0.87210   0.01267  Uiso   1.00
H58    H     0.63000   0.91900   0.93300   0.01267  Uiso   1.00
H59    H     0.69610   0.85290   0.92980   0.01267  Uiso   1.00
H60    H     0.41400   0.87540   0.11310   0.01267  Uiso   1.00
H61    H     0.35240   0.82820   0.09500   0.01267  Uiso   1.00
H62    H     0.31180   0.80440   0.19880   0.01267  Uiso   1.00
H63    H     0.33430   0.72090   0.18440   0.01267  Uiso   1.00
H64    H     0.39630   0.76790   0.20260   0.01267  Uiso   1.00
H65    H     0.97420   0.60380   0.93680   0.01267  Uiso   1.00
H66    H     0.02200   0.47280   0.95850   0.01267  Uiso   1.00
H67    H     0.16110   0.45350   0.92670   0.01267  Uiso   1.00
H68    H     0.06520   0.76780   0.83870   0.01267  Uiso   1.00
H69    H     0.99710   0.74130   0.90070   0.01267  Uiso   1.00
H70    H     0.30340   0.52460   0.86570   0.01267  Uiso   1.00
H71    H     0.30920   0.62080   0.85120   0.01267  Uiso   1.00
H72    H     0.10130   0.83550   0.90580   0.01267  Uiso   1.00
H73    H     0.10090   0.74930   0.95080   0.01267  Uiso   1.00
H74    H     0.16860   0.77420   0.88980   0.01267  Uiso   1.00
H75    H     0.35110   0.56470   0.93930   0.01267  Uiso   1.00
H76    H     0.26880   0.60760   0.95680   0.01267  Uiso   1.00
H77    H     0.88020   0.15900   0.69390   0.01267  Uiso   1.00
H78    H     0.76130   0.06890   0.74190   0.01267  Uiso   1.00
H79    H     0.72490   0.97130   0.70450   0.01267  Uiso   1.00
H80    H     0.97760   0.21460   0.61550   0.01267  Uiso   1.00
H81    H     0.97910   0.20350   0.55390   0.01267  Uiso   1.00
H82    H     0.10470   0.16890   0.57310   0.01267  Uiso   1.00
H83    H     0.06180   0.09080   0.56970   0.01267  Uiso   1.00
H84    H     0.06020   0.10180   0.63140   0.01267  Uiso   1.00
H85    H     0.75060   0.91700   0.61810   0.01267  Uiso   1.00
H86    H     0.82500   0.94800   0.56130   0.01267  Uiso   1.00
H87    H     0.69690   0.98470   0.53400   0.01267  Uiso   1.00
H88    H     0.74750   0.06590   0.52360   0.01267  Uiso   1.00
H89    H     0.67320   0.03520   0.58030   0.01267  Uiso   1.00
H90    H     0.67590   0.61990   0.50310   0.01267  Uiso   1.00
H91    H     0.62320   0.55660   0.59620   0.01267  Uiso   1.00
H92    H     0.68070   0.47010   0.65190   0.01267  Uiso   1.00
H93    H     0.83670   0.54270   0.40750   0.01267  Uiso   1.00
H94    H     0.76970   0.60870   0.40640   0.01267  Uiso   1.00
H95    H     0.90320   0.67480   0.37210   0.01267  Uiso   1.00
H96    H     0.91900   0.63000   0.43300   0.01267  Uiso   1.00
H97    H     0.85290   0.69610   0.42980   0.01267  Uiso   1.00
H98    H     0.87540   0.41400   0.61310   0.01267  Uiso   1.00
H99    H     0.82820   0.35240   0.59500   0.01267  Uiso   1.00
H100   H     0.80440   0.31180   0.69880   0.01267  Uiso   1.00
H101   H     0.72090   0.33430   0.68440   0.01267  Uiso   1.00
H102   H     0.76790   0.39630   0.70260   0.01267  Uiso   1.00
H103   H     0.60380   0.97420   0.43680   0.01267  Uiso   1.00
H104   H     0.47280   0.02200   0.45850   0.01267  Uiso   1.00
H105   H     0.45350   0.16110   0.42670   0.01267  Uiso   1.00
H106   H     0.76780   0.06520   0.33870   0.01267  Uiso   1.00
H107   H     0.74130   0.99710   0.40070   0.01267  Uiso   1.00
H108   H     0.52460   0.30340   0.36570   0.01267  Uiso   1.00
H109   H     0.62080   0.30920   0.35120   0.01267  Uiso   1.00
H110   H     0.83550   0.10130   0.40580   0.01267  Uiso   1.00
H111   H     0.74930   0.10090   0.45080   0.01267  Uiso   1.00
H112   H     0.77420   0.16860   0.38980   0.01267  Uiso   1.00
H113   H     0.56470   0.35110   0.43930   0.01267  Uiso   1.00
H114   H     0.60760   0.26880   0.45680   0.01267  Uiso   1.00
H115   H     0.84100   0.11980   0.80610   0.01267  Uiso   1.00
H116   H     0.93110   0.23870   0.75810   0.01267  Uiso   1.00
H117   H     0.02870   0.27510   0.79550   0.01267  Uiso   1.00
H118   H     0.78540   0.02240   0.88450   0.01267  Uiso   1.00
H119   H     0.79650   0.02090   0.94610   0.01267  Uiso   1.00
H120   H     0.83110   0.89530   0.92690   0.01267  Uiso   1.00
H121   H     0.90920   0.93820   0.93030   0.01267  Uiso   1.00
H122   H     0.89820   0.93980   0.86860   0.01267  Uiso   1.00
H123   H     0.08300   0.24940   0.88190   0.01267  Uiso   1.00
H124   H     0.05200   0.17500   0.93870   0.01267  Uiso   1.00
H125   H     0.01530   0.30310   0.96600   0.01267  Uiso   1.00
H126   H     0.93410   0.25250   0.97640   0.01267  Uiso   1.00
H127   H     0.96480   0.32680   0.91970   0.01267  Uiso   1.00
H128   H     0.38010   0.32410   0.99690   0.01267  Uiso   1.00
H129   H     0.44340   0.37680   0.90380   0.01267  Uiso   1.00
H130   H     0.52990   0.31930   0.84810   0.01267  Uiso   1.00
H131   H     0.45730   0.16330   0.09250   0.01267  Uiso   1.00
H132   H     0.39130   0.23030   0.09360   0.01267  Uiso   1.00
H133   H     0.32520   0.09680   0.12790   0.01267  Uiso   1.00
H134   H     0.37000   0.08100   0.06700   0.01267  Uiso   1.00
H135   H     0.30390   0.14710   0.07020   0.01267  Uiso   1.00
H136   H     0.58600   0.12460   0.88690   0.01267  Uiso   1.00
H137   H     0.64760   0.17180   0.90500   0.01267  Uiso   1.00
H138   H     0.68820   0.19560   0.80120   0.01267  Uiso   1.00
H139   H     0.66570   0.27910   0.81560   0.01267  Uiso   1.00
H140   H     0.60370   0.23210   0.79740   0.01267  Uiso   1.00
H141   H     0.02580   0.39620   0.06320   0.01267  Uiso   1.00
H142   H     0.97800   0.52720   0.04150   0.01267  Uiso   1.00
H143   H     0.83890   0.54650   0.07330   0.01267  Uiso   1.00
H144   H     0.93480   0.23220   0.16130   0.01267  Uiso   1.00
H145   H     0.00290   0.25870   0.09930   0.01267  Uiso   1.00
H146   H     0.69660   0.47540   0.13430   0.01267  Uiso   1.00
H147   H     0.69080   0.37920   0.14880   0.01267  Uiso   1.00
H148   H     0.89870   0.16450   0.09420   0.01267  Uiso   1.00
H149   H     0.89910   0.25070   0.04920   0.01267  Uiso   1.00
H150   H     0.83140   0.22580   0.11020   0.01267  Uiso   1.00
H151   H     0.64890   0.43530   0.06070   0.01267  Uiso   1.00
H152   H     0.73120   0.39240   0.04320   0.01267  Uiso   1.00
C1     C     0.08950   0.86530   0.51080   0.01267  Uiso   1.00
C2     C     0.04230   0.86630   0.57220   0.01267  Uiso   1.00
C3     C     0.12280   0.93600   0.40740   0.01267  Uiso   1.00
C4     C     0.09270   0.87910   0.37870   0.01267  Uiso   1.00
C5     C     0.13530   0.87670   0.32440   0.01267  Uiso   1.00
C6     C     0.20750   0.93350   0.29530   0.01267  Uiso   1.00
C7     C     0.23310   0.98950   0.31790   0.01267  Uiso   1.00
C8     C     0.18830   0.98390   0.38240   0.01267  Uiso   1.00
C9     C     0.02070   0.82570   0.40600   0.01267  Uiso   1.00
C10    C     0.94110   0.87010   0.40820   0.01267  Uiso   1.00
C11    C     0.22000   0.03440   0.41120   0.01267  Uiso   1.00
C12    C     0.28210   0.98170   0.44710   0.01267  Uiso   1.00
C13    C     0.10630   0.58810   0.52950   0.01267  Uiso   1.00
C14    C     0.02020   0.60960   0.55780   0.01267  Uiso   1.00
C15    C     0.18420   0.50840   0.47330   0.01267  Uiso   1.00
C16    C     0.22270   0.44750   0.50790   0.01267  Uiso   1.00
C17    C     0.29660   0.42180   0.47770   0.01267  Uiso   1.00
C18    C     0.32510   0.45830   0.42180   0.01267  Uiso   1.00
C19    C     0.29410   0.51030   0.38850   0.01267  Uiso   1.00
C20    C     0.21760   0.53800   0.41600   0.01267  Uiso   1.00
C21    C     0.18740   0.41400   0.57560   0.01267  Uiso   1.00
C22    C     0.12200   0.34700   0.58620   0.01267  Uiso   1.00
C23    C     0.17880   0.60520   0.38480   0.01267  Uiso   1.00
C24    C     0.22590   0.64450   0.31840   0.01267  Uiso   1.00
C25    C     0.24290   0.73530   0.64540   0.01267  Uiso   1.00
C26    C     0.17000   0.68340   0.69260   0.01267  Uiso   1.00
C27    C     0.33720   0.91540   0.60810   0.01267  Uiso   1.00
C28    C     0.40400   0.97000   0.57600   0.01267  Uiso   1.00
C29    C     0.48250   0.94130   0.56290   0.01267  Uiso   1.00
C30    C     0.49410   0.85810   0.58200   0.01267  Uiso   1.00
C31    C     0.42720   0.80340   0.61410   0.01267  Uiso   1.00
C32    C     0.34880   0.83200   0.62710   0.01267  Uiso   1.00
C33    C     0.25900   0.94500   0.61940   0.01267  Uiso   1.00
C34    C     0.42900   0.71880   0.62040   0.01267  Uiso   1.00
C35    C     0.22130   0.88790   0.59040   0.01267  Uiso   1.00
C36    C     0.43670   0.70670   0.55750   0.01267  Uiso   1.00
C37    C     0.13470   0.91050   0.98920   0.01267  Uiso   1.00
C38    C     0.13370   0.95770   0.92780   0.01267  Uiso   1.00
C39    C     0.06400   0.87720   0.09260   0.01267  Uiso   1.00
C40    C     0.12090   0.90730   0.12130   0.01267  Uiso   1.00
C41    C     0.12330   0.86470   0.17560   0.01267  Uiso   1.00
C42    C     0.06650   0.79250   0.20470   0.01267  Uiso   1.00
C43    C     0.01050   0.76690   0.18210   0.01267  Uiso   1.00
C44    C     0.01610   0.81170   0.11760   0.01267  Uiso   1.00
C45    C     0.17430   0.97930   0.09400   0.01267  Uiso   1.00
C46    C     0.12990   0.05890   0.09180   0.01267  Uiso   1.00
C47    C     0.96560   0.78000   0.08880   0.01267  Uiso   1.00
C48    C     0.01830   0.71790   0.05290   0.01267  Uiso   1.00
C49    C     0.41190   0.89370   0.97050   0.01267  Uiso   1.00
C50    C     0.39040   0.97980   0.94220   0.01267  Uiso   1.00
C51    C     0.49160   0.81580   0.02670   0.01267  Uiso   1.00
C52    C     0.55250   0.77730   0.99210   0.01267  Uiso   1.00
C53    C     0.57820   0.70340   0.02230   0.01267  Uiso   1.00
C54    C     0.54170   0.67490   0.07820   0.01267  Uiso   1.00
C55    C     0.48970   0.70590   0.11150   0.01267  Uiso   1.00
C56    C     0.46200   0.78240   0.08400   0.01267  Uiso   1.00
C57    C     0.58600   0.81260   0.92440   0.01267  Uiso   1.00
C58    C     0.65300   0.87800   0.91380   0.01267  Uiso   1.00
C59    C     0.39480   0.82120   0.11520   0.01267  Uiso   1.00
C60    C     0.35550   0.77410   0.18160   0.01267  Uiso   1.00
C61    C     0.26470   0.75710   0.85460   0.01267  Uiso   1.00
C62    C     0.31660   0.83000   0.80740   0.01267  Uiso   1.00
C63    C     0.08460   0.66280   0.89190   0.01267  Uiso   1.00
C64    C     0.03000   0.59600   0.92400   0.01267  Uiso   1.00
C65    C     0.05870   0.51750   0.93710   0.01267  Uiso   1.00
C66    C     0.14190   0.50590   0.91800   0.01267  Uiso   1.00
C67    C     0.19660   0.57280   0.88590   0.01267  Uiso   1.00
C68    C     0.16800   0.65120   0.87290   0.01267  Uiso   1.00
C69    C     0.05500   0.74100   0.88060   0.01267  Uiso   1.00
C70    C     0.28120   0.57100   0.87960   0.01267  Uiso   1.00
C71    C     0.11210   0.77870   0.90960   0.01267  Uiso   1.00
C72    C     0.29330   0.56330   0.94250   0.01267  Uiso   1.00
C73    C     0.91050   0.13470   0.48920   0.01267  Uiso   1.00
C74    C     0.95770   0.13370   0.42780   0.01267  Uiso   1.00
C75    C     0.87720   0.06400   0.59260   0.01267  Uiso   1.00
C76    C     0.90730   0.12090   0.62130   0.01267  Uiso   1.00
C77    C     0.86470   0.12330   0.67560   0.01267  Uiso   1.00
C78    C     0.79250   0.06650   0.70470   0.01267  Uiso   1.00
C79    C     0.76690   0.01050   0.68210   0.01267  Uiso   1.00
C80    C     0.81170   0.01610   0.61760   0.01267  Uiso   1.00
C81    C     0.97930   0.17430   0.59400   0.01267  Uiso   1.00
C82    C     0.05890   0.12990   0.59180   0.01267  Uiso   1.00
C83    C     0.78000   0.96560   0.58880   0.01267  Uiso   1.00
C84    C     0.71790   0.01830   0.55290   0.01267  Uiso   1.00
C85    C     0.89370   0.41190   0.47050   0.01267  Uiso   1.00
C86    C     0.97980   0.39040   0.44220   0.01267  Uiso   1.00
C87    C     0.81580   0.49160   0.52670   0.01267  Uiso   1.00
C88    C     0.77730   0.55250   0.49210   0.01267  Uiso   1.00
C89    C     0.70340   0.57820   0.52230   0.01267  Uiso   1.00
C90    C     0.67490   0.54170   0.57820   0.01267  Uiso   1.00
C91    C     0.70590   0.48970   0.61150   0.01267  Uiso   1.00
C92    C     0.78240   0.46200   0.58400   0.01267  Uiso   1.00
C93    C     0.81260   0.58600   0.42440   0.01267  Uiso   1.00
C94    C     0.87800   0.65300   0.41380   0.01267  Uiso   1.00
C95    C     0.82120   0.39480   0.61520   0.01267  Uiso   1.00
C96    C     0.77410   0.35550   0.68160   0.01267  Uiso   1.00
C97    C     0.75710   0.26470   0.35460   0.01267  Uiso   1.00
C98    C     0.83000   0.31660   0.30740   0.01267  Uiso   1.00
C99    C     0.66280   0.08460   0.39190   0.01267  Uiso   1.00
C100   C     0.59600   0.03000   0.42400   0.01267  Uiso   1.00
C101   C     0.51750   0.05870   0.43710   0.01267  Uiso   1.00
C102   C     0.50590   0.14190   0.41800   0.01267  Uiso   1.00
C103   C     0.57280   0.19660   0.38590   0.01267  Uiso   1.00
C104   C     0.65120   0.16800   0.37290   0.01267  Uiso   1.00
C105   C     0.74100   0.05500   0.38060   0.01267  Uiso   1.00
C106   C     0.57100   0.28120   0.37960   0.01267  Uiso   1.00
C107   C     0.77870   0.11210   0.40960   0.01267  Uiso   1.00
C108   C     0.56330   0.29330   0.44250   0.01267  Uiso   1.00
C109   C     0.86530   0.08950   0.01080   0.01267  Uiso   1.00
C110   C     0.86630   0.04230   0.07220   0.01267  Uiso   1.00
C111   C     0.93600   0.12280   0.90740   0.01267  Uiso   1.00
C112   C     0.87910   0.09270   0.87870   0.01267  Uiso   1.00
C113   C     0.87670   0.13530   0.82440   0.01267  Uiso   1.00
C114   C     0.93350   0.20750   0.79530   0.01267  Uiso   1.00
C115   C     0.98950   0.23310   0.81790   0.01267  Uiso   1.00
C116   C     0.98390   0.18830   0.88240   0.01267  Uiso   1.00
C117   C     0.82570   0.02070   0.90600   0.01267  Uiso   1.00
C118   C     0.87010   0.94110   0.90820   0.01267  Uiso   1.00
C119   C     0.03440   0.22000   0.91120   0.01267  Uiso   1.00
C120   C     0.98170   0.28210   0.94710   0.01267  Uiso   1.00
C121   C     0.58810   0.10630   0.02950   0.01267  Uiso   1.00
C122   C     0.60960   0.02020   0.05780   0.01267  Uiso   1.00
C123   C     0.50840   0.18420   0.97330   0.01267  Uiso   1.00
C124   C     0.44750   0.22270   0.00790   0.01267  Uiso   1.00
C125   C     0.42180   0.29660   0.97770   0.01267  Uiso   1.00
C126   C     0.45830   0.32510   0.92180   0.01267  Uiso   1.00
C127   C     0.51030   0.29410   0.88850   0.01267  Uiso   1.00
C128   C     0.53800   0.21760   0.91600   0.01267  Uiso   1.00
C129   C     0.41400   0.18740   0.07560   0.01267  Uiso   1.00
C130   C     0.34700   0.12200   0.08620   0.01267  Uiso   1.00
C131   C     0.60520   0.17880   0.88480   0.01267  Uiso   1.00
C132   C     0.64450   0.22590   0.81840   0.01267  Uiso   1.00
C133   C     0.73530   0.24290   0.14540   0.01267  Uiso   1.00
C134   C     0.68340   0.17000   0.19260   0.01267  Uiso   1.00
C135   C     0.91540   0.33720   0.10810   0.01267  Uiso   1.00
C136   C     0.97000   0.40400   0.07600   0.01267  Uiso   1.00
C137   C     0.94130   0.48250   0.06290   0.01267  Uiso   1.00
C138   C     0.85810   0.49410   0.08200   0.01267  Uiso   1.00
C139   C     0.80340   0.42720   0.11410   0.01267  Uiso   1.00
C140   C     0.83200   0.34880   0.12710   0.01267  Uiso   1.00
C141   C     0.94500   0.25900   0.11940   0.01267  Uiso   1.00
C142   C     0.71880   0.42900   0.12040   0.01267  Uiso   1.00
C143   C     0.88790   0.22130   0.09040   0.01267  Uiso   1.00
C144   C     0.70670   0.43670   0.05750   0.01267  Uiso   1.00
N1     N     0.29670   0.75990   0.66450   0.01267  Uiso   1.00
N2     N     0.07870   0.92750   0.46810   0.01267  Uiso   1.00
N3     N     0.10810   0.53370   0.50040   0.01267  Uiso   1.00
N4     N     0.24010   0.70330   0.83550   0.01267  Uiso   1.00
N5     N     0.07250   0.92130   0.03190   0.01267  Uiso   1.00
N6     N     0.46630   0.89190   0.99960   0.01267  Uiso   1.00
N7     N     0.70330   0.24010   0.33550   0.01267  Uiso   1.00
N8     N     0.92130   0.07250   0.53190   0.01267  Uiso   1.00
N9     N     0.89190   0.46630   0.49960   0.01267  Uiso   1.00
N10    N     0.75990   0.29670   0.16450   0.01267  Uiso   1.00
N11    N     0.92750   0.07870   0.96810   0.01267  Uiso   1.00
N12    N     0.53370   0.10810   0.00040   0.01267  Uiso   1.00
O1     O     0.17180   0.67160   0.74560   0.01267  Uiso   1.00
O2     O     0.13560   0.80660   0.50330   0.01267  Uiso   1.00
O3     O     0.05070   0.80890   0.61480   0.01267  Uiso   1.00
O4     O     0.99320   0.92220   0.57750   0.01267  Uiso   1.00
O5     O     0.16350   0.61950   0.53940   0.01267  Uiso   1.00
O6     O     0.01110   0.65830   0.58710   0.01267  Uiso   1.00
O7     O     0.95970   0.57410   0.54850   0.01267  Uiso   1.00
O8     O     0.24250   0.74910   0.59150   0.01267  Uiso   1.00
O9     O     0.11800   0.65560   0.67620   0.01267  Uiso   1.00
O10    O     0.32840   0.82820   0.75440   0.01267  Uiso   1.00
O11    O     0.19340   0.86440   0.99670   0.01267  Uiso   1.00
O12    O     0.19110   0.94930   0.88520   0.01267  Uiso   1.00
O13    O     0.07780   0.00680   0.92250   0.01267  Uiso   1.00
O14    O     0.38050   0.83650   0.96060   0.01267  Uiso   1.00
O15    O     0.34170   0.98890   0.91290   0.01267  Uiso   1.00
O16    O     0.42590   0.04030   0.95150   0.01267  Uiso   1.00
O17    O     0.25090   0.75750   0.90850   0.01267  Uiso   1.00
O18    O     0.34440   0.88200   0.82380   0.01267  Uiso   1.00
O19    O     0.82820   0.32840   0.25440   0.01267  Uiso   1.00
O20    O     0.86440   0.19340   0.49670   0.01267  Uiso   1.00
O21    O     0.94930   0.19110   0.38520   0.01267  Uiso   1.00
O22    O     0.00680   0.07780   0.42250   0.01267  Uiso   1.00
O23    O     0.83650   0.38050   0.46060   0.01267  Uiso   1.00
O24    O     0.98890   0.34170   0.41290   0.01267  Uiso   1.00
O25    O     0.04030   0.42590   0.45150   0.01267  Uiso   1.00
O26    O     0.75750   0.25090   0.40850   0.01267  Uiso   1.00
O27    O     0.88200   0.34440   0.32380   0.01267  Uiso   1.00
O28    O     0.67160   0.17180   0.24560   0.01267  Uiso   1.00
O29    O     0.80660   0.13560   0.00330   0.01267  Uiso   1.00
O30    O     0.80890   0.05070   0.11480   0.01267  Uiso   1.00
O31    O     0.92220   0.99320   0.07750   0.01267  Uiso   1.00
O32    O     0.61950   0.16350   0.03940   0.01267  Uiso   1.00
O33    O     0.65830   0.01110   0.08710   0.01267  Uiso   1.00
O34    O     0.57410   0.95970   0.04850   0.01267  Uiso   1.00
O35    O     0.74910   0.24250   0.09150   0.01267  Uiso   1.00
O36    O     0.65560   0.11800   0.17620   0.01267  Uiso   1.00
H153   H     0.58710   0.93230   0.26080   0.01267  Uiso   1.00
H154   H     0.63010   0.94670   0.19340   0.01267  Uiso   1.00
H155   H     0.51320   0.81720   0.24280   0.01267  Uiso   1.00
H156   H     0.52900   0.88400   0.18050   0.01267  Uiso   1.00
H157   H     0.41160   0.90440   0.27410   0.01267  Uiso   1.00
H158   H     0.48660   0.95560   0.27660   0.01267  Uiso   1.00
H159   H     0.42680   0.03760   0.20440   0.01267  Uiso   1.00
H160   H     0.43960   0.96880   0.17190   0.01267  Uiso   1.00
H161   H     0.51560   0.01760   0.17310   0.01267  Uiso   1.00
H162   H     0.66810   0.74650   0.31970   0.01267  Uiso   1.00
H163   H     0.58260   0.74980   0.30710   0.01267  Uiso   1.00
H164   H     0.63320   0.86960   0.35790   0.01267  Uiso   1.00
H165   H     0.54260   0.85780   0.35390   0.01267  Uiso   1.00
H166   H     0.63090   0.73250   0.41430   0.01267  Uiso   1.00
H167   H     0.55080   0.71040   0.40180   0.01267  Uiso   1.00
H168   H     0.52490   0.69650   0.50340   0.01267  Uiso   1.00
H169   H     0.47180   0.76620   0.47770   0.01267  Uiso   1.00
H170   H     0.55250   0.78870   0.49030   0.01267  Uiso   1.00
H171   H     0.62630   0.76650   0.20820   0.01267  Uiso   1.00
H172   H     0.71260   0.74600   0.21790   0.01267  Uiso   1.00
H173   H     0.77030   0.85570   0.14140   0.01267  Uiso   1.00
H174   H     0.68400   0.87800   0.13200   0.01267  Uiso   1.00
H175   H     0.76430   0.73290   0.11440   0.01267  Uiso   1.00
H176   H     0.67470   0.74830   0.11010   0.01267  Uiso   1.00
H177   H     0.76530   0.77950   0.01800   0.01267  Uiso   1.00
H178   H     0.81180   0.84460   0.03380   0.01267  Uiso   1.00
H179   H     0.72210   0.85850   0.02920   0.01267  Uiso   1.00
H180   H     0.72150   0.94150   0.24740   0.01267  Uiso   1.00
H181   H     0.75880   0.91800   0.18770   0.01267  Uiso   1.00
H182   H     0.76860   0.80880   0.29790   0.01267  Uiso   1.00
H183   H     0.81710   0.80170   0.23600   0.01267  Uiso   1.00
H184   H     0.87460   0.87060   0.30900   0.01267  Uiso   1.00
H185   H     0.92680   0.83420   0.25860   0.01267  Uiso   1.00
H186   H     0.95440   0.98080   0.23230   0.01267  Uiso   1.00
H187   H     0.86220   0.99380   0.23410   0.01267  Uiso   1.00
H188   H     0.91930   0.95790   0.18560   0.01267  Uiso   1.00
C145   C     0.60260   0.90540   0.22960   0.01267  Uiso   1.00
C146   C     0.52630   0.87470   0.22190   0.01267  Uiso   1.00
C147   C     0.46450   0.93210   0.25170   0.01267  Uiso   1.00
C148   C     0.46130   0.99470   0.19510   0.01267  Uiso   1.00
C149   C     0.62720   0.78320   0.30810   0.01267  Uiso   1.00
C150   C     0.59270   0.83090   0.35750   0.01267  Uiso   1.00
C151   C     0.57730   0.75170   0.41200   0.01267  Uiso   1.00
C152   C     0.52670   0.75070   0.47730   0.01267  Uiso   1.00
C153   C     0.67880   0.79060   0.20530   0.01267  Uiso   1.00
C154   C     0.71690   0.83290   0.14490   0.01267  Uiso   1.00
C155   C     0.72750   0.77510   0.10350   0.01267  Uiso   1.00
C156   C     0.75940   0.81800   0.04080   0.01267  Uiso   1.00
C157   C     0.73630   0.89630   0.23020   0.01267  Uiso   1.00
C158   C     0.80060   0.84060   0.25890   0.01267  Uiso   1.00
C159   C     0.88330   0.87050   0.26820   0.01267  Uiso   1.00
C160   C     0.90710   0.95930   0.22600   0.01267  Uiso   1.00
N13    N     0.66600   0.83980   0.24480   0.01267  Uiso   1.00
H189   H     0.06770   0.41290   0.23920   0.01267  Uiso   1.00
H190   H     0.05330   0.36990   0.30660   0.01267  Uiso   1.00
H191   H     0.18280   0.48680   0.25720   0.01267  Uiso   1.00
H192   H     0.11600   0.47100   0.31950   0.01267  Uiso   1.00
H193   H     0.09560   0.58840   0.22590   0.01267  Uiso   1.00
H194   H     0.04440   0.51340   0.22340   0.01267  Uiso   1.00
H195   H     0.96240   0.57320   0.29560   0.01267  Uiso   1.00
H196   H     0.03120   0.56040   0.32810   0.01267  Uiso   1.00
H197   H     0.98240   0.48440   0.32690   0.01267  Uiso   1.00
H198   H     0.25350   0.33190   0.18030   0.01267  Uiso   1.00
H199   H     0.25020   0.41740   0.19290   0.01267  Uiso   1.00
H200   H     0.13040   0.36680   0.14210   0.01267  Uiso   1.00
H201   H     0.14220   0.45740   0.14610   0.01267  Uiso   1.00
H202   H     0.26750   0.36910   0.08570   0.01267  Uiso   1.00
H203   H     0.28960   0.44920   0.09820   0.01267  Uiso   1.00
H204   H     0.30350   0.47510   0.99660   0.01267  Uiso   1.00
H205   H     0.23380   0.52820   0.02230   0.01267  Uiso   1.00
H206   H     0.21130   0.44750   0.00970   0.01267  Uiso   1.00
H207   H     0.23350   0.37370   0.29180   0.01267  Uiso   1.00
H208   H     0.25400   0.28740   0.28210   0.01267  Uiso   1.00
H209   H     0.14430   0.22970   0.35860   0.01267  Uiso   1.00
H210   H     0.12200   0.31600   0.36800   0.01267  Uiso   1.00
H211   H     0.26710   0.23570   0.38560   0.01267  Uiso   1.00
H212   H     0.25170   0.32530   0.38990   0.01267  Uiso   1.00
H213   H     0.22050   0.23470   0.48200   0.01267  Uiso   1.00
H214   H     0.15540   0.18820   0.46620   0.01267  Uiso   1.00
H215   H     0.14150   0.27790   0.47080   0.01267  Uiso   1.00
H216   H     0.05850   0.27850   0.25260   0.01267  Uiso   1.00
H217   H     0.08200   0.24120   0.31230   0.01267  Uiso   1.00
H218   H     0.19120   0.23140   0.20210   0.01267  Uiso   1.00
H219   H     0.19830   0.18290   0.26400   0.01267  Uiso   1.00
H220   H     0.12940   0.12540   0.19100   0.01267  Uiso   1.00
H221   H     0.16580   0.07320   0.24140   0.01267  Uiso   1.00
H222   H     0.01920   0.04560   0.26770   0.01267  Uiso   1.00
H223   H     0.00620   0.13780   0.26590   0.01267  Uiso   1.00
H224   H     0.04210   0.08070   0.31440   0.01267  Uiso   1.00
C161   C     0.09460   0.39740   0.27040   0.01267  Uiso   1.00
C162   C     0.12530   0.47370   0.27810   0.01267  Uiso   1.00
C163   C     0.06790   0.53550   0.24830   0.01267  Uiso   1.00
C164   C     0.00530   0.53870   0.30490   0.01267  Uiso   1.00
C165   C     0.21680   0.37280   0.19190   0.01267  Uiso   1.00
C166   C     0.16910   0.40730   0.14250   0.01267  Uiso   1.00
C167   C     0.24830   0.42270   0.08800   0.01267  Uiso   1.00
C168   C     0.24930   0.47330   0.02270   0.01267  Uiso   1.00
C169   C     0.20940   0.32120   0.29470   0.01267  Uiso   1.00
C170   C     0.16710   0.28310   0.35510   0.01267  Uiso   1.00
C171   C     0.22490   0.27250   0.39650   0.01267  Uiso   1.00
C172   C     0.18200   0.24060   0.45920   0.01267  Uiso   1.00
C173   C     0.10370   0.26370   0.26980   0.01267  Uiso   1.00
C174   C     0.15940   0.19940   0.24110   0.01267  Uiso   1.00
C175   C     0.12950   0.11670   0.23180   0.01267  Uiso   1.00
C176   C     0.04070   0.09290   0.27400   0.01267  Uiso   1.00
N14    N     0.16020   0.33400   0.25520   0.01267  Uiso   1.00
H225   H     0.41290   0.06770   0.73920   0.01267  Uiso   1.00
H226   H     0.36990   0.05330   0.80660   0.01267  Uiso   1.00
H227   H     0.48680   0.18280   0.75720   0.01267  Uiso   1.00
H228   H     0.47100   0.11600   0.81950   0.01267  Uiso   1.00
H229   H     0.58840   0.09560   0.72590   0.01267  Uiso   1.00
H230   H     0.51340   0.04440   0.72340   0.01267  Uiso   1.00
H231   H     0.57320   0.96240   0.79560   0.01267  Uiso   1.00
H232   H     0.56040   0.03120   0.82810   0.01267  Uiso   1.00
H233   H     0.48440   0.98240   0.82690   0.01267  Uiso   1.00
H234   H     0.33190   0.25350   0.68030   0.01267  Uiso   1.00
H235   H     0.41740   0.25020   0.69290   0.01267  Uiso   1.00
H236   H     0.36680   0.13040   0.64210   0.01267  Uiso   1.00
H237   H     0.45740   0.14220   0.64610   0.01267  Uiso   1.00
H238   H     0.36910   0.26750   0.58570   0.01267  Uiso   1.00
H239   H     0.44920   0.28960   0.59820   0.01267  Uiso   1.00
H240   H     0.47510   0.30350   0.49660   0.01267  Uiso   1.00
H241   H     0.52820   0.23380   0.52230   0.01267  Uiso   1.00
H242   H     0.44750   0.21130   0.50970   0.01267  Uiso   1.00
H243   H     0.37370   0.23350   0.79180   0.01267  Uiso   1.00
H244   H     0.28740   0.25400   0.78210   0.01267  Uiso   1.00
H245   H     0.22970   0.14430   0.85860   0.01267  Uiso   1.00
H246   H     0.31600   0.12200   0.86800   0.01267  Uiso   1.00
H247   H     0.23570   0.26710   0.88560   0.01267  Uiso   1.00
H248   H     0.32530   0.25170   0.88990   0.01267  Uiso   1.00
H249   H     0.23470   0.22050   0.98200   0.01267  Uiso   1.00
H250   H     0.18820   0.15540   0.96620   0.01267  Uiso   1.00
H251   H     0.27790   0.14150   0.97080   0.01267  Uiso   1.00
H252   H     0.27850   0.05850   0.75260   0.01267  Uiso   1.00
H253   H     0.24120   0.08200   0.81230   0.01267  Uiso   1.00
H254   H     0.23140   0.19120   0.70210   0.01267  Uiso   1.00
H255   H     0.18290   0.19830   0.76400   0.01267  Uiso   1.00
H256   H     0.12540   0.12940   0.69100   0.01267  Uiso   1.00
H257   H     0.07320   0.16580   0.74140   0.01267  Uiso   1.00
H258   H     0.04560   0.01920   0.76770   0.01267  Uiso   1.00
H259   H     0.13780   0.00620   0.76590   0.01267  Uiso   1.00
H260   H     0.08070   0.04210   0.81440   0.01267  Uiso   1.00
C177   C     0.39740   0.09460   0.77040   0.01267  Uiso   1.00
C178   C     0.47370   0.12530   0.77810   0.01267  Uiso   1.00
C179   C     0.53550   0.06790   0.74830   0.01267  Uiso   1.00
C180   C     0.53870   0.00530   0.80490   0.01267  Uiso   1.00
C181   C     0.37280   0.21680   0.69190   0.01267  Uiso   1.00
C182   C     0.40730   0.16910   0.64250   0.01267  Uiso   1.00
C183   C     0.42270   0.24830   0.58800   0.01267  Uiso   1.00
C184   C     0.47330   0.24930   0.52270   0.01267  Uiso   1.00
C185   C     0.32120   0.20940   0.79470   0.01267  Uiso   1.00
C186   C     0.28310   0.16710   0.85510   0.01267  Uiso   1.00
C187   C     0.27250   0.22490   0.89650   0.01267  Uiso   1.00
C188   C     0.24060   0.18200   0.95920   0.01267  Uiso   1.00
C189   C     0.26370   0.10370   0.76980   0.01267  Uiso   1.00
C190   C     0.19940   0.15940   0.74110   0.01267  Uiso   1.00
C191   C     0.11670   0.12950   0.73180   0.01267  Uiso   1.00
C192   C     0.09290   0.04070   0.77400   0.01267  Uiso   1.00
N15    N     0.33400   0.16020   0.75520   0.01267  Uiso   1.00
H261   H     0.93230   0.58710   0.76080   0.01267  Uiso   1.00
H262   H     0.94670   0.63010   0.69340   0.01267  Uiso   1.00
H263   H     0.81720   0.51320   0.74280   0.01267  Uiso   1.00
H264   H     0.88400   0.52900   0.68050   0.01267  Uiso   1.00
H265   H     0.90440   0.41160   0.77410   0.01267  Uiso   1.00
H266   H     0.95560   0.48660   0.77660   0.01267  Uiso   1.00
H267   H     0.03760   0.42680   0.70440   0.01267  Uiso   1.00
H268   H     0.96880   0.43960   0.67190   0.01267  Uiso   1.00
H269   H     0.01760   0.51560   0.67310   0.01267  Uiso   1.00
H270   H     0.74650   0.66810   0.81970   0.01267  Uiso   1.00
H271   H     0.74980   0.58260   0.80710   0.01267  Uiso   1.00
H272   H     0.86960   0.63320   0.85790   0.01267  Uiso   1.00
H273   H     0.85780   0.54260   0.85390   0.01267  Uiso   1.00
H274   H     0.73250   0.63090   0.91430   0.01267  Uiso   1.00
H275   H     0.71040   0.55080   0.90180   0.01267  Uiso   1.00
H276   H     0.69650   0.52490   0.00340   0.01267  Uiso   1.00
H277   H     0.76620   0.47180   0.97770   0.01267  Uiso   1.00
H278   H     0.78870   0.55250   0.99030   0.01267  Uiso   1.00
H279   H     0.76650   0.62630   0.70820   0.01267  Uiso   1.00
H280   H     0.74600   0.71260   0.71790   0.01267  Uiso   1.00
H281   H     0.85570   0.77030   0.64140   0.01267  Uiso   1.00
H282   H     0.87800   0.68400   0.63200   0.01267  Uiso   1.00
H283   H     0.73290   0.76430   0.61440   0.01267  Uiso   1.00
H284   H     0.74830   0.67470   0.61010   0.01267  Uiso   1.00
H285   H     0.77950   0.76530   0.51800   0.01267  Uiso   1.00
H286   H     0.84460   0.81180   0.53380   0.01267  Uiso   1.00
H287   H     0.85850   0.72210   0.52920   0.01267  Uiso   1.00
H288   H     0.94150   0.72150   0.74740   0.01267  Uiso   1.00
H289   H     0.91800   0.75880   0.68770   0.01267  Uiso   1.00
H290   H     0.80880   0.76860   0.79790   0.01267  Uiso   1.00
H291   H     0.80170   0.81710   0.73600   0.01267  Uiso   1.00
H292   H     0.87060   0.87460   0.80900   0.01267  Uiso   1.00
H293   H     0.83420   0.92680   0.75860   0.01267  Uiso   1.00
H294   H     0.98080   0.95440   0.73230   0.01267  Uiso   1.00
H295   H     0.99380   0.86220   0.73410   0.01267  Uiso   1.00
H296   H     0.95790   0.91930   0.68560   0.01267  Uiso   1.00
C193   C     0.90540   0.60260   0.72960   0.01267  Uiso   1.00
C194   C     0.87470   0.52630   0.72190   0.01267  Uiso   1.00
C195   C     0.93210   0.46450   0.75170   0.01267  Uiso   1.00
C196   C     0.99470   0.46130   0.69510   0.01267  Uiso   1.00
C197   C     0.78320   0.62720   0.80810   0.01267  Uiso   1.00
C198   C     0.83090   0.59270   0.85750   0.01267  Uiso   1.00
C199   C     0.75170   0.57730   0.91200   0.01267  Uiso   1.00
C200   C     0.75070   0.52670   0.97730   0.01267  Uiso   1.00
C201   C     0.79060   0.67880   0.70530   0.01267  Uiso   1.00
C202   C     0.83290   0.71690   0.64490   0.01267  Uiso   1.00
C203   C     0.77510   0.72750   0.60350   0.01267  Uiso   1.00
C204   C     0.81800   0.75940   0.54080   0.01267  Uiso   1.00
C205   C     0.89630   0.73630   0.73020   0.01267  Uiso   1.00
C206   C     0.84060   0.80060   0.75890   0.01267  Uiso   1.00
C207   C     0.87050   0.88330   0.76820   0.01267  Uiso   1.00
C208   C     0.95930   0.90710   0.72600   0.01267  Uiso   1.00
N16    N     0.83980   0.66600   0.74480   0.01267  Uiso   1.00
