data_image0
_cell_length_a       29.601
_cell_length_b       29.601
_cell_length_c       3.4496
_cell_angle_alpha    90
_cell_angle_beta     90
_cell_angle_gamma    90

_symmetry_space_group_name_H-M    "P 1"
_symmetry_int_tables_number       1

loop_
  _symmetry_equiv_pos_as_xyz
  'x, y, z'

loop_
  _atom_site_label
  _atom_site_occupancy
  _atom_site_fract_x
  _atom_site_fract_y
  _atom_site_fract_z
  _atom_site_thermal_displace_type
  _atom_site_B_iso_or_equiv
  _atom_site_type_symbol
  C1       1.0000 0.34266  0.28540  0.45270  Biso   1.000  C
  N1       1.0000 0.38334  0.27323  0.32670  Biso   1.000  N
  N2       1.0000 0.33060  0.33390  0.49100  Biso   1.000  N
  H1       1.0000 0.35000  0.35440  0.43230  Biso   1.000  H
  H2       1.0000 0.30420  0.34140  0.57320  Biso   1.000  H
  H3       1.0000 0.33310  0.31620  0.48150  Biso   1.000  H
  C2       1.0000 0.84266  0.78540  0.95270  Biso   1.000  C
  N3       1.0000 0.88334  0.77323  0.82670  Biso   1.000  N
  N4       1.0000 0.83060  0.83390  0.99100  Biso   1.000  N
  H4       1.0000 0.85000  0.85440  0.93230  Biso   1.000  H
  H5       1.0000 0.80420  0.84140  0.07320  Biso   1.000  H
  H6       1.0000 0.83310  0.81620  0.98150  Biso   1.000  H
  C3       1.0000 0.15734  0.71460  0.95270  Biso   1.000  C
  N5       1.0000 0.11666  0.72677  0.82670  Biso   1.000  N
  N6       1.0000 0.16940  0.66610  0.99100  Biso   1.000  N
  H7       1.0000 0.15000  0.64560  0.93230  Biso   1.000  H
  H8       1.0000 0.19580  0.65860  0.07320  Biso   1.000  H
  H9       1.0000 0.16690  0.68380  0.98150  Biso   1.000  H
  C4       1.0000 0.65734  0.21460  0.45270  Biso   1.000  C
  N7       1.0000 0.61666  0.22677  0.32670  Biso   1.000  N
  N8       1.0000 0.66940  0.16610  0.49100  Biso   1.000  N
  H10      1.0000 0.65000  0.14560  0.43230  Biso   1.000  H
  H11      1.0000 0.69580  0.15860  0.57320  Biso   1.000  H
  H12      1.0000 0.66690  0.18380  0.48150  Biso   1.000  H
  C5       1.0000 0.96460  0.09266  0.70270  Biso   1.000  C
  N9       1.0000 0.97677  0.13334  0.57670  Biso   1.000  N
  N10      1.0000 0.91610  0.08060  0.74100  Biso   1.000  N
  H13      1.0000 0.89560  0.10000  0.68230  Biso   1.000  H
  H14      1.0000 0.90860  0.05420  0.82320  Biso   1.000  H
  H15      1.0000 0.93380  0.08310  0.73150  Biso   1.000  H
  C6       1.0000 0.46460  0.59266  0.20270  Biso   1.000  C
  N11      1.0000 0.47677  0.63334  0.07670  Biso   1.000  N
  N12      1.0000 0.41610  0.58060  0.24100  Biso   1.000  N
  H16      1.0000 0.39560  0.60000  0.18230  Biso   1.000  H
  H17      1.0000 0.40860  0.55420  0.32320  Biso   1.000  H
  H18      1.0000 0.43380  0.58310  0.23150  Biso   1.000  H
  C7       1.0000 0.53540  0.90734  0.20270  Biso   1.000  C
  N13      1.0000 0.52323  0.86666  0.07670  Biso   1.000  N
  N14      1.0000 0.58390  0.91940  0.24100  Biso   1.000  N
  H19      1.0000 0.60440  0.90000  0.18230  Biso   1.000  H
  H20      1.0000 0.59140  0.94580  0.32320  Biso   1.000  H
  H21      1.0000 0.56620  0.91690  0.23150  Biso   1.000  H
  C8       1.0000 0.03540  0.40734  0.70270  Biso   1.000  C
  N15      1.0000 0.02323  0.36666  0.57670  Biso   1.000  N
  N16      1.0000 0.08390  0.41940  0.74100  Biso   1.000  N
  H22      1.0000 0.10440  0.40000  0.68230  Biso   1.000  H
  H23      1.0000 0.09140  0.44580  0.82320  Biso   1.000  H
  H24      1.0000 0.06620  0.41690  0.73150  Biso   1.000  H
  C9       1.0000 0.15734  0.28540  0.04730  Biso   1.000  C
  N17      1.0000 0.11666  0.27323  0.17330  Biso   1.000  N
  N18      1.0000 0.16940  0.33390  0.00900  Biso   1.000  N
  H25      1.0000 0.15000  0.35440  0.06770  Biso   1.000  H
  H26      1.0000 0.19580  0.34140  0.92680  Biso   1.000  H
  H27      1.0000 0.16690  0.31620  0.01850  Biso   1.000  H
  C10      1.0000 0.65734  0.78540  0.54730  Biso   1.000  C
  N19      1.0000 0.61666  0.77323  0.67330  Biso   1.000  N
  N20      1.0000 0.66940  0.83390  0.50900  Biso   1.000  N
  H28      1.0000 0.65000  0.85440  0.56770  Biso   1.000  H
  H29      1.0000 0.69580  0.84140  0.42680  Biso   1.000  H
  H30      1.0000 0.66690  0.81620  0.51850  Biso   1.000  H
  C11      1.0000 0.34266  0.71460  0.54730  Biso   1.000  C
  N21      1.0000 0.38334  0.72677  0.67330  Biso   1.000  N
  N22      1.0000 0.33060  0.66610  0.50900  Biso   1.000  N
  H31      1.0000 0.35000  0.64560  0.56770  Biso   1.000  H
  H32      1.0000 0.30420  0.65860  0.42680  Biso   1.000  H
  H33      1.0000 0.33310  0.68380  0.51850  Biso   1.000  H
  C12      1.0000 0.84266  0.21460  0.04730  Biso   1.000  C
  N23      1.0000 0.88334  0.22677  0.17330  Biso   1.000  N
  N24      1.0000 0.83060  0.16610  0.00900  Biso   1.000  N
  H34      1.0000 0.85000  0.14560  0.06770  Biso   1.000  H
  H35      1.0000 0.80420  0.15860  0.92680  Biso   1.000  H
  H36      1.0000 0.83310  0.18380  0.01850  Biso   1.000  H
  C13      1.0000 0.53540  0.09266  0.79730  Biso   1.000  C
  N25      1.0000 0.52323  0.13334  0.92330  Biso   1.000  N
  N26      1.0000 0.58390  0.08060  0.75900  Biso   1.000  N
  H37      1.0000 0.60440  0.10000  0.81770  Biso   1.000  H
  H38      1.0000 0.59140  0.05420  0.67680  Biso   1.000  H
  H39      1.0000 0.56620  0.08310  0.76850  Biso   1.000  H
  C14      1.0000 0.03540  0.59266  0.29730  Biso   1.000  C
  N27      1.0000 0.02323  0.63334  0.42330  Biso   1.000  N
  N28      1.0000 0.08390  0.58060  0.25900  Biso   1.000  N
  H40      1.0000 0.10440  0.60000  0.31770  Biso   1.000  H
  H41      1.0000 0.09140  0.55420  0.17680  Biso   1.000  H
  H42      1.0000 0.06620  0.58310  0.26850  Biso   1.000  H
  C15      1.0000 0.96460  0.90734  0.29730  Biso   1.000  C
  N29      1.0000 0.97677  0.86666  0.42330  Biso   1.000  N
  N30      1.0000 0.91610  0.91940  0.25900  Biso   1.000  N
  H43      1.0000 0.89560  0.90000  0.31770  Biso   1.000  H
  H44      1.0000 0.90860  0.94580  0.17680  Biso   1.000  H
  H45      1.0000 0.93380  0.91690  0.26850  Biso   1.000  H
  C16      1.0000 0.46460  0.40734  0.79730  Biso   1.000  C
  N31      1.0000 0.47677  0.36666  0.92330  Biso   1.000  N
  N32      1.0000 0.41610  0.41940  0.75900  Biso   1.000  N
  H46      1.0000 0.39560  0.40000  0.81770  Biso   1.000  H
  H47      1.0000 0.40860  0.44580  0.67680  Biso   1.000  H
  H48      1.0000 0.43380  0.41690  0.76850  Biso   1.000  H
  C17      1.0000 0.65734  0.71460  0.54730  Biso   1.000  C
  N33      1.0000 0.61666  0.72677  0.67330  Biso   1.000  N
  N34      1.0000 0.66940  0.66610  0.50900  Biso   1.000  N
  H49      1.0000 0.65000  0.64560  0.56770  Biso   1.000  H
  H50      1.0000 0.69580  0.65860  0.42680  Biso   1.000  H
  H51      1.0000 0.66690  0.68380  0.51850  Biso   1.000  H
  C18      1.0000 0.15734  0.21460  0.04730  Biso   1.000  C
  N35      1.0000 0.11666  0.22677  0.17330  Biso   1.000  N
  N36      1.0000 0.16940  0.16610  0.00900  Biso   1.000  N
  H52      1.0000 0.15000  0.14560  0.06770  Biso   1.000  H
  H53      1.0000 0.19580  0.15860  0.92680  Biso   1.000  H
  H54      1.0000 0.16690  0.18380  0.01850  Biso   1.000  H
  C19      1.0000 0.84266  0.28540  0.04730  Biso   1.000  C
  N37      1.0000 0.88334  0.27323  0.17330  Biso   1.000  N
  N38      1.0000 0.83060  0.33390  0.00900  Biso   1.000  N
  H55      1.0000 0.85000  0.35440  0.06770  Biso   1.000  H
  H56      1.0000 0.80420  0.34140  0.92680  Biso   1.000  H
  H57      1.0000 0.83310  0.31620  0.01850  Biso   1.000  H
  C20      1.0000 0.34266  0.78540  0.54730  Biso   1.000  C
  N39      1.0000 0.38334  0.77323  0.67330  Biso   1.000  N
  N40      1.0000 0.33060  0.83390  0.50900  Biso   1.000  N
  H58      1.0000 0.35000  0.85440  0.56770  Biso   1.000  H
  H59      1.0000 0.30420  0.84140  0.42680  Biso   1.000  H
  H60      1.0000 0.33310  0.81620  0.51850  Biso   1.000  H
  C21      1.0000 0.03540  0.90734  0.29730  Biso   1.000  C
  N41      1.0000 0.02323  0.86666  0.42330  Biso   1.000  N
  N42      1.0000 0.08390  0.91940  0.25900  Biso   1.000  N
  H61      1.0000 0.10440  0.90000  0.31770  Biso   1.000  H
  H62      1.0000 0.09140  0.94580  0.17680  Biso   1.000  H
  H63      1.0000 0.06620  0.91690  0.26850  Biso   1.000  H
  C22      1.0000 0.53540  0.40734  0.79730  Biso   1.000  C
  N43      1.0000 0.52323  0.36666  0.92330  Biso   1.000  N
  N44      1.0000 0.58390  0.41940  0.75900  Biso   1.000  N
  H64      1.0000 0.60440  0.40000  0.81770  Biso   1.000  H
  H65      1.0000 0.59140  0.44580  0.67680  Biso   1.000  H
  H66      1.0000 0.56620  0.41690  0.76850  Biso   1.000  H
  C23      1.0000 0.46460  0.09266  0.79730  Biso   1.000  C
  N45      1.0000 0.47677  0.13334  0.92330  Biso   1.000  N
  N46      1.0000 0.41610  0.08060  0.75900  Biso   1.000  N
  H67      1.0000 0.39560  0.10000  0.81770  Biso   1.000  H
  H68      1.0000 0.40860  0.05420  0.67680  Biso   1.000  H
  H69      1.0000 0.43380  0.08310  0.76850  Biso   1.000  H
  C24      1.0000 0.96460  0.59266  0.29730  Biso   1.000  C
  N47      1.0000 0.97677  0.63334  0.42330  Biso   1.000  N
  N48      1.0000 0.91610  0.58060  0.25900  Biso   1.000  N
  H70      1.0000 0.89560  0.60000  0.31770  Biso   1.000  H
  H71      1.0000 0.90860  0.55420  0.17680  Biso   1.000  H
  H72      1.0000 0.93380  0.58310  0.26850  Biso   1.000  H
  C25      1.0000 0.84266  0.71460  0.95270  Biso   1.000  C
  N49      1.0000 0.88334  0.72677  0.82670  Biso   1.000  N
  N50      1.0000 0.83060  0.66610  0.99100  Biso   1.000  N
  H73      1.0000 0.85000  0.64560  0.93230  Biso   1.000  H
  H74      1.0000 0.80420  0.65860  0.07320  Biso   1.000  H
  H75      1.0000 0.83310  0.68380  0.98150  Biso   1.000  H
  C26      1.0000 0.34266  0.21460  0.45270  Biso   1.000  C
  N51      1.0000 0.38334  0.22677  0.32670  Biso   1.000  N
  N52      1.0000 0.33060  0.16610  0.49100  Biso   1.000  N
  H76      1.0000 0.35000  0.14560  0.43230  Biso   1.000  H
  H77      1.0000 0.30420  0.15860  0.57320  Biso   1.000  H
  H78      1.0000 0.33310  0.18380  0.48150  Biso   1.000  H
  C27      1.0000 0.65734  0.28540  0.45270  Biso   1.000  C
  N53      1.0000 0.61666  0.27323  0.32670  Biso   1.000  N
  N54      1.0000 0.66940  0.33390  0.49100  Biso   1.000  N
  H79      1.0000 0.65000  0.35440  0.43230  Biso   1.000  H
  H80      1.0000 0.69580  0.34140  0.57320  Biso   1.000  H
  H81      1.0000 0.66690  0.31620  0.48150  Biso   1.000  H
  C28      1.0000 0.15734  0.78540  0.95270  Biso   1.000  C
  N55      1.0000 0.11666  0.77323  0.82670  Biso   1.000  N
  N56      1.0000 0.16940  0.83390  0.99100  Biso   1.000  N
  H82      1.0000 0.15000  0.85440  0.93230  Biso   1.000  H
  H83      1.0000 0.19580  0.84140  0.07320  Biso   1.000  H
  H84      1.0000 0.16690  0.81620  0.98150  Biso   1.000  H
  C29      1.0000 0.46460  0.90734  0.20270  Biso   1.000  C
  N57      1.0000 0.47677  0.86666  0.07670  Biso   1.000  N
  N58      1.0000 0.41610  0.91940  0.24100  Biso   1.000  N
  H85      1.0000 0.39560  0.90000  0.18230  Biso   1.000  H
  H86      1.0000 0.40860  0.94580  0.32320  Biso   1.000  H
  H87      1.0000 0.43380  0.91690  0.23150  Biso   1.000  H
  C30      1.0000 0.96460  0.40734  0.70270  Biso   1.000  C
  N59      1.0000 0.97677  0.36666  0.57670  Biso   1.000  N
  N60      1.0000 0.91610  0.41940  0.74100  Biso   1.000  N
  H88      1.0000 0.89560  0.40000  0.68230  Biso   1.000  H
  H89      1.0000 0.90860  0.44580  0.82320  Biso   1.000  H
  H90      1.0000 0.93380  0.41690  0.73150  Biso   1.000  H
  C31      1.0000 0.03540  0.09266  0.70270  Biso   1.000  C
  N61      1.0000 0.02323  0.13334  0.57670  Biso   1.000  N
  N62      1.0000 0.08390  0.08060  0.74100  Biso   1.000  N
  H91      1.0000 0.10440  0.10000  0.68230  Biso   1.000  H
  H92      1.0000 0.09140  0.05420  0.82320  Biso   1.000  H
  H93      1.0000 0.06620  0.08310  0.73150  Biso   1.000  H
  C32      1.0000 0.53540  0.59266  0.20270  Biso   1.000  C
  N63      1.0000 0.52323  0.63334  0.07670  Biso   1.000  N
  N64      1.0000 0.58390  0.58060  0.24100  Biso   1.000  N
  H94      1.0000 0.60440  0.60000  0.18230  Biso   1.000  H
  H95      1.0000 0.59140  0.55420  0.32320  Biso   1.000  H
  H96      1.0000 0.56620  0.58310  0.23150  Biso   1.000  H
  Ag1      1.0000 0.43961  0.31039  0.12500  Biso   1.000  Ag
  Ag2      1.0000 0.06039  0.68961  0.62500  Biso   1.000  Ag
  Ag3      1.0000 0.93961  0.18961  0.37500  Biso   1.000  Ag
  Ag4      1.0000 0.56039  0.81039  0.87500  Biso   1.000  Ag
  Ag5      1.0000 0.06039  0.31039  0.37500  Biso   1.000  Ag
  Ag6      1.0000 0.43961  0.68961  0.87500  Biso   1.000  Ag
  Ag7      1.0000 0.56039  0.18961  0.12500  Biso   1.000  Ag
  Ag8      1.0000 0.93961  0.81039  0.62500  Biso   1.000  Ag
  Ag9      1.0000 0.56039  0.68961  0.87500  Biso   1.000  Ag
  Ag10     1.0000 0.93961  0.31039  0.37500  Biso   1.000  Ag
  Ag11     1.0000 0.06039  0.81039  0.62500  Biso   1.000  Ag
  Ag12     1.0000 0.43961  0.18961  0.12500  Biso   1.000  Ag
  Ag13     1.0000 0.93961  0.68961  0.62500  Biso   1.000  Ag
  Ag14     1.0000 0.56039  0.31039  0.12500  Biso   1.000  Ag
  Ag15     1.0000 0.43961  0.81039  0.87500  Biso   1.000  Ag
  Ag16     1.0000 0.06039  0.18961  0.37500  Biso   1.000  Ag
  Ag17     1.0000 0.25000  0.25000  0.75000  Biso   1.000  Ag
  Ag18     1.0000 0.25000  0.75000  0.25000  Biso   1.000  Ag
  Ag19     1.0000 0.00000  0.00000  0.00000  Biso   1.000  Ag
  Ag20     1.0000 0.50000  0.50000  0.50000  Biso   1.000  Ag
  Ag21     1.0000 0.50000  0.00000  0.50000  Biso   1.000  Ag
  Ag22     1.0000 0.00000  0.50000  0.00000  Biso   1.000  Ag
  Ag23     1.0000 0.75000  0.25000  0.75000  Biso   1.000  Ag
  Ag24     1.0000 0.75000  0.75000  0.25000  Biso   1.000  Ag
  N65      1.0000 0.31650  0.25000  0.53400  Biso   1.000  N
  N66      1.0000 0.18350  0.75000  0.03400  Biso   1.000  N
  N67      1.0000 0.00000  0.06650  0.78400  Biso   1.000  N
  N68      1.0000 0.50000  0.56650  0.28400  Biso   1.000  N
  N69      1.0000 0.50000  0.93350  0.28400  Biso   1.000  N
  N70      1.0000 0.00000  0.43350  0.78400  Biso   1.000  N
  N71      1.0000 0.18350  0.25000  0.96600  Biso   1.000  N
  N72      1.0000 0.31650  0.75000  0.46600  Biso   1.000  N
  N73      1.0000 0.81650  0.25000  0.96600  Biso   1.000  N
  N74      1.0000 0.50000  0.06650  0.71600  Biso   1.000  N
  N75      1.0000 0.00000  0.56650  0.21600  Biso   1.000  N
  N76      1.0000 0.00000  0.93350  0.21600  Biso   1.000  N
  N77      1.0000 0.50000  0.43350  0.71600  Biso   1.000  N
  N78      1.0000 0.68350  0.75000  0.46600  Biso   1.000  N
  N79      1.0000 0.81650  0.75000  0.03400  Biso   1.000  N
  N80      1.0000 0.68350  0.25000  0.53400  Biso   1.000  N
