data_image0
_cell_length_a       18.228
_cell_length_b       11.9701
_cell_length_c       34.062
_cell_angle_alpha    90
_cell_angle_beta     122.355
_cell_angle_gamma    90

_symmetry_space_group_name_H-M    "P 1"
_symmetry_int_tables_number       1

loop_
  _symmetry_equiv_pos_as_xyz
  'x, y, z'

loop_
  _atom_site_label
  _atom_site_occupancy
  _atom_site_fract_x
  _atom_site_fract_y
  _atom_site_fract_z
  _atom_site_thermal_displace_type
  _atom_site_B_iso_or_equiv
  _atom_site_type_symbol
  In1      1.0000 0.12494  0.99447  0.12466  Biso   1.000  In
  In2      1.0000 0.25082  0.99281  0.25032  Biso   1.000  In
  In3      1.0000 0.62472  0.49530  0.12514  Biso   1.000  In
  C1       1.0000 0.16680  0.14630  0.06343  Biso   1.000  C
  C2       1.0000 0.23610  0.21320  0.06309  Biso   1.000  C
  C3       1.0000 0.22280  0.25430  0.02160  Biso   1.000  C
  H1       1.0000 0.16930  0.24490  0.99410  Biso   1.000  H
  C4       1.0000 0.28780  0.30810  0.02116  Biso   1.000  C
  H2       1.0000 0.27880  0.33360  0.99310  Biso   1.000  H
  C5       1.0000 0.36840  0.32590  0.06245  Biso   1.000  C
  C6       1.0000 0.38080  0.28760  0.10340  Biso   1.000  C
  H3       1.0000 0.43360  0.30000  0.13100  Biso   1.000  H
  C7       1.0000 0.31430  0.22980  0.10421  Biso   1.000  C
  H4       1.0000 0.32310  0.20320  0.13210  Biso   1.000  H
  C8       1.0000 0.44000  0.38400  0.06150  Biso   1.000  C
  C9       1.0000 0.58550  0.64430  0.18776  Biso   1.000  C
  C10      1.0000 0.51610  0.71240  0.18807  Biso   1.000  C
  C11      1.0000 0.52170  0.73370  0.22909  Biso   1.000  C
  H5       1.0000 0.56980  0.70900  0.25690  Biso   1.000  H
  C12      1.0000 0.45520  0.79270  0.22940  Biso   1.000  C
  H6       1.0000 0.46020  0.81010  0.25740  Biso   1.000  H
  C13      1.0000 0.38280  0.82410  0.18777  Biso   1.000  C
  C14      1.0000 0.37700  0.80180  0.14571  Biso   1.000  C
  H7       1.0000 0.32840  0.82450  0.11770  Biso   1.000  H
  C15      1.0000 0.44310  0.74670  0.14626  Biso   1.000  C
  H8       1.0000 0.43930  0.73190  0.11840  Biso   1.000  H
  C16      1.0000 0.30870  0.88190  0.18700  Biso   1.000  C
  C17      1.0000 0.94270  0.11280  0.06334  Biso   1.000  C
  C18      1.0000 0.87030  0.17250  0.06333  Biso   1.000  C
  C19      1.0000 0.79850  0.21080  0.02158  Biso   1.000  C
  H9       1.0000 0.79610  0.19950  0.99390  Biso   1.000  H
  C20      1.0000 0.73260  0.26420  0.02099  Biso   1.000  C
  H10      1.0000 0.68440  0.28690  0.99280  Biso   1.000  H
  C21      1.0000 0.73620  0.28560  0.06213  Biso   1.000  C
  C22      1.0000 0.80670  0.24910  0.10363  Biso   1.000  C
  H11      1.0000 0.80990  0.26300  0.13140  Biso   1.000  H
  C23      1.0000 0.87360  0.19090  0.10380  Biso   1.000  C
  H12      1.0000 0.92060  0.16460  0.13170  Biso   1.000  H
  C24      1.0000 0.66640  0.35060  0.06214  Biso   1.000  C
  C25      1.0000 0.80740  0.61110  0.18779  Biso   1.000  C
  C26      1.0000 0.87990  0.67180  0.18816  Biso   1.000  C
  C27      1.0000 0.95520  0.69590  0.22936  Biso   1.000  C
  H13      1.0000 0.96230  0.67340  0.25730  Biso   1.000  H
  C28      1.0000 0.02180  0.75500  0.22909  Biso   1.000  C
  H14      1.0000 0.07210  0.77460  0.25700  Biso   1.000  H
  C29      1.0000 0.01230  0.78370  0.18736  Biso   1.000  C
  C30      1.0000 0.93490  0.75780  0.14565  Biso   1.000  C
  H15      1.0000 0.92800  0.77810  0.11750  Biso   1.000  H
  C31      1.0000 0.87010  0.70370  0.14595  Biso   1.000  C
  H16      1.0000 0.81880  0.68750  0.11800  Biso   1.000  H
  C32      1.0000 0.08370  0.84760  0.18750  Biso   1.000  C
  O1       1.0000 0.17990  0.07890  0.18770  Biso   1.000  O
  O2       1.0000 0.06880  0.90990  0.06168  Biso   1.000  O
  O3       1.0000 0.67960  0.40590  0.18711  Biso   1.000  O
  O4       1.0000 0.57040  0.58390  0.06325  Biso   1.000  O
  O5       1.0000 0.10060  0.12290  0.02440  Biso   1.000  O
  O6       1.0000 0.17920  0.12010  0.10227  Biso   1.000  O
  O7       1.0000 0.42740  0.40980  0.02293  Biso   1.000  O
  O8       1.0000 0.50820  0.40210  0.10036  Biso   1.000  O
  O9       1.0000 0.57310  0.61860  0.14924  Biso   1.000  O
  O10      1.0000 0.64950  0.61740  0.22681  Biso   1.000  O
  O11      1.0000 0.31900  0.90060  0.22583  Biso   1.000  O
  O12      1.0000 0.24360  0.90470  0.14850  Biso   1.000  O
  O13      1.0000 0.00860  0.08800  0.10272  Biso   1.000  O
  O14      1.0000 0.93220  0.09340  0.02460  Biso   1.000  O
  O15      1.0000 0.67790  0.37370  0.10094  Biso   1.000  O
  O16      1.0000 0.59970  0.37470  0.02317  Biso   1.000  O
  O17      1.0000 0.74160  0.58980  0.14946  Biso   1.000  O
  O18      1.0000 0.81930  0.58790  0.22680  Biso   1.000  O
  O19      1.0000 0.14850  0.87130  0.22615  Biso   1.000  O
  O20      1.0000 0.07160  0.87100  0.14864  Biso   1.000  O
  H17      1.0000 0.19400  0.14200  0.20000  Biso   1.000  H
  H18      1.0000 0.07700  0.84080  0.06000  Biso   1.000  H
  H19      1.0000 0.68800  0.33900  0.18300  Biso   1.000  H
  H20      1.0000 0.58900  0.65000  0.06400  Biso   1.000  H
  In4      1.0000 0.87506  0.49447  0.37534  Biso   1.000  In
  In5      1.0000 0.74918  0.49281  0.24968  Biso   1.000  In
  In6      1.0000 0.37528  0.99530  0.37486  Biso   1.000  In
  C33      1.0000 0.83320  0.64630  0.43657  Biso   1.000  C
  C34      1.0000 0.76390  0.71320  0.43691  Biso   1.000  C
  C35      1.0000 0.77720  0.75430  0.47840  Biso   1.000  C
  H21      1.0000 0.83070  0.74490  0.50590  Biso   1.000  H
  C36      1.0000 0.71220  0.80810  0.47884  Biso   1.000  C
  H22      1.0000 0.72120  0.83360  0.50690  Biso   1.000  H
  C37      1.0000 0.63160  0.82590  0.43755  Biso   1.000  C
  C38      1.0000 0.61920  0.78760  0.39660  Biso   1.000  C
  H23      1.0000 0.56640  0.80000  0.36900  Biso   1.000  H
  C39      1.0000 0.68570  0.72980  0.39579  Biso   1.000  C
  H24      1.0000 0.67690  0.70320  0.36790  Biso   1.000  H
  C40      1.0000 0.56000  0.88400  0.43850  Biso   1.000  C
  C41      1.0000 0.41450  0.14430  0.31224  Biso   1.000  C
  C42      1.0000 0.48390  0.21240  0.31193  Biso   1.000  C
  C43      1.0000 0.47830  0.23370  0.27091  Biso   1.000  C
  H25      1.0000 0.43020  0.20900  0.24310  Biso   1.000  H
  C44      1.0000 0.54480  0.29270  0.27060  Biso   1.000  C
  H26      1.0000 0.53980  0.31010  0.24260  Biso   1.000  H
  C45      1.0000 0.61720  0.32410  0.31223  Biso   1.000  C
  C46      1.0000 0.62300  0.30180  0.35429  Biso   1.000  C
  H27      1.0000 0.67160  0.32450  0.38230  Biso   1.000  H
  C47      1.0000 0.55690  0.24670  0.35374  Biso   1.000  C
  H28      1.0000 0.56070  0.23190  0.38160  Biso   1.000  H
  C48      1.0000 0.69130  0.38190  0.31300  Biso   1.000  C
  C49      1.0000 0.05730  0.61280  0.43666  Biso   1.000  C
  C50      1.0000 0.12970  0.67250  0.43667  Biso   1.000  C
  C51      1.0000 0.20150  0.71080  0.47842  Biso   1.000  C
  H29      1.0000 0.20390  0.69950  0.50610  Biso   1.000  H
  C52      1.0000 0.26740  0.76420  0.47901  Biso   1.000  C
  H30      1.0000 0.31560  0.78690  0.50720  Biso   1.000  H
  C53      1.0000 0.26380  0.78560  0.43787  Biso   1.000  C
  C54      1.0000 0.19330  0.74910  0.39637  Biso   1.000  C
  H31      1.0000 0.19010  0.76300  0.36860  Biso   1.000  H
  C55      1.0000 0.12640  0.69090  0.39620  Biso   1.000  C
  H32      1.0000 0.07940  0.66460  0.36830  Biso   1.000  H
  C56      1.0000 0.33360  0.85060  0.43786  Biso   1.000  C
  C57      1.0000 0.19260  0.11110  0.31221  Biso   1.000  C
  C58      1.0000 0.12010  0.17180  0.31184  Biso   1.000  C
  C59      1.0000 0.04480  0.19590  0.27064  Biso   1.000  C
  H33      1.0000 0.03770  0.17340  0.24270  Biso   1.000  H
  C60      1.0000 0.97820  0.25500  0.27091  Biso   1.000  C
  H34      1.0000 0.92790  0.27460  0.24300  Biso   1.000  H
  C61      1.0000 0.98770  0.28370  0.31264  Biso   1.000  C
  C62      1.0000 0.06510  0.25780  0.35435  Biso   1.000  C
  H35      1.0000 0.07200  0.27810  0.38250  Biso   1.000  H
  C63      1.0000 0.12990  0.20370  0.35405  Biso   1.000  C
  H36      1.0000 0.18120  0.18750  0.38200  Biso   1.000  H
  C64      1.0000 0.91630  0.34760  0.31250  Biso   1.000  C
  O21      1.0000 0.82010  0.57890  0.31230  Biso   1.000  O
  O22      1.0000 0.93120  0.40990  0.43832  Biso   1.000  O
  O23      1.0000 0.32040  0.90590  0.31289  Biso   1.000  O
  O24      1.0000 0.42960  0.08390  0.43675  Biso   1.000  O
  O25      1.0000 0.89940  0.62290  0.47560  Biso   1.000  O
  O26      1.0000 0.82080  0.62010  0.39773  Biso   1.000  O
  O27      1.0000 0.57260  0.90980  0.47707  Biso   1.000  O
  O28      1.0000 0.49180  0.90210  0.39964  Biso   1.000  O
  O29      1.0000 0.42690  0.11860  0.35076  Biso   1.000  O
  O30      1.0000 0.35050  0.11740  0.27319  Biso   1.000  O
  O31      1.0000 0.68100  0.40060  0.27417  Biso   1.000  O
  O32      1.0000 0.75640  0.40470  0.35150  Biso   1.000  O
  O33      1.0000 0.99140  0.58800  0.39728  Biso   1.000  O
  O34      1.0000 0.06780  0.59340  0.47540  Biso   1.000  O
  O35      1.0000 0.32210  0.87370  0.39906  Biso   1.000  O
  O36      1.0000 0.40030  0.87470  0.47683  Biso   1.000  O
  O37      1.0000 0.25840  0.08980  0.35054  Biso   1.000  O
  O38      1.0000 0.18070  0.08790  0.27320  Biso   1.000  O
  O39      1.0000 0.85150  0.37130  0.27385  Biso   1.000  O
  O40      1.0000 0.92840  0.37100  0.35136  Biso   1.000  O
  H37      1.0000 0.80600  0.64200  0.30000  Biso   1.000  H
  H38      1.0000 0.92300  0.34080  0.44000  Biso   1.000  H
  H39      1.0000 0.31200  0.83900  0.31700  Biso   1.000  H
  H40      1.0000 0.41100  0.15000  0.43600  Biso   1.000  H
  In7      1.0000 0.87506  0.00553  0.87534  Biso   1.000  In
  In8      1.0000 0.74918  0.00719  0.74968  Biso   1.000  In
  In9      1.0000 0.37528  0.50470  0.87486  Biso   1.000  In
  C65      1.0000 0.83320  0.85370  0.93657  Biso   1.000  C
  C66      1.0000 0.76390  0.78680  0.93691  Biso   1.000  C
  C67      1.0000 0.77720  0.74570  0.97840  Biso   1.000  C
  H41      1.0000 0.83070  0.75510  0.00590  Biso   1.000  H
  C68      1.0000 0.71220  0.69190  0.97884  Biso   1.000  C
  H42      1.0000 0.72120  0.66640  0.00690  Biso   1.000  H
  C69      1.0000 0.63160  0.67410  0.93755  Biso   1.000  C
  C70      1.0000 0.61920  0.71240  0.89660  Biso   1.000  C
  H43      1.0000 0.56640  0.70000  0.86900  Biso   1.000  H
  C71      1.0000 0.68570  0.77020  0.89579  Biso   1.000  C
  H44      1.0000 0.67690  0.79680  0.86790  Biso   1.000  H
  C72      1.0000 0.56000  0.61600  0.93850  Biso   1.000  C
  C73      1.0000 0.41450  0.35570  0.81224  Biso   1.000  C
  C74      1.0000 0.48390  0.28760  0.81193  Biso   1.000  C
  C75      1.0000 0.47830  0.26630  0.77091  Biso   1.000  C
  H45      1.0000 0.43020  0.29100  0.74310  Biso   1.000  H
  C76      1.0000 0.54480  0.20730  0.77060  Biso   1.000  C
  H46      1.0000 0.53980  0.18990  0.74260  Biso   1.000  H
  C77      1.0000 0.61720  0.17590  0.81223  Biso   1.000  C
  C78      1.0000 0.62300  0.19820  0.85429  Biso   1.000  C
  H47      1.0000 0.67160  0.17550  0.88230  Biso   1.000  H
  C79      1.0000 0.55690  0.25330  0.85374  Biso   1.000  C
  H48      1.0000 0.56070  0.26810  0.88160  Biso   1.000  H
  C80      1.0000 0.69130  0.11810  0.81300  Biso   1.000  C
  C81      1.0000 0.05730  0.88720  0.93666  Biso   1.000  C
  C82      1.0000 0.12970  0.82750  0.93667  Biso   1.000  C
  C83      1.0000 0.20150  0.78920  0.97842  Biso   1.000  C
  H49      1.0000 0.20390  0.80050  0.00610  Biso   1.000  H
  C84      1.0000 0.26740  0.73580  0.97901  Biso   1.000  C
  H50      1.0000 0.31560  0.71310  0.00720  Biso   1.000  H
  C85      1.0000 0.26380  0.71440  0.93787  Biso   1.000  C
  C86      1.0000 0.19330  0.75090  0.89637  Biso   1.000  C
  H51      1.0000 0.19010  0.73700  0.86860  Biso   1.000  H
  C87      1.0000 0.12640  0.80910  0.89620  Biso   1.000  C
  H52      1.0000 0.07940  0.83540  0.86830  Biso   1.000  H
  C88      1.0000 0.33360  0.64940  0.93786  Biso   1.000  C
  C89      1.0000 0.19260  0.38890  0.81221  Biso   1.000  C
  C90      1.0000 0.12010  0.32820  0.81184  Biso   1.000  C
  C91      1.0000 0.04480  0.30410  0.77064  Biso   1.000  C
  H53      1.0000 0.03770  0.32660  0.74270  Biso   1.000  H
  C92      1.0000 0.97820  0.24500  0.77091  Biso   1.000  C
  H54      1.0000 0.92790  0.22540  0.74300  Biso   1.000  H
  C93      1.0000 0.98770  0.21630  0.81264  Biso   1.000  C
  C94      1.0000 0.06510  0.24220  0.85435  Biso   1.000  C
  H55      1.0000 0.07200  0.22190  0.88250  Biso   1.000  H
  C95      1.0000 0.12990  0.29630  0.85405  Biso   1.000  C
  H56      1.0000 0.18120  0.31250  0.88200  Biso   1.000  H
  C96      1.0000 0.91630  0.15240  0.81250  Biso   1.000  C
  O41      1.0000 0.82010  0.92110  0.81230  Biso   1.000  O
  O42      1.0000 0.93120  0.09010  0.93832  Biso   1.000  O
  O43      1.0000 0.32040  0.59410  0.81289  Biso   1.000  O
  O44      1.0000 0.42960  0.41610  0.93675  Biso   1.000  O
  O45      1.0000 0.89940  0.87710  0.97560  Biso   1.000  O
  O46      1.0000 0.82080  0.87990  0.89773  Biso   1.000  O
  O47      1.0000 0.57260  0.59020  0.97707  Biso   1.000  O
  O48      1.0000 0.49180  0.59790  0.89964  Biso   1.000  O
  O49      1.0000 0.42690  0.38140  0.85076  Biso   1.000  O
  O50      1.0000 0.35050  0.38260  0.77319  Biso   1.000  O
  O51      1.0000 0.68100  0.09940  0.77417  Biso   1.000  O
  O52      1.0000 0.75640  0.09530  0.85150  Biso   1.000  O
  O53      1.0000 0.99140  0.91200  0.89728  Biso   1.000  O
  O54      1.0000 0.06780  0.90660  0.97540  Biso   1.000  O
  O55      1.0000 0.32210  0.62630  0.89906  Biso   1.000  O
  O56      1.0000 0.40030  0.62530  0.97683  Biso   1.000  O
  O57      1.0000 0.25840  0.41020  0.85054  Biso   1.000  O
  O58      1.0000 0.18070  0.41210  0.77320  Biso   1.000  O
  O59      1.0000 0.85150  0.12870  0.77385  Biso   1.000  O
  O60      1.0000 0.92840  0.12900  0.85136  Biso   1.000  O
  H57      1.0000 0.80600  0.85800  0.80000  Biso   1.000  H
  H58      1.0000 0.92300  0.15920  0.94000  Biso   1.000  H
  H59      1.0000 0.31200  0.66100  0.81700  Biso   1.000  H
  H60      1.0000 0.41100  0.35000  0.93600  Biso   1.000  H
  In10     1.0000 0.12494  0.50553  0.62466  Biso   1.000  In
  In11     1.0000 0.25082  0.50719  0.75032  Biso   1.000  In
  In12     1.0000 0.62472  0.00470  0.62514  Biso   1.000  In
  C97      1.0000 0.16680  0.35370  0.56343  Biso   1.000  C
  C98      1.0000 0.23610  0.28680  0.56309  Biso   1.000  C
  C99      1.0000 0.22280  0.24570  0.52160  Biso   1.000  C
  H61      1.0000 0.16930  0.25510  0.49410  Biso   1.000  H
  C100     1.0000 0.28780  0.19190  0.52116  Biso   1.000  C
  H62      1.0000 0.27880  0.16640  0.49310  Biso   1.000  H
  C101     1.0000 0.36840  0.17410  0.56245  Biso   1.000  C
  C102     1.0000 0.38080  0.21240  0.60340  Biso   1.000  C
  H63      1.0000 0.43360  0.20000  0.63100  Biso   1.000  H
  C103     1.0000 0.31430  0.27020  0.60421  Biso   1.000  C
  H64      1.0000 0.32310  0.29680  0.63210  Biso   1.000  H
  C104     1.0000 0.44000  0.11600  0.56150  Biso   1.000  C
  C105     1.0000 0.58550  0.85570  0.68776  Biso   1.000  C
  C106     1.0000 0.51610  0.78760  0.68807  Biso   1.000  C
  C107     1.0000 0.52170  0.76630  0.72909  Biso   1.000  C
  H65      1.0000 0.56980  0.79100  0.75690  Biso   1.000  H
  C108     1.0000 0.45520  0.70730  0.72940  Biso   1.000  C
  H66      1.0000 0.46020  0.68990  0.75740  Biso   1.000  H
  C109     1.0000 0.38280  0.67590  0.68777  Biso   1.000  C
  C110     1.0000 0.37700  0.69820  0.64571  Biso   1.000  C
  H67      1.0000 0.32840  0.67550  0.61770  Biso   1.000  H
  C111     1.0000 0.44310  0.75330  0.64626  Biso   1.000  C
  H68      1.0000 0.43930  0.76810  0.61840  Biso   1.000  H
  C112     1.0000 0.30870  0.61810  0.68700  Biso   1.000  C
  C113     1.0000 0.94270  0.38720  0.56334  Biso   1.000  C
  C114     1.0000 0.87030  0.32750  0.56333  Biso   1.000  C
  C115     1.0000 0.79850  0.28920  0.52158  Biso   1.000  C
  H69      1.0000 0.79610  0.30050  0.49390  Biso   1.000  H
  C116     1.0000 0.73260  0.23580  0.52099  Biso   1.000  C
  H70      1.0000 0.68440  0.21310  0.49280  Biso   1.000  H
  C117     1.0000 0.73620  0.21440  0.56213  Biso   1.000  C
  C118     1.0000 0.80670  0.25090  0.60363  Biso   1.000  C
  H71      1.0000 0.80990  0.23700  0.63140  Biso   1.000  H
  C119     1.0000 0.87360  0.30910  0.60380  Biso   1.000  C
  H72      1.0000 0.92060  0.33540  0.63170  Biso   1.000  H
  C120     1.0000 0.66640  0.14940  0.56214  Biso   1.000  C
  C121     1.0000 0.80740  0.88890  0.68779  Biso   1.000  C
  C122     1.0000 0.87990  0.82820  0.68816  Biso   1.000  C
  C123     1.0000 0.95520  0.80410  0.72936  Biso   1.000  C
  H73      1.0000 0.96230  0.82660  0.75730  Biso   1.000  H
  C124     1.0000 0.02180  0.74500  0.72909  Biso   1.000  C
  H74      1.0000 0.07210  0.72540  0.75700  Biso   1.000  H
  C125     1.0000 0.01230  0.71630  0.68736  Biso   1.000  C
  C126     1.0000 0.93490  0.74220  0.64565  Biso   1.000  C
  H75      1.0000 0.92800  0.72190  0.61750  Biso   1.000  H
  C127     1.0000 0.87010  0.79630  0.64595  Biso   1.000  C
  H76      1.0000 0.81880  0.81250  0.61800  Biso   1.000  H
  C128     1.0000 0.08370  0.65240  0.68750  Biso   1.000  C
  O61      1.0000 0.17990  0.42110  0.68770  Biso   1.000  O
  O62      1.0000 0.06880  0.59010  0.56168  Biso   1.000  O
  O63      1.0000 0.67960  0.09410  0.68711  Biso   1.000  O
  O64      1.0000 0.57040  0.91610  0.56325  Biso   1.000  O
  O65      1.0000 0.10060  0.37710  0.52440  Biso   1.000  O
  O66      1.0000 0.17920  0.37990  0.60227  Biso   1.000  O
  O67      1.0000 0.42740  0.09020  0.52293  Biso   1.000  O
  O68      1.0000 0.50820  0.09790  0.60036  Biso   1.000  O
  O69      1.0000 0.57310  0.88140  0.64924  Biso   1.000  O
  O70      1.0000 0.64950  0.88260  0.72681  Biso   1.000  O
  O71      1.0000 0.31900  0.59940  0.72583  Biso   1.000  O
  O72      1.0000 0.24360  0.59530  0.64850  Biso   1.000  O
  O73      1.0000 0.00860  0.41200  0.60272  Biso   1.000  O
  O74      1.0000 0.93220  0.40660  0.52460  Biso   1.000  O
  O75      1.0000 0.67790  0.12630  0.60094  Biso   1.000  O
  O76      1.0000 0.59970  0.12530  0.52317  Biso   1.000  O
  O77      1.0000 0.74160  0.91020  0.64946  Biso   1.000  O
  O78      1.0000 0.81930  0.91210  0.72680  Biso   1.000  O
  O79      1.0000 0.14850  0.62870  0.72615  Biso   1.000  O
  O80      1.0000 0.07160  0.62900  0.64864  Biso   1.000  O
  H77      1.0000 0.19400  0.35800  0.70000  Biso   1.000  H
  H78      1.0000 0.07700  0.65920  0.56000  Biso   1.000  H
  H79      1.0000 0.68800  0.16100  0.68300  Biso   1.000  H
  H80      1.0000 0.58900  0.85000  0.56400  Biso   1.000  H
  In13     1.0000 0.50000  0.50000  0.00000  Biso   1.000  In
  In14     1.0000 0.50000  0.00000  0.50000  Biso   1.000  In
  In15     1.0000 0.00000  0.00000  0.00000  Biso   1.000  In
  In16     1.0000 0.00000  0.50000  0.50000  Biso   1.000  In
