data_image0
_cell_length_a       5.9565
_cell_length_b       7.3716
_cell_length_c       13.1769
_cell_angle_alpha    102.925
_cell_angle_beta     101.637
_cell_angle_gamma    90.785

_symmetry_space_group_name_H-M    P 1
_symmetry_int_tables_number       1

loop_
  _symmetry_equiv_pos_as_xyz
  'x, y, z'

loop_
  _atom_site_label
  _atom_site_occupancy
  _atom_site_fract_x
  _atom_site_fract_y
  _atom_site_fract_z
  _atom_site_thermal_displace_type
  _atom_site_B_iso_or_equiv
  _atom_site_type_symbol
  Er1      1.0000 0.97961  0.18080  0.32099  Biso   1.000  Er
  Er2      1.0000 0.02035  0.81943  0.67895  Biso   1.000  Er
  H1       1.0000 0.64720  0.04230  0.94270  Biso   1.000  H
  H2       1.0000 0.34850  0.10240  0.04280  Biso   1.000  H
  H3       1.0000 0.50610  0.68040  0.43430  Biso   1.000  H
  H4       1.0000 0.52830  0.72120  0.27000  Biso   1.000  H
  H5       1.0000 0.48830  0.24530  0.56650  Biso   1.000  H
  H6       1.0000 0.44940  0.40290  0.73320  Biso   1.000  H
  H7       1.0000 0.19050  0.37490  0.20010  Biso   1.000  H
  H8       1.0000 0.35720  0.27550  0.25600  Biso   1.000  H
  H9       1.0000 0.84320  0.13540  0.78040  Biso   1.000  H
  H10      1.0000 0.65770  0.04910  0.70310  Biso   1.000  H
  H11      1.0000 0.79640  0.78040  0.93430  Biso   1.000  H
  H12      1.0000 0.23010  0.89140  0.10410  Biso   1.000  H
  H13      1.0000 0.75970  0.99060  0.51280  Biso   1.000  H
  H14      1.0000 0.83360  0.79590  0.24390  Biso   1.000  H
  H15      1.0000 0.23400  0.48900  0.49210  Biso   1.000  H
  H16      1.0000 0.14410  0.50170  0.75290  Biso   1.000  H
  C1       1.0000 0.78800  0.05670  0.10270  Biso   1.000  C
  C2       1.0000 0.62880  0.96950  0.99640  Biso   1.000  C
  C3       1.0000 0.37900  0.97120  0.01080  Biso   1.000  C
  C4       1.0000 0.22000  0.91100  0.89940  Biso   1.000  C
  C5       1.0000 0.84240  0.61090  0.43170  Biso   1.000  C
  C6       1.0000 0.65160  0.74840  0.43310  Biso   1.000  C
  C7       1.0000 0.61590  0.82100  0.32990  Biso   1.000  C
  C8       1.0000 0.48480  0.99510  0.33580  Biso   1.000  C
  C9       1.0000 0.15070  0.16610  0.56570  Biso   1.000  C
  C10      1.0000 0.34180  0.30970  0.56770  Biso   1.000  C
  C11      1.0000 0.37090  0.45720  0.67330  Biso   1.000  C
  C12      1.0000 0.50890  0.62900  0.67140  Biso   1.000  C
  O1       1.0000 0.24560  0.34580  0.25860  Biso   1.000  O
  O2       1.0000 0.76830  0.03150  0.75120  Biso   1.000  O
  O3       1.0000 0.74330  0.21920  0.15160  Biso   1.000  O
  O4       1.0000 0.95660  0.98020  0.14140  Biso   1.000  O
  O5       1.0000 0.67560  0.78350  0.95960  Biso   1.000  O
  O6       1.0000 0.35210  0.86270  0.08170  Biso   1.000  O
  O7       1.0000 0.25120  0.01190  0.83610  Biso   1.000  O
  O8       1.0000 0.07940  0.78420  0.87650  Biso   1.000  O
  O9       1.0000 0.82170  0.47330  0.35550  Biso   1.000  O
  O10      1.0000 0.01660  0.65270  0.50750  Biso   1.000  O
  O11      1.0000 0.71210  0.89370  0.52890  Biso   1.000  O
  O12      1.0000 0.83620  0.85660  0.30710  Biso   1.000  O
  O13      1.0000 0.59270  0.14320  0.32940  Biso   1.000  O
  O14      1.0000 0.28240  0.98900  0.34440  Biso   1.000  O
  O15      1.0000 0.97540  0.14630  0.49160  Biso   1.000  O
  O16      1.0000 0.17630  0.08310  0.64040  Biso   1.000  O
  O17      1.0000 0.28360  0.38130  0.47460  Biso   1.000  O
  O18      1.0000 0.14950  0.51340  0.69070  Biso   1.000  O
  O19      1.0000 0.40510  0.77710  0.67290  Biso   1.000  O
  O20      1.0000 0.71740  0.61540  0.66850  Biso   1.000  O
