data_image0
_cell_length_a       6.1008
_cell_length_b       7.5802
_cell_length_c       28.044
_cell_angle_alpha    90
_cell_angle_beta     90
_cell_angle_gamma    90

_symmetry_space_group_name_H-M    P 1
_symmetry_int_tables_number       1

loop_
  _symmetry_equiv_pos_as_xyz
  'x, y, z'

loop_
  _atom_site_label
  _atom_site_occupancy
  _atom_site_fract_x
  _atom_site_fract_y
  _atom_site_fract_z
  _atom_site_thermal_displace_type
  _atom_site_B_iso_or_equiv
  _atom_site_type_symbol
  Pr1      1.0000 0.56822  0.90185  0.66889  Biso   1.000  Pr
  Pr2      1.0000 0.56822  0.09815  0.33111  Biso   1.000  Pr
  Pr3      1.0000 0.43178  0.59815  0.16889  Biso   1.000  Pr
  Pr4      1.0000 0.43178  0.40185  0.83111  Biso   1.000  Pr
  H1       1.0000 0.97670  0.09720  0.66240  Biso   1.000  H
  H2       1.0000 0.91080  0.08170  0.61580  Biso   1.000  H
  H3       1.0000 0.47160  0.53820  0.63570  Biso   1.000  H
  H4       1.0000 0.14590  0.46700  0.64520  Biso   1.000  H
  H5       1.0000 0.28510  0.62720  0.75110  Biso   1.000  H
  H6       1.0000 0.04590  0.37100  0.71900  Biso   1.000  H
  H7       1.0000 0.70330  0.84410  0.49990  Biso   1.000  H
  H8       1.0000 0.44120  0.84300  0.49920  Biso   1.000  H
  H9       1.0000 0.97670  0.90280  0.33760  Biso   1.000  H
  H10      1.0000 0.91080  0.91830  0.38420  Biso   1.000  H
  H11      1.0000 0.47160  0.46180  0.36430  Biso   1.000  H
  H12      1.0000 0.14590  0.53300  0.35480  Biso   1.000  H
  H13      1.0000 0.28510  0.37280  0.24890  Biso   1.000  H
  H14      1.0000 0.04590  0.62900  0.28100  Biso   1.000  H
  H15      1.0000 0.70330  0.15590  0.50010  Biso   1.000  H
  H16      1.0000 0.44120  0.15700  0.50080  Biso   1.000  H
  H17      1.0000 0.02330  0.40280  0.16240  Biso   1.000  H
  H18      1.0000 0.08920  0.41830  0.11580  Biso   1.000  H
  H19      1.0000 0.52840  0.96180  0.13570  Biso   1.000  H
  H20      1.0000 0.85410  0.03300  0.14520  Biso   1.000  H
  H21      1.0000 0.71490  0.87280  0.25110  Biso   1.000  H
  H22      1.0000 0.95410  0.12900  0.21900  Biso   1.000  H
  H23      1.0000 0.29670  0.65590  0.99990  Biso   1.000  H
  H24      1.0000 0.55880  0.65700  0.99920  Biso   1.000  H
  H25      1.0000 0.02330  0.59720  0.83760  Biso   1.000  H
  H26      1.0000 0.08920  0.58170  0.88420  Biso   1.000  H
  H27      1.0000 0.52840  0.03820  0.86430  Biso   1.000  H
  H28      1.0000 0.85410  0.96700  0.85480  Biso   1.000  H
  H29      1.0000 0.71490  0.12720  0.74890  Biso   1.000  H
  H30      1.0000 0.95410  0.87100  0.78100  Biso   1.000  H
  H31      1.0000 0.29670  0.34410  0.00010  Biso   1.000  H
  H32      1.0000 0.55880  0.34300  0.00080  Biso   1.000  H
  C1       1.0000 0.07170  0.71060  0.67520  Biso   1.000  C
  C2       1.0000 0.20500  0.54000  0.67200  Biso   1.000  C
  C3       1.0000 0.19090  0.43250  0.71810  Biso   1.000  C
  C4       1.0000 0.37280  0.29320  0.71680  Biso   1.000  C
  C5       1.0000 0.56820  0.91000  0.56460  Biso   1.000  C
  C6       1.0000 0.57100  0.90810  0.51080  Biso   1.000  C
  C7       1.0000 0.07170  0.28940  0.32480  Biso   1.000  C
  C8       1.0000 0.20500  0.46000  0.32800  Biso   1.000  C
  C9       1.0000 0.19090  0.56750  0.28190  Biso   1.000  C
  C10      1.0000 0.37280  0.70680  0.28320  Biso   1.000  C
  C11      1.0000 0.56820  0.09000  0.43540  Biso   1.000  C
  C12      1.0000 0.57100  0.09190  0.48920  Biso   1.000  C
  C13      1.0000 0.92830  0.78940  0.17520  Biso   1.000  C
  C14      1.0000 0.79500  0.96000  0.17200  Biso   1.000  C
  C15      1.0000 0.80910  0.06750  0.21810  Biso   1.000  C
  C16      1.0000 0.62720  0.20680  0.21680  Biso   1.000  C
  C17      1.0000 0.43180  0.59000  0.06460  Biso   1.000  C
  C18      1.0000 0.42900  0.59190  0.01080  Biso   1.000  C
  C19      1.0000 0.92830  0.21060  0.82480  Biso   1.000  C
  C20      1.0000 0.79500  0.04000  0.82800  Biso   1.000  C
  C21      1.0000 0.80910  0.93250  0.78190  Biso   1.000  C
  C22      1.0000 0.62720  0.79320  0.78320  Biso   1.000  C
  C23      1.0000 0.43180  0.41000  0.93540  Biso   1.000  C
  C24      1.0000 0.42900  0.40810  0.98920  Biso   1.000  C
  O1       1.0000 0.86850  0.11080  0.64360  Biso   1.000  O
  O2       1.0000 0.17240  0.85400  0.67160  Biso   1.000  O
  O3       1.0000 0.86740  0.69530  0.68090  Biso   1.000  O
  O4       1.0000 0.42680  0.58760  0.66111  Biso   1.000  O
  O5       1.0000 0.21250  0.53700  0.75972  Biso   1.000  O
  O6       1.0000 0.37450  0.18600  0.68284  Biso   1.000  O
  O7       1.0000 0.50900  0.29400  0.75060  Biso   1.000  O
  O8       1.0000 0.67870  0.79580  0.58620  Biso   1.000  O
  O9       1.0000 0.45300  0.02250  0.58660  Biso   1.000  O
  O10      1.0000 0.86850  0.88920  0.35640  Biso   1.000  O
  O11      1.0000 0.17240  0.14600  0.32840  Biso   1.000  O
  O12      1.0000 0.86740  0.30470  0.31910  Biso   1.000  O
  O13      1.0000 0.42680  0.41240  0.33889  Biso   1.000  O
  O14      1.0000 0.21250  0.46300  0.24028  Biso   1.000  O
  O15      1.0000 0.37450  0.81400  0.31716  Biso   1.000  O
  O16      1.0000 0.50900  0.70600  0.24940  Biso   1.000  O
  O17      1.0000 0.67870  0.20420  0.41380  Biso   1.000  O
  O18      1.0000 0.45300  0.97750  0.41340  Biso   1.000  O
  O19      1.0000 0.13150  0.38920  0.14360  Biso   1.000  O
  O20      1.0000 0.82760  0.64600  0.17160  Biso   1.000  O
  O21      1.0000 0.13260  0.80470  0.18090  Biso   1.000  O
  O22      1.0000 0.57320  0.91240  0.16111  Biso   1.000  O
  O23      1.0000 0.78750  0.96300  0.25972  Biso   1.000  O
  O24      1.0000 0.62550  0.31400  0.18284  Biso   1.000  O
  O25      1.0000 0.49100  0.20600  0.25060  Biso   1.000  O
  O26      1.0000 0.32130  0.70420  0.08620  Biso   1.000  O
  O27      1.0000 0.54700  0.47750  0.08660  Biso   1.000  O
  O28      1.0000 0.13150  0.61080  0.85640  Biso   1.000  O
  O29      1.0000 0.82760  0.35400  0.82840  Biso   1.000  O
  O30      1.0000 0.13260  0.19530  0.81910  Biso   1.000  O
  O31      1.0000 0.57320  0.08760  0.83889  Biso   1.000  O
  O32      1.0000 0.78750  0.03700  0.74028  Biso   1.000  O
  O33      1.0000 0.62550  0.68600  0.81716  Biso   1.000  O
  O34      1.0000 0.49100  0.79400  0.74940  Biso   1.000  O
  O35      1.0000 0.32130  0.29580  0.91380  Biso   1.000  O
  O36      1.0000 0.54700  0.52250  0.91340  Biso   1.000  O
