data_image0
_cell_length_a       9.0164
_cell_length_b       9.0164
_cell_length_c       17.078
_cell_angle_alpha    90
_cell_angle_beta     90
_cell_angle_gamma    117.031

_symmetry_space_group_name_H-M    P 1
_symmetry_int_tables_number       1

loop_
  _symmetry_equiv_pos_as_xyz
  'x, y, z'

loop_
  _atom_site_label
  _atom_site_occupancy
  _atom_site_fract_x
  _atom_site_fract_y
  _atom_site_fract_z
  _atom_site_thermal_displace_type
  _atom_site_B_iso_or_equiv
  _atom_site_type_symbol
  Gd1      1.0000 0.00000  0.00000  0.00000  Biso   1.000  Gd
  Gd2      1.0000 0.00000  0.00000  0.50000  Biso   1.000  Gd
  Gd3      1.0000 0.34991  0.65509  0.25000  Biso   1.000  Gd
  Gd4      1.0000 0.65509  0.34991  0.75000  Biso   1.000  Gd
  H1       1.0000 0.56200  0.96520  0.08430  Biso   1.000  H
  H2       1.0000 0.50230  0.81930  0.02330  Biso   1.000  H
  H3       1.0000 0.58340  0.98120  0.91000  Biso   1.000  H
  H4       1.0000 0.62460  0.13940  0.96180  Biso   1.000  H
  H5       1.0000 0.39390  0.40170  0.08650  Biso   1.000  H
  H6       1.0000 0.31600  0.48880  0.03250  Biso   1.000  H
  H7       1.0000 0.96520  0.56200  0.91570  Biso   1.000  H
  H8       1.0000 0.81930  0.50230  0.97670  Biso   1.000  H
  H9       1.0000 0.98120  0.58340  0.09000  Biso   1.000  H
  H10      1.0000 0.13940  0.62460  0.03820  Biso   1.000  H
  H11      1.0000 0.40170  0.39390  0.91350  Biso   1.000  H
  H12      1.0000 0.48880  0.31600  0.96750  Biso   1.000  H
  H13      1.0000 0.96520  0.56200  0.58430  Biso   1.000  H
  H14      1.0000 0.81930  0.50230  0.52330  Biso   1.000  H
  H15      1.0000 0.98120  0.58340  0.41000  Biso   1.000  H
  H16      1.0000 0.13940  0.62460  0.46180  Biso   1.000  H
  H17      1.0000 0.40170  0.39390  0.58650  Biso   1.000  H
  H18      1.0000 0.48880  0.31600  0.53250  Biso   1.000  H
  H19      1.0000 0.56200  0.96520  0.41570  Biso   1.000  H
  H20      1.0000 0.50230  0.81930  0.47670  Biso   1.000  H
  H21      1.0000 0.58340  0.98120  0.59000  Biso   1.000  H
  H22      1.0000 0.62460  0.13940  0.53820  Biso   1.000  H
  H23      1.0000 0.39390  0.40170  0.41350  Biso   1.000  H
  H24      1.0000 0.31600  0.48880  0.46750  Biso   1.000  H
  C1       1.0000 0.65350  0.80250  0.10590  Biso   1.000  C
  C2       1.0000 0.59720  0.89680  0.05320  Biso   1.000  C
  C3       1.0000 0.66940  0.06860  0.94020  Biso   1.000  C
  C4       1.0000 0.81500  0.16900  0.88940  Biso   1.000  C
  C5       1.0000 0.15150  0.33650  0.11420  Biso   1.000  C
  C6       1.0000 0.29500  0.38500  0.05770  Biso   1.000  C
  C7       1.0000 0.80250  0.65350  0.89410  Biso   1.000  C
  C8       1.0000 0.89680  0.59720  0.94680  Biso   1.000  C
  C9       1.0000 0.06860  0.66940  0.05980  Biso   1.000  C
  C10      1.0000 0.16900  0.81500  0.11060  Biso   1.000  C
  C11      1.0000 0.33650  0.15150  0.88580  Biso   1.000  C
  C12      1.0000 0.38500  0.29500  0.94230  Biso   1.000  C
  C13      1.0000 0.80250  0.65350  0.60590  Biso   1.000  C
  C14      1.0000 0.89680  0.59720  0.55320  Biso   1.000  C
  C15      1.0000 0.06860  0.66940  0.44020  Biso   1.000  C
  C16      1.0000 0.16900  0.81500  0.38940  Biso   1.000  C
  C17      1.0000 0.33650  0.15150  0.61420  Biso   1.000  C
  C18      1.0000 0.38500  0.29500  0.55770  Biso   1.000  C
  C19      1.0000 0.65350  0.80250  0.39410  Biso   1.000  C
  C20      1.0000 0.59720  0.89680  0.44680  Biso   1.000  C
  C21      1.0000 0.66940  0.06860  0.55980  Biso   1.000  C
  C22      1.0000 0.81500  0.16900  0.61060  Biso   1.000  C
  C23      1.0000 0.15150  0.33650  0.38580  Biso   1.000  C
  C24      1.0000 0.29500  0.38500  0.44230  Biso   1.000  C
  O1       1.0000 0.80080  0.82700  0.09620  Biso   1.000  O
  O2       1.0000 0.55580  0.70740  0.15640  Biso   1.000  O
  O3       1.0000 0.72390  0.99910  0.00150  Biso   1.000  O
  O4       1.0000 0.79370  0.24830  0.83510  Biso   1.000  O
  O5       1.0000 0.95710  0.17690  0.90420  Biso   1.000  O
  O6       1.0000 0.02440  0.20320  0.09790  Biso   1.000  O
  O7       1.0000 0.17100  0.43700  0.16740  Biso   1.000  O
  O8       1.0000 0.82700  0.80080  0.90380  Biso   1.000  O
  O9       1.0000 0.70740  0.55580  0.84360  Biso   1.000  O
  O10      1.0000 0.99910  0.72390  0.99850  Biso   1.000  O
  O11      1.0000 0.24830  0.79370  0.16490  Biso   1.000  O
  O12      1.0000 0.17690  0.95710  0.09580  Biso   1.000  O
  O13      1.0000 0.20320  0.02440  0.90210  Biso   1.000  O
  O14      1.0000 0.43700  0.17100  0.83260  Biso   1.000  O
  O15      1.0000 0.82700  0.80080  0.59620  Biso   1.000  O
  O16      1.0000 0.70740  0.55580  0.65640  Biso   1.000  O
  O17      1.0000 0.99910  0.72390  0.50150  Biso   1.000  O
  O18      1.0000 0.24830  0.79370  0.33510  Biso   1.000  O
  O19      1.0000 0.17690  0.95710  0.40420  Biso   1.000  O
  O20      1.0000 0.20320  0.02440  0.59790  Biso   1.000  O
  O21      1.0000 0.43700  0.17100  0.66740  Biso   1.000  O
  O22      1.0000 0.80080  0.82700  0.40380  Biso   1.000  O
  O23      1.0000 0.55580  0.70740  0.34360  Biso   1.000  O
  O24      1.0000 0.72390  0.99910  0.49850  Biso   1.000  O
  O25      1.0000 0.79370  0.24830  0.66490  Biso   1.000  O
  O26      1.0000 0.95710  0.17690  0.59580  Biso   1.000  O
  O27      1.0000 0.02440  0.20320  0.40210  Biso   1.000  O
  O28      1.0000 0.17100  0.43700  0.33260  Biso   1.000  O
  O29      1.0000 0.26200  0.26200  0.00000  Biso   1.000  O
  O30      1.0000 0.26200  0.26200  0.50000  Biso   1.000  O
  O31      1.0000 0.54140  0.96460  0.25000  Biso   1.000  O
  O32      1.0000 0.43510  0.42690  0.25000  Biso   1.000  O
  O33      1.0000 0.96460  0.54140  0.75000  Biso   1.000  O
  O34      1.0000 0.42690  0.43510  0.75000  Biso   1.000  O
