data_image0
_cell_length_a       9.0462
_cell_length_b       9.0462
_cell_length_c       16.986
_cell_angle_alpha    90
_cell_angle_beta     90
_cell_angle_gamma    116.369

_symmetry_space_group_name_H-M    P 1
_symmetry_int_tables_number       1

loop_
  _symmetry_equiv_pos_as_xyz
  'x, y, z'

loop_
  _atom_site_label
  _atom_site_occupancy
  _atom_site_fract_x
  _atom_site_fract_y
  _atom_site_fract_z
  _atom_site_thermal_displace_type
  _atom_site_B_iso_or_equiv
  _atom_site_type_symbol
  Eu1      1.0000 0.99999  0.99999  0.00000  Biso   1.000  Eu
  Eu2      1.0000 0.99999  0.99999  0.50000  Biso   1.000  Eu
  Eu3      1.0000 0.35564  0.65262  0.25000  Biso   1.000  Eu
  Eu4      1.0000 0.65262  0.35564  0.75000  Biso   1.000  Eu
  H1       1.0000 0.54610  0.94690  0.07980  Biso   1.000  H
  H2       1.0000 0.50570  0.80570  0.01730  Biso   1.000  H
  H3       1.0000 0.58760  0.97840  0.90740  Biso   1.000  H
  H4       1.0000 0.61730  0.13070  0.96110  Biso   1.000  H
  H5       1.0000 0.39450  0.39750  0.08800  Biso   1.000  H
  H6       1.0000 0.32410  0.49050  0.03280  Biso   1.000  H
  H7       1.0000 0.94690  0.54610  0.92020  Biso   1.000  H
  H8       1.0000 0.80570  0.50570  0.98270  Biso   1.000  H
  H9       1.0000 0.97840  0.58760  0.09260  Biso   1.000  H
  H10      1.0000 0.13070  0.61730  0.03890  Biso   1.000  H
  H11      1.0000 0.39750  0.39450  0.91200  Biso   1.000  H
  H12      1.0000 0.49050  0.32410  0.96720  Biso   1.000  H
  H13      1.0000 0.94690  0.54610  0.57980  Biso   1.000  H
  H14      1.0000 0.80570  0.50570  0.51730  Biso   1.000  H
  H15      1.0000 0.97840  0.58760  0.40740  Biso   1.000  H
  H16      1.0000 0.13070  0.61730  0.46110  Biso   1.000  H
  H17      1.0000 0.39750  0.39450  0.58800  Biso   1.000  H
  H18      1.0000 0.49050  0.32410  0.53280  Biso   1.000  H
  H19      1.0000 0.54610  0.94690  0.42020  Biso   1.000  H
  H20      1.0000 0.50570  0.80570  0.48270  Biso   1.000  H
  H21      1.0000 0.58760  0.97840  0.59260  Biso   1.000  H
  H22      1.0000 0.61730  0.13070  0.53890  Biso   1.000  H
  H23      1.0000 0.39450  0.39750  0.41200  Biso   1.000  H
  H24      1.0000 0.32410  0.49050  0.46720  Biso   1.000  H
  C1       1.0000 0.65890  0.80070  0.10420  Biso   1.000  C
  C2       1.0000 0.59230  0.88610  0.04980  Biso   1.000  C
  C3       1.0000 0.66860  0.06540  0.93950  Biso   1.000  C
  C4       1.0000 0.81450  0.17290  0.88970  Biso   1.000  C
  C5       1.0000 0.15370  0.34110  0.11280  Biso   1.000  C
  C6       1.0000 0.29860  0.38580  0.05810  Biso   1.000  C
  C7       1.0000 0.80070  0.65890  0.89580  Biso   1.000  C
  C8       1.0000 0.88610  0.59230  0.95020  Biso   1.000  C
  C9       1.0000 0.06540  0.66860  0.06050  Biso   1.000  C
  C10      1.0000 0.17290  0.81450  0.11030  Biso   1.000  C
  C11      1.0000 0.34110  0.15370  0.88720  Biso   1.000  C
  C12      1.0000 0.38580  0.29860  0.94190  Biso   1.000  C
  C13      1.0000 0.80070  0.65890  0.60420  Biso   1.000  C
  C14      1.0000 0.88610  0.59230  0.54980  Biso   1.000  C
  C15      1.0000 0.06540  0.66860  0.43950  Biso   1.000  C
  C16      1.0000 0.17290  0.81450  0.38970  Biso   1.000  C
  C17      1.0000 0.34110  0.15370  0.61280  Biso   1.000  C
  C18      1.0000 0.38580  0.29860  0.55810  Biso   1.000  C
  C19      1.0000 0.65890  0.80070  0.39580  Biso   1.000  C
  C20      1.0000 0.59230  0.88610  0.45020  Biso   1.000  C
  C21      1.0000 0.66860  0.06540  0.56050  Biso   1.000  C
  C22      1.0000 0.81450  0.17290  0.61030  Biso   1.000  C
  C23      1.0000 0.15370  0.34110  0.38720  Biso   1.000  C
  C24      1.0000 0.29860  0.38580  0.44190  Biso   1.000  C
  O1       1.0000 0.80670  0.83090  0.09900  Biso   1.000  O
  O2       1.0000 0.55840  0.70380  0.15440  Biso   1.000  O
  O3       1.0000 0.72250  0.99550  0.00170  Biso   1.000  O
  O4       1.0000 0.78690  0.24850  0.83590  Biso   1.000  O
  O5       1.0000 0.95190  0.17510  0.90480  Biso   1.000  O
  O6       1.0000 0.02710  0.20410  0.09920  Biso   1.000  O
  O7       1.0000 0.16590  0.43670  0.16610  Biso   1.000  O
  O8       1.0000 0.83090  0.80670  0.90100  Biso   1.000  O
  O9       1.0000 0.70380  0.55840  0.84560  Biso   1.000  O
  O10      1.0000 0.99550  0.72250  0.99830  Biso   1.000  O
  O11      1.0000 0.24850  0.78690  0.16410  Biso   1.000  O
  O12      1.0000 0.17510  0.95190  0.09520  Biso   1.000  O
  O13      1.0000 0.20410  0.02710  0.90080  Biso   1.000  O
  O14      1.0000 0.43670  0.16590  0.83390  Biso   1.000  O
  O15      1.0000 0.83090  0.80670  0.59900  Biso   1.000  O
  O16      1.0000 0.70380  0.55840  0.65440  Biso   1.000  O
  O17      1.0000 0.99550  0.72250  0.50170  Biso   1.000  O
  O18      1.0000 0.24850  0.78690  0.33590  Biso   1.000  O
  O19      1.0000 0.17510  0.95190  0.40480  Biso   1.000  O
  O20      1.0000 0.20410  0.02710  0.59920  Biso   1.000  O
  O21      1.0000 0.43670  0.16590  0.66610  Biso   1.000  O
  O22      1.0000 0.80670  0.83090  0.40100  Biso   1.000  O
  O23      1.0000 0.55840  0.70380  0.34560  Biso   1.000  O
  O24      1.0000 0.72250  0.99550  0.49830  Biso   1.000  O
  O25      1.0000 0.78690  0.24850  0.66410  Biso   1.000  O
  O26      1.0000 0.95190  0.17510  0.59520  Biso   1.000  O
  O27      1.0000 0.02710  0.20410  0.40080  Biso   1.000  O
  O28      1.0000 0.16590  0.43670  0.33390  Biso   1.000  O
  O29      1.0000 0.26030  0.26030  0.00000  Biso   1.000  O
  O30      1.0000 0.26030  0.26030  0.50000  Biso   1.000  O
  O31      1.0000 0.53850  0.95430  0.25000  Biso   1.000  O
  O32      1.0000 0.44190  0.42890  0.25000  Biso   1.000  O
  O33      1.0000 0.95430  0.53850  0.75000  Biso   1.000  O
  O34      1.0000 0.42890  0.44190  0.75000  Biso   1.000  O
