data_image0
_cell_length_a       9.1789
_cell_length_b       10.9267
_cell_length_c       11.371
_cell_angle_alpha    117.844
_cell_angle_beta     100.861
_cell_angle_gamma    99.344

_symmetry_space_group_name_H-M    P 1
_symmetry_int_tables_number       1

loop_
  _symmetry_equiv_pos_as_xyz
  'x, y, z'

loop_
  _atom_site_label
  _atom_site_occupancy
  _atom_site_fract_x
  _atom_site_fract_y
  _atom_site_fract_z
  _atom_site_thermal_displace_type
  _atom_site_B_iso_or_equiv
  _atom_site_type_symbol
  Zn1      1.0000 0.19095  0.62355  0.12211  Biso   1.000  Zn
  Zn2      1.0000 0.80905  0.37645  0.87789  Biso   1.000  Zn
  Zn3      1.0000 0.50000  0.50000  0.00000  Biso   1.000  Zn
  H1       1.0000 0.62530  0.82780  0.97670  Biso   1.000  H
  H2       1.0000 0.29420  0.00970  0.08850  Biso   1.000  H
  H3       1.0000 0.69420  0.39080  0.50710  Biso   1.000  H
  H4       1.0000 0.38640  0.57330  0.67650  Biso   1.000  H
  H5       1.0000 0.24960  0.23100  0.70380  Biso   1.000  H
  H6       1.0000 0.96770  0.17760  0.65400  Biso   1.000  H
  H7       1.0000 0.37470  0.17220  0.02330  Biso   1.000  H
  H8       1.0000 0.70580  0.99030  0.91150  Biso   1.000  H
  H9       1.0000 0.30580  0.60920  0.49290  Biso   1.000  H
  H10      1.0000 0.61360  0.42670  0.32350  Biso   1.000  H
  H11      1.0000 0.75040  0.76900  0.29620  Biso   1.000  H
  H12      1.0000 0.03230  0.82240  0.34600  Biso   1.000  H
  C1       1.0000 0.44840  0.90050  0.03740  Biso   1.000  C
  C2       1.0000 0.57400  0.89700  0.98570  Biso   1.000  C
  C3       1.0000 0.37720  0.00500  0.05210  Biso   1.000  C
  C4       1.0000 0.39190  0.79010  0.07310  Biso   1.000  C
  C5       1.0000 0.54670  0.47420  0.60720  Biso   1.000  C
  C6       1.0000 0.61530  0.43400  0.50420  Biso   1.000  C
  C7       1.0000 0.43150  0.54300  0.60480  Biso   1.000  C
  C8       1.0000 0.59810  0.45510  0.73010  Biso   1.000  C
  C9       1.0000 0.19760  0.28380  0.76330  Biso   1.000  C
  C10      1.0000 0.04160  0.25390  0.73470  Biso   1.000  C
  C11      1.0000 0.55160  0.09950  0.96260  Biso   1.000  C
  C12      1.0000 0.42600  0.10300  0.01430  Biso   1.000  C
  C13      1.0000 0.62280  0.99500  0.94790  Biso   1.000  C
  C14      1.0000 0.60810  0.20990  0.92690  Biso   1.000  C
  C15      1.0000 0.45330  0.52580  0.39280  Biso   1.000  C
  C16      1.0000 0.38470  0.56600  0.49580  Biso   1.000  C
  C17      1.0000 0.56850  0.45700  0.39520  Biso   1.000  C
  C18      1.0000 0.40190  0.54490  0.26990  Biso   1.000  C
  C19      1.0000 0.80240  0.71620  0.23670  Biso   1.000  C
  C20      1.0000 0.95840  0.74610  0.26530  Biso   1.000  C
  N1       1.0000 0.26430  0.39930  0.88850  Biso   1.000  N
  N2       1.0000 0.15140  0.44320  0.93820  Biso   1.000  N
  N3       1.0000 0.01510  0.35610  0.84570  Biso   1.000  N
  N4       1.0000 0.73570  0.60070  0.11150  Biso   1.000  N
  N5       1.0000 0.84860  0.55680  0.06180  Biso   1.000  N
  N6       1.0000 0.98490  0.64390  0.15430  Biso   1.000  N
  O1       1.0000 0.27010  0.79080  0.10560  Biso   1.000  O
  O2       1.0000 0.46690  0.70510  0.07200  Biso   1.000  O
  O3       1.0000 0.53620  0.50180  0.82380  Biso   1.000  O
  O4       1.0000 0.70250  0.39100  0.72490  Biso   1.000  O
  O5       1.0000 0.72990  0.20920  0.89440  Biso   1.000  O
  O6       1.0000 0.53310  0.29490  0.92800  Biso   1.000  O
  O7       1.0000 0.46380  0.49820  0.17620  Biso   1.000  O
  O8       1.0000 0.29750  0.60900  0.27510  Biso   1.000  O
