data_image0
_cell_length_a       13.016
_cell_length_b       11.291
_cell_length_c       15.7543
_cell_angle_alpha    90
_cell_angle_beta     105.039
_cell_angle_gamma    90

_symmetry_space_group_name_H-M    "P 1"
_symmetry_int_tables_number       1

loop_
  _symmetry_equiv_pos_as_xyz
  'x, y, z'

loop_
  _atom_site_label
  _atom_site_occupancy
  _atom_site_fract_x
  _atom_site_fract_y
  _atom_site_fract_z
  _atom_site_thermal_displace_type
  _atom_site_B_iso_or_equiv
  _atom_site_type_symbol
  Cd1      1.0000 0.69790  0.17712  0.67436  Biso   1.000  Cd
  O1       1.0000 0.63720  0.15110  0.79960  Biso   1.000  O
  O2       1.0000 0.64080  0.37560  0.67060  Biso   1.000  O
  O3       1.0000 0.83670  0.47340  0.85390  Biso   1.000  O
  O4       1.0000 0.63290  0.18850  0.51640  Biso   1.000  O
  O5       1.0000 0.83580  0.23500  0.60470  Biso   1.000  O
  O6       1.0000 0.81990  0.29890  0.78590  Biso   1.000  O
  O7       1.0000 0.65450  0.54840  0.74160  Biso   1.000  O
  O8       1.0000 0.49850  0.14970  0.63840  Biso   1.000  O
  C1       1.0000 0.53980  0.15140  0.79670  Biso   1.000  C
  C2       1.0000 0.68560  0.44630  0.72970  Biso   1.000  C
  C3       1.0000 0.79090  0.40210  0.79560  Biso   1.000  C
  C4       1.0000 0.69130  0.23660  0.47420  Biso   1.000  C
  Cd2      1.0000 0.19790  0.67712  0.67436  Biso   1.000  Cd
  O9       1.0000 0.13720  0.65110  0.79960  Biso   1.000  O
  O10      1.0000 0.14080  0.87560  0.67060  Biso   1.000  O
  O11      1.0000 0.33670  0.97340  0.85390  Biso   1.000  O
  O12      1.0000 0.13290  0.68850  0.51640  Biso   1.000  O
  O13      1.0000 0.33580  0.73500  0.60470  Biso   1.000  O
  O14      1.0000 0.31990  0.79890  0.78590  Biso   1.000  O
  O15      1.0000 0.15450  0.04840  0.74160  Biso   1.000  O
  O16      1.0000 0.99850  0.64970  0.63840  Biso   1.000  O
  C5       1.0000 0.03980  0.65140  0.79670  Biso   1.000  C
  C6       1.0000 0.18560  0.94630  0.72970  Biso   1.000  C
  C7       1.0000 0.29090  0.90210  0.79560  Biso   1.000  C
  C8       1.0000 0.19130  0.73660  0.47420  Biso   1.000  C
  Cd3      1.0000 0.30210  0.17712  0.82564  Biso   1.000  Cd
  O17      1.0000 0.36280  0.15110  0.70040  Biso   1.000  O
  O18      1.0000 0.35920  0.37560  0.82940  Biso   1.000  O
  O19      1.0000 0.16330  0.47340  0.64610  Biso   1.000  O
  O20      1.0000 0.36710  0.18850  0.98360  Biso   1.000  O
  O21      1.0000 0.16420  0.23500  0.89530  Biso   1.000  O
  O22      1.0000 0.18010  0.29890  0.71410  Biso   1.000  O
  O23      1.0000 0.34550  0.54840  0.75840  Biso   1.000  O
  O24      1.0000 0.50150  0.14970  0.86160  Biso   1.000  O
  C9       1.0000 0.46020  0.15140  0.70330  Biso   1.000  C
  C10      1.0000 0.31440  0.44630  0.77030  Biso   1.000  C
  C11      1.0000 0.20910  0.40210  0.70440  Biso   1.000  C
  C12      1.0000 0.30870  0.23660  0.02580  Biso   1.000  C
  Cd4      1.0000 0.80210  0.67712  0.82564  Biso   1.000  Cd
  O25      1.0000 0.86280  0.65110  0.70040  Biso   1.000  O
  O26      1.0000 0.85920  0.87560  0.82940  Biso   1.000  O
  O27      1.0000 0.66330  0.97340  0.64610  Biso   1.000  O
  O28      1.0000 0.86710  0.68850  0.98360  Biso   1.000  O
  O29      1.0000 0.66420  0.73500  0.89530  Biso   1.000  O
  O30      1.0000 0.68010  0.79890  0.71410  Biso   1.000  O
  O31      1.0000 0.84550  0.04840  0.75840  Biso   1.000  O
  O32      1.0000 0.00150  0.64970  0.86160  Biso   1.000  O
  C13      1.0000 0.96020  0.65140  0.70330  Biso   1.000  C
  C14      1.0000 0.81440  0.94630  0.77030  Biso   1.000  C
  C15      1.0000 0.70910  0.90210  0.70440  Biso   1.000  C
  C16      1.0000 0.80870  0.73660  0.02580  Biso   1.000  C
  Cd5      1.0000 0.30210  0.82288  0.32564  Biso   1.000  Cd
  O33      1.0000 0.36280  0.84890  0.20040  Biso   1.000  O
  O34      1.0000 0.35920  0.62440  0.32940  Biso   1.000  O
  O35      1.0000 0.16330  0.52660  0.14610  Biso   1.000  O
  O36      1.0000 0.36710  0.81150  0.48360  Biso   1.000  O
  O37      1.0000 0.16420  0.76500  0.39530  Biso   1.000  O
  O38      1.0000 0.18010  0.70110  0.21410  Biso   1.000  O
  O39      1.0000 0.34550  0.45160  0.25840  Biso   1.000  O
  O40      1.0000 0.50150  0.85030  0.36160  Biso   1.000  O
  C17      1.0000 0.46020  0.84860  0.20330  Biso   1.000  C
  C18      1.0000 0.31440  0.55370  0.27030  Biso   1.000  C
  C19      1.0000 0.20910  0.59790  0.20440  Biso   1.000  C
  C20      1.0000 0.30870  0.76340  0.52580  Biso   1.000  C
  Cd6      1.0000 0.80210  0.32288  0.32564  Biso   1.000  Cd
  O41      1.0000 0.86280  0.34890  0.20040  Biso   1.000  O
  O42      1.0000 0.85920  0.12440  0.32940  Biso   1.000  O
  O43      1.0000 0.66330  0.02660  0.14610  Biso   1.000  O
  O44      1.0000 0.86710  0.31150  0.48360  Biso   1.000  O
  O45      1.0000 0.66420  0.26500  0.39530  Biso   1.000  O
  O46      1.0000 0.68010  0.20110  0.21410  Biso   1.000  O
  O47      1.0000 0.84550  0.95160  0.25840  Biso   1.000  O
  O48      1.0000 0.00150  0.35030  0.36160  Biso   1.000  O
  C21      1.0000 0.96020  0.34860  0.20330  Biso   1.000  C
  C22      1.0000 0.81440  0.05370  0.27030  Biso   1.000  C
  C23      1.0000 0.70910  0.09790  0.20440  Biso   1.000  C
  C24      1.0000 0.80870  0.26340  0.52580  Biso   1.000  C
  Cd7      1.0000 0.69790  0.82288  0.17436  Biso   1.000  Cd
  O49      1.0000 0.63720  0.84890  0.29960  Biso   1.000  O
  O50      1.0000 0.64080  0.62440  0.17060  Biso   1.000  O
  O51      1.0000 0.83670  0.52660  0.35390  Biso   1.000  O
  O52      1.0000 0.63290  0.81150  0.01640  Biso   1.000  O
  O53      1.0000 0.83580  0.76500  0.10470  Biso   1.000  O
  O54      1.0000 0.81990  0.70110  0.28590  Biso   1.000  O
  O55      1.0000 0.65450  0.45160  0.24160  Biso   1.000  O
  O56      1.0000 0.49850  0.85030  0.13840  Biso   1.000  O
  C25      1.0000 0.53980  0.84860  0.29670  Biso   1.000  C
  C26      1.0000 0.68560  0.55370  0.22970  Biso   1.000  C
  C27      1.0000 0.79090  0.59790  0.29560  Biso   1.000  C
  C28      1.0000 0.69130  0.76340  0.97420  Biso   1.000  C
  Cd8      1.0000 0.19790  0.32288  0.17436  Biso   1.000  Cd
  O57      1.0000 0.13720  0.34890  0.29960  Biso   1.000  O
  O58      1.0000 0.14080  0.12440  0.17060  Biso   1.000  O
  O59      1.0000 0.33670  0.02660  0.35390  Biso   1.000  O
  O60      1.0000 0.13290  0.31150  0.01640  Biso   1.000  O
  O61      1.0000 0.33580  0.26500  0.10470  Biso   1.000  O
  O62      1.0000 0.31990  0.20110  0.28590  Biso   1.000  O
  O63      1.0000 0.15450  0.95160  0.24160  Biso   1.000  O
  O64      1.0000 0.99850  0.35030  0.13840  Biso   1.000  O
  C29      1.0000 0.03980  0.34860  0.29670  Biso   1.000  C
  C30      1.0000 0.18560  0.05370  0.22970  Biso   1.000  C
  C31      1.0000 0.29090  0.09790  0.29560  Biso   1.000  C
  C32      1.0000 0.19130  0.26340  0.97420  Biso   1.000  C
  K1       1.0000 0.50000  0.00000  0.50000  Biso   1.000  K
  K2       1.0000 0.00000  0.50000  0.50000  Biso   1.000  K
  K3       1.0000 0.50000  0.00000  0.00000  Biso   1.000  K
  K4       1.0000 0.00000  0.50000  0.00000  Biso   1.000  K
  K5       1.0000 0.00000  0.21197  0.75000  Biso   1.000  K
  K6       1.0000 0.50000  0.71197  0.75000  Biso   1.000  K
  K7       1.0000 0.00000  0.78803  0.25000  Biso   1.000  K
  K8       1.0000 0.50000  0.28803  0.25000  Biso   1.000  K
