data_image0
_cell_length_a       14.2604
_cell_length_b       11.5999
_cell_length_c       18.3249
_cell_angle_alpha    90
_cell_angle_beta     90.324
_cell_angle_gamma    90

_symmetry_space_group_name_H-M    "P 1"
_symmetry_int_tables_number       1

loop_
  _symmetry_equiv_pos_as_xyz
  'x, y, z'

loop_
  _atom_site_label
  _atom_site_occupancy
  _atom_site_fract_x
  _atom_site_fract_y
  _atom_site_fract_z
  _atom_site_thermal_displace_type
  _atom_site_B_iso_or_equiv
  _atom_site_type_symbol
  P1       1.0000 0.21613  0.59246  0.44011  Biso   1.000  P
  P2       1.0000 0.09130  0.26125  0.42415  Biso   1.000  P
  P3       1.0000 0.12106  0.49380  0.65668  Biso   1.000  P
  Al1      1.0000 0.22985  0.36237  0.53100  Biso   1.000  Al
  Al2      1.0000 0.12645  0.72171  0.56662  Biso   1.000  Al
  Al3      1.0000 0.08417  0.53896  0.81835  Biso   1.000  Al
  F1       1.0000 0.21867  0.20510  0.55387  Biso   1.000  F
  O1       1.0000 0.25440  0.50710  0.49546  Biso   1.000  O
  O2       1.0000 0.14820  0.61570  0.63120  Biso   1.000  O
  O3       1.0000 0.18080  0.40440  0.61912  Biso   1.000  O
  O4       1.0000 0.14840  0.67660  0.47796  Biso   1.000  O
  O5       1.0000 0.14370  0.48520  0.73880  Biso   1.000  O
  O6       1.0000 0.29950  0.66410  0.41080  Biso   1.000  O
  O7       1.0000 0.11220  0.34570  0.48580  Biso   1.000  O
  O8       1.0000 0.98650  0.22540  0.42680  Biso   1.000  O
  O9       1.0000 0.35210  0.35060  0.57178  Biso   1.000  O
  O10      1.0000 0.10890  0.31880  0.34954  Biso   1.000  O
  O11      1.0000 0.16930  0.53810  0.37466  Biso   1.000  O
  O12      1.0000 0.01640  0.47160  0.64320  Biso   1.000  O
  P4       1.0000 0.71613  0.09246  0.44011  Biso   1.000  P
  P5       1.0000 0.59130  0.76125  0.42415  Biso   1.000  P
  P6       1.0000 0.62106  0.99380  0.65668  Biso   1.000  P
  Al4      1.0000 0.72985  0.86237  0.53100  Biso   1.000  Al
  Al5      1.0000 0.62645  0.22171  0.56662  Biso   1.000  Al
  Al6      1.0000 0.58417  0.03896  0.81835  Biso   1.000  Al
  F2       1.0000 0.71867  0.70510  0.55387  Biso   1.000  F
  O13      1.0000 0.75440  0.00710  0.49546  Biso   1.000  O
  O14      1.0000 0.64820  0.11570  0.63120  Biso   1.000  O
  O15      1.0000 0.68080  0.90440  0.61912  Biso   1.000  O
  O16      1.0000 0.64840  0.17660  0.47796  Biso   1.000  O
  O17      1.0000 0.64370  0.98520  0.73880  Biso   1.000  O
  O18      1.0000 0.79950  0.16410  0.41080  Biso   1.000  O
  O19      1.0000 0.61220  0.84570  0.48580  Biso   1.000  O
  O20      1.0000 0.48650  0.72540  0.42680  Biso   1.000  O
  O21      1.0000 0.85210  0.85060  0.57178  Biso   1.000  O
  O22      1.0000 0.60890  0.81880  0.34954  Biso   1.000  O
  O23      1.0000 0.66930  0.03810  0.37466  Biso   1.000  O
  O24      1.0000 0.51640  0.97160  0.64320  Biso   1.000  O
  P7       1.0000 0.78387  0.59246  0.05989  Biso   1.000  P
  P8       1.0000 0.90870  0.26125  0.07585  Biso   1.000  P
  P9       1.0000 0.87894  0.49380  0.84332  Biso   1.000  P
  Al7      1.0000 0.77015  0.36237  0.96900  Biso   1.000  Al
  Al8      1.0000 0.87355  0.72171  0.93338  Biso   1.000  Al
  Al9      1.0000 0.91583  0.53896  0.68165  Biso   1.000  Al
  F3       1.0000 0.78133  0.20510  0.94613  Biso   1.000  F
  O25      1.0000 0.74560  0.50710  0.00454  Biso   1.000  O
  O26      1.0000 0.85180  0.61570  0.86880  Biso   1.000  O
  O27      1.0000 0.81920  0.40440  0.88088  Biso   1.000  O
  O28      1.0000 0.85160  0.67660  0.02204  Biso   1.000  O
  O29      1.0000 0.85630  0.48520  0.76120  Biso   1.000  O
  O30      1.0000 0.70050  0.66410  0.08920  Biso   1.000  O
  O31      1.0000 0.88780  0.34570  0.01420  Biso   1.000  O
  O32      1.0000 0.01350  0.22540  0.07320  Biso   1.000  O
  O33      1.0000 0.64790  0.35060  0.92822  Biso   1.000  O
  O34      1.0000 0.89110  0.31880  0.15046  Biso   1.000  O
  O35      1.0000 0.83070  0.53810  0.12534  Biso   1.000  O
  O36      1.0000 0.98360  0.47160  0.85680  Biso   1.000  O
  P10      1.0000 0.28387  0.09246  0.05989  Biso   1.000  P
  P11      1.0000 0.40870  0.76125  0.07585  Biso   1.000  P
  P12      1.0000 0.37894  0.99380  0.84332  Biso   1.000  P
  Al10     1.0000 0.27015  0.86237  0.96900  Biso   1.000  Al
  Al11     1.0000 0.37355  0.22171  0.93338  Biso   1.000  Al
  Al12     1.0000 0.41583  0.03896  0.68165  Biso   1.000  Al
  F4       1.0000 0.28133  0.70510  0.94613  Biso   1.000  F
  O37      1.0000 0.24560  0.00710  0.00454  Biso   1.000  O
  O38      1.0000 0.35180  0.11570  0.86880  Biso   1.000  O
  O39      1.0000 0.31920  0.90440  0.88088  Biso   1.000  O
  O40      1.0000 0.35160  0.17660  0.02204  Biso   1.000  O
  O41      1.0000 0.35630  0.98520  0.76120  Biso   1.000  O
  O42      1.0000 0.20050  0.16410  0.08920  Biso   1.000  O
  O43      1.0000 0.38780  0.84570  0.01420  Biso   1.000  O
  O44      1.0000 0.51350  0.72540  0.07320  Biso   1.000  O
  O45      1.0000 0.14790  0.85060  0.92822  Biso   1.000  O
  O46      1.0000 0.39110  0.81880  0.15046  Biso   1.000  O
  O47      1.0000 0.33070  0.03810  0.12534  Biso   1.000  O
  O48      1.0000 0.48360  0.97160  0.85680  Biso   1.000  O
  P13      1.0000 0.78387  0.40754  0.55989  Biso   1.000  P
  P14      1.0000 0.90870  0.73875  0.57585  Biso   1.000  P
  P15      1.0000 0.87894  0.50620  0.34332  Biso   1.000  P
  Al13     1.0000 0.77015  0.63763  0.46900  Biso   1.000  Al
  Al14     1.0000 0.87355  0.27829  0.43338  Biso   1.000  Al
  Al15     1.0000 0.91583  0.46104  0.18165  Biso   1.000  Al
  F5       1.0000 0.78133  0.79490  0.44613  Biso   1.000  F
  O49      1.0000 0.74560  0.49290  0.50454  Biso   1.000  O
  O50      1.0000 0.85180  0.38430  0.36880  Biso   1.000  O
  O51      1.0000 0.81920  0.59560  0.38088  Biso   1.000  O
  O52      1.0000 0.85160  0.32340  0.52204  Biso   1.000  O
  O53      1.0000 0.85630  0.51480  0.26120  Biso   1.000  O
  O54      1.0000 0.70050  0.33590  0.58920  Biso   1.000  O
  O55      1.0000 0.88780  0.65430  0.51420  Biso   1.000  O
  O56      1.0000 0.01350  0.77460  0.57320  Biso   1.000  O
  O57      1.0000 0.64790  0.64940  0.42822  Biso   1.000  O
  O58      1.0000 0.89110  0.68120  0.65046  Biso   1.000  O
  O59      1.0000 0.83070  0.46190  0.62534  Biso   1.000  O
  O60      1.0000 0.98360  0.52840  0.35680  Biso   1.000  O
  P16      1.0000 0.28387  0.90754  0.55989  Biso   1.000  P
  P17      1.0000 0.40870  0.23875  0.57585  Biso   1.000  P
  P18      1.0000 0.37894  0.00620  0.34332  Biso   1.000  P
  Al16     1.0000 0.27015  0.13763  0.46900  Biso   1.000  Al
  Al17     1.0000 0.37355  0.77829  0.43338  Biso   1.000  Al
  Al18     1.0000 0.41583  0.96104  0.18165  Biso   1.000  Al
  F6       1.0000 0.28133  0.29490  0.44613  Biso   1.000  F
  O61      1.0000 0.24560  0.99290  0.50454  Biso   1.000  O
  O62      1.0000 0.35180  0.88430  0.36880  Biso   1.000  O
  O63      1.0000 0.31920  0.09560  0.38088  Biso   1.000  O
  O64      1.0000 0.35160  0.82340  0.52204  Biso   1.000  O
  O65      1.0000 0.35630  0.01480  0.26120  Biso   1.000  O
  O66      1.0000 0.20050  0.83590  0.58920  Biso   1.000  O
  O67      1.0000 0.38780  0.15430  0.51420  Biso   1.000  O
  O68      1.0000 0.51350  0.27460  0.57320  Biso   1.000  O
  O69      1.0000 0.14790  0.14940  0.42822  Biso   1.000  O
  O70      1.0000 0.39110  0.18120  0.65046  Biso   1.000  O
  O71      1.0000 0.33070  0.96190  0.62534  Biso   1.000  O
  O72      1.0000 0.48360  0.02840  0.35680  Biso   1.000  O
  P19      1.0000 0.21613  0.40754  0.94011  Biso   1.000  P
  P20      1.0000 0.09130  0.73875  0.92415  Biso   1.000  P
  P21      1.0000 0.12106  0.50620  0.15668  Biso   1.000  P
  Al19     1.0000 0.22985  0.63763  0.03100  Biso   1.000  Al
  Al20     1.0000 0.12645  0.27829  0.06662  Biso   1.000  Al
  Al21     1.0000 0.08417  0.46104  0.31835  Biso   1.000  Al
  F7       1.0000 0.21867  0.79490  0.05387  Biso   1.000  F
  O73      1.0000 0.25440  0.49290  0.99546  Biso   1.000  O
  O74      1.0000 0.14820  0.38430  0.13120  Biso   1.000  O
  O75      1.0000 0.18080  0.59560  0.11912  Biso   1.000  O
  O76      1.0000 0.14840  0.32340  0.97796  Biso   1.000  O
  O77      1.0000 0.14370  0.51480  0.23880  Biso   1.000  O
  O78      1.0000 0.29950  0.33590  0.91080  Biso   1.000  O
  O79      1.0000 0.11220  0.65430  0.98580  Biso   1.000  O
  O80      1.0000 0.98650  0.77460  0.92680  Biso   1.000  O
  O81      1.0000 0.35210  0.64940  0.07178  Biso   1.000  O
  O82      1.0000 0.10890  0.68120  0.84954  Biso   1.000  O
  O83      1.0000 0.16930  0.46190  0.87466  Biso   1.000  O
  O84      1.0000 0.01640  0.52840  0.14320  Biso   1.000  O
  P22      1.0000 0.71613  0.90754  0.94011  Biso   1.000  P
  P23      1.0000 0.59130  0.23875  0.92415  Biso   1.000  P
  P24      1.0000 0.62106  0.00620  0.15668  Biso   1.000  P
  Al22     1.0000 0.72985  0.13763  0.03100  Biso   1.000  Al
  Al23     1.0000 0.62645  0.77829  0.06662  Biso   1.000  Al
  Al24     1.0000 0.58417  0.96104  0.31835  Biso   1.000  Al
  F8       1.0000 0.71867  0.29490  0.05387  Biso   1.000  F
  O85      1.0000 0.75440  0.99290  0.99546  Biso   1.000  O
  O86      1.0000 0.64820  0.88430  0.13120  Biso   1.000  O
  O87      1.0000 0.68080  0.09560  0.11912  Biso   1.000  O
  O88      1.0000 0.64840  0.82340  0.97796  Biso   1.000  O
  O89      1.0000 0.64370  0.01480  0.23880  Biso   1.000  O
  O90      1.0000 0.79950  0.83590  0.91080  Biso   1.000  O
  O91      1.0000 0.61220  0.15430  0.98580  Biso   1.000  O
  O92      1.0000 0.48650  0.27460  0.92680  Biso   1.000  O
  O93      1.0000 0.85210  0.14940  0.07178  Biso   1.000  O
  O94      1.0000 0.60890  0.18120  0.84954  Biso   1.000  O
  O95      1.0000 0.66930  0.96190  0.87466  Biso   1.000  O
  O96      1.0000 0.51640  0.02840  0.14320  Biso   1.000  O
  F9       1.0000 0.00000  0.60930  0.75000  Biso   1.000  F
  F10      1.0000 0.50000  0.10930  0.75000  Biso   1.000  F
  F11      1.0000 0.00000  0.39070  0.25000  Biso   1.000  F
  F12      1.0000 0.50000  0.89070  0.25000  Biso   1.000  F
