data_image0
_cell_length_a       18.7772
_cell_length_b       18.7772
_cell_length_c       19.744
_cell_angle_alpha    112.881
_cell_angle_beta     112.881
_cell_angle_gamma    100.505

_symmetry_space_group_name_H-M    P 1
_symmetry_int_tables_number       1

loop_
  _symmetry_equiv_pos_as_xyz
  'x, y, z'

loop_
  _atom_site_label
  _atom_site_occupancy
  _atom_site_fract_x
  _atom_site_fract_y
  _atom_site_fract_z
  _atom_site_thermal_displace_type
  _atom_site_B_iso_or_equiv
  _atom_site_type_symbol
  Mn1      1.0000 0.31527  0.31527  0.30246  Biso   1.000  Mn
  Mn2      1.0000 0.98719  0.98719  0.30246  Biso   1.000  Mn
  Mn3      1.0000 0.68473  0.68473  0.69754  Biso   1.000  Mn
  Mn4      1.0000 0.01281  0.01281  0.69754  Biso   1.000  Mn
  Mn5      1.0000 0.50000  0.50000  0.50000  Biso   1.000  Mn
  Mn6      1.0000 0.00000  0.00000  0.50000  Biso   1.000  Mn
  Mn7      1.0000 0.03029  0.58589  0.00000  Biso   1.000  Mn
  Mn8      1.0000 0.96971  0.41411  0.00000  Biso   1.000  Mn
  Mn9      1.0000 0.41411  0.96971  0.00000  Biso   1.000  Mn
  Mn10     1.0000 0.58589  0.03029  0.00000  Biso   1.000  Mn
  Ni1      1.0000 0.50000  0.00000  0.50000  Biso   1.000  Ni
  Ni2      1.0000 0.00000  0.50000  0.50000  Biso   1.000  Ni
  H1       1.0000 0.29410  0.73810  0.44140  Biso   1.000  H
  H2       1.0000 0.44670  0.71910  0.26540  Biso   1.000  H
  H3       1.0000 0.42640  0.66340  0.40980  Biso   1.000  H
  H4       1.0000 0.22590  0.46470  0.20480  Biso   1.000  H
  H5       1.0000 0.26020  0.69040  0.23180  Biso   1.000  H
  H6       1.0000 0.14730  0.70330  0.44140  Biso   1.000  H
  H7       1.0000 0.81870  0.54630  0.26540  Biso   1.000  H
  H8       1.0000 0.98340  0.74640  0.40980  Biso   1.000  H
  H9       1.0000 0.97890  0.74010  0.20480  Biso   1.000  H
  H10      1.0000 0.97160  0.54140  0.23180  Biso   1.000  H
  H11      1.0000 0.26190  0.70590  0.55860  Biso   1.000  H
  H12      1.0000 0.28090  0.55330  0.73460  Biso   1.000  H
  H13      1.0000 0.33660  0.57360  0.59020  Biso   1.000  H
  H14      1.0000 0.53530  0.77410  0.79520  Biso   1.000  H
  H15      1.0000 0.30960  0.73980  0.76820  Biso   1.000  H
  H16      1.0000 0.29670  0.85270  0.55860  Biso   1.000  H
  H17      1.0000 0.45370  0.18130  0.73460  Biso   1.000  H
  H18      1.0000 0.25360  0.01660  0.59020  Biso   1.000  H
  H19      1.0000 0.25990  0.02110  0.79520  Biso   1.000  H
  H20      1.0000 0.45860  0.02840  0.76820  Biso   1.000  H
  H21      1.0000 0.70590  0.26190  0.55860  Biso   1.000  H
  H22      1.0000 0.55330  0.28090  0.73460  Biso   1.000  H
  H23      1.0000 0.57360  0.33660  0.59020  Biso   1.000  H
  H24      1.0000 0.77410  0.53530  0.79520  Biso   1.000  H
  H25      1.0000 0.73980  0.30960  0.76820  Biso   1.000  H
  H26      1.0000 0.85270  0.29670  0.55860  Biso   1.000  H
  H27      1.0000 0.18130  0.45370  0.73460  Biso   1.000  H
  H28      1.0000 0.01660  0.25360  0.59020  Biso   1.000  H
  H29      1.0000 0.02110  0.25990  0.79520  Biso   1.000  H
  H30      1.0000 0.02840  0.45860  0.76820  Biso   1.000  H
  H31      1.0000 0.73810  0.29410  0.44140  Biso   1.000  H
  H32      1.0000 0.71910  0.44670  0.26540  Biso   1.000  H
  H33      1.0000 0.66340  0.42640  0.40980  Biso   1.000  H
  H34      1.0000 0.46470  0.22590  0.20480  Biso   1.000  H
  H35      1.0000 0.69040  0.26020  0.23180  Biso   1.000  H
  H36      1.0000 0.70330  0.14730  0.44140  Biso   1.000  H
  H37      1.0000 0.54630  0.81870  0.26540  Biso   1.000  H
  H38      1.0000 0.74640  0.98340  0.40980  Biso   1.000  H
  H39      1.0000 0.74010  0.97890  0.20480  Biso   1.000  H
  H40      1.0000 0.54140  0.97160  0.23180  Biso   1.000  H
  C1       1.0000 0.32590  0.79510  0.46800  Biso   1.000  C
  C2       1.0000 0.38260  0.83240  0.44840  Biso   1.000  C
  C3       1.0000 0.39753  0.78633  0.38406  Biso   1.000  C
  C4       1.0000 0.45140  0.82360  0.36720  Biso   1.000  C
  C5       1.0000 0.46970  0.77710  0.30100  Biso   1.000  C
  C6       1.0000 0.34900  0.69280  0.33200  Biso   1.000  C
  C7       1.0000 0.37610  0.64090  0.35900  Biso   1.000  C
  C8       1.0000 0.32900  0.55400  0.31120  Biso   1.000  C
  C9       1.0000 0.25740  0.52240  0.23660  Biso   1.000  C
  C10      1.0000 0.22920  0.57220  0.20620  Biso   1.000  C
  C11      1.0000 0.27674  0.65634  0.25328  Biso   1.000  C
  C12      1.0000 0.14630  0.53530  0.12380  Biso   1.000  C
  C13      1.0000 0.36120  0.49920  0.34280  Biso   1.000  C
  C14      1.0000 0.14210  0.67290  0.46800  Biso   1.000  C
  C15      1.0000 0.06580  0.61600  0.44840  Biso   1.000  C
  C16      1.0000 0.98653  0.59773  0.38406  Biso   1.000  C
  C17      1.0000 0.91580  0.54360  0.36720  Biso   1.000  C
  C18      1.0000 0.83130  0.52390  0.30100  Biso   1.000  C
  C19      1.0000 0.98300  0.63920  0.33200  Biso   1.000  C
  C20      1.0000 0.98290  0.71810  0.35900  Biso   1.000  C
  C21      1.0000 0.98220  0.75720  0.31120  Biso   1.000  C
  C22      1.0000 0.97920  0.71420  0.23660  Biso   1.000  C
  C23      1.0000 0.97700  0.63400  0.20620  Biso   1.000  C
  C24      1.0000 0.97654  0.59694  0.25328  Biso   1.000  C
  C25      1.0000 0.97750  0.58850  0.12380  Biso   1.000  C
  C26      1.0000 0.98160  0.84360  0.34280  Biso   1.000  C
  C27      1.0000 0.20490  0.67410  0.53200  Biso   1.000  C
  C28      1.0000 0.16760  0.61740  0.55160  Biso   1.000  C
  C29      1.0000 0.21367  0.60247  0.61594  Biso   1.000  C
  C30      1.0000 0.17640  0.54860  0.63280  Biso   1.000  C
  C31      1.0000 0.22290  0.53030  0.69900  Biso   1.000  C
  C32      1.0000 0.30720  0.65100  0.66800  Biso   1.000  C
  C33      1.0000 0.35910  0.62390  0.64100  Biso   1.000  C
  C34      1.0000 0.44600  0.67100  0.68880  Biso   1.000  C
  C35      1.0000 0.47760  0.74260  0.76340  Biso   1.000  C
  C36      1.0000 0.42780  0.77080  0.79380  Biso   1.000  C
  C37      1.0000 0.34366  0.72326  0.74672  Biso   1.000  C
  C38      1.0000 0.46470  0.85370  0.87620  Biso   1.000  C
  C39      1.0000 0.50080  0.63880  0.65720  Biso   1.000  C
  C40      1.0000 0.32710  0.85790  0.53200  Biso   1.000  C
  C41      1.0000 0.38400  0.93420  0.55160  Biso   1.000  C
  C42      1.0000 0.40227  0.01347  0.61594  Biso   1.000  C
  C43      1.0000 0.45640  0.08420  0.63280  Biso   1.000  C
  C44      1.0000 0.47610  0.16870  0.69900  Biso   1.000  C
  C45      1.0000 0.36080  0.01700  0.66800  Biso   1.000  C
  C46      1.0000 0.28190  0.01710  0.64100  Biso   1.000  C
  C47      1.0000 0.24280  0.01780  0.68880  Biso   1.000  C
  C48      1.0000 0.28580  0.02080  0.76340  Biso   1.000  C
  C49      1.0000 0.36600  0.02300  0.79380  Biso   1.000  C
  C50      1.0000 0.40306  0.02346  0.74672  Biso   1.000  C
  C51      1.0000 0.41150  0.02250  0.87620  Biso   1.000  C
  C52      1.0000 0.15640  0.01840  0.65720  Biso   1.000  C
  C53      1.0000 0.67410  0.20490  0.53200  Biso   1.000  C
  C54      1.0000 0.61740  0.16760  0.55160  Biso   1.000  C
  C55      1.0000 0.60247  0.21367  0.61594  Biso   1.000  C
  C56      1.0000 0.54860  0.17640  0.63280  Biso   1.000  C
  C57      1.0000 0.53030  0.22290  0.69900  Biso   1.000  C
  C58      1.0000 0.65100  0.30720  0.66800  Biso   1.000  C
  C59      1.0000 0.62390  0.35910  0.64100  Biso   1.000  C
  C60      1.0000 0.67100  0.44600  0.68880  Biso   1.000  C
  C61      1.0000 0.74260  0.47760  0.76340  Biso   1.000  C
  C62      1.0000 0.77080  0.42780  0.79380  Biso   1.000  C
  C63      1.0000 0.72326  0.34366  0.74672  Biso   1.000  C
  C64      1.0000 0.85370  0.46470  0.87620  Biso   1.000  C
  C65      1.0000 0.63880  0.50080  0.65720  Biso   1.000  C
  C66      1.0000 0.85790  0.32710  0.53200  Biso   1.000  C
  C67      1.0000 0.93420  0.38400  0.55160  Biso   1.000  C
  C68      1.0000 0.01347  0.40227  0.61594  Biso   1.000  C
  C69      1.0000 0.08420  0.45640  0.63280  Biso   1.000  C
  C70      1.0000 0.16870  0.47610  0.69900  Biso   1.000  C
  C71      1.0000 0.01700  0.36080  0.66800  Biso   1.000  C
  C72      1.0000 0.01710  0.28190  0.64100  Biso   1.000  C
  C73      1.0000 0.01780  0.24280  0.68880  Biso   1.000  C
  C74      1.0000 0.02080  0.28580  0.76340  Biso   1.000  C
  C75      1.0000 0.02300  0.36600  0.79380  Biso   1.000  C
  C76      1.0000 0.02346  0.40306  0.74672  Biso   1.000  C
  C77      1.0000 0.02250  0.41150  0.87620  Biso   1.000  C
  C78      1.0000 0.01840  0.15640  0.65720  Biso   1.000  C
  C79      1.0000 0.79510  0.32590  0.46800  Biso   1.000  C
  C80      1.0000 0.83240  0.38260  0.44840  Biso   1.000  C
  C81      1.0000 0.78633  0.39753  0.38406  Biso   1.000  C
  C82      1.0000 0.82360  0.45140  0.36720  Biso   1.000  C
  C83      1.0000 0.77710  0.46970  0.30100  Biso   1.000  C
  C84      1.0000 0.69280  0.34900  0.33200  Biso   1.000  C
  C85      1.0000 0.64090  0.37610  0.35900  Biso   1.000  C
  C86      1.0000 0.55400  0.32900  0.31120  Biso   1.000  C
  C87      1.0000 0.52240  0.25740  0.23660  Biso   1.000  C
  C88      1.0000 0.57220  0.22920  0.20620  Biso   1.000  C
  C89      1.0000 0.65634  0.27674  0.25328  Biso   1.000  C
  C90      1.0000 0.53530  0.14630  0.12380  Biso   1.000  C
  C91      1.0000 0.49920  0.36120  0.34280  Biso   1.000  C
  C92      1.0000 0.67290  0.14210  0.46800  Biso   1.000  C
  C93      1.0000 0.61600  0.06580  0.44840  Biso   1.000  C
  C94      1.0000 0.59773  0.98653  0.38406  Biso   1.000  C
  C95      1.0000 0.54360  0.91580  0.36720  Biso   1.000  C
  C96      1.0000 0.52390  0.83130  0.30100  Biso   1.000  C
  C97      1.0000 0.63920  0.98300  0.33200  Biso   1.000  C
  C98      1.0000 0.71810  0.98290  0.35900  Biso   1.000  C
  C99      1.0000 0.75720  0.98220  0.31120  Biso   1.000  C
  C100     1.0000 0.71420  0.97920  0.23660  Biso   1.000  C
  C101     1.0000 0.63400  0.97700  0.20620  Biso   1.000  C
  C102     1.0000 0.59694  0.97654  0.25328  Biso   1.000  C
  C103     1.0000 0.58850  0.97750  0.12380  Biso   1.000  C
  C104     1.0000 0.84360  0.98160  0.34280  Biso   1.000  C
  N1       1.0000 0.41900  0.91900  0.50000  Biso   1.000  N
  N2       1.0000 0.08100  0.58100  0.50000  Biso   1.000  N
  N3       1.0000 0.58100  0.08100  0.50000  Biso   1.000  N
  N4       1.0000 0.91900  0.41900  0.50000  Biso   1.000  N
  N5       1.0000 0.49840  0.90620  0.40460  Biso   1.000  N
  N6       1.0000 0.90620  0.49840  0.40460  Biso   1.000  N
  N7       1.0000 0.09380  0.50160  0.59540  Biso   1.000  N
  N8       1.0000 0.50160  0.09380  0.59540  Biso   1.000  N
  Cl1      1.0000 0.08857  0.70677  0.00000  Biso   1.000  Cl
  Cl2      1.0000 0.91143  0.29323  0.00000  Biso   1.000  Cl
  Cl3      1.0000 0.29323  0.91143  0.00000  Biso   1.000  Cl
  Cl4      1.0000 0.70677  0.08857  0.00000  Biso   1.000  Cl
  O1       1.0000 0.13303  0.58323  0.09506  Biso   1.000  O
  O2       1.0000 0.09654  0.46334  0.09328  Biso   1.000  O
  O3       1.0000 0.31730  0.42390  0.29660  Biso   1.000  O
  O4       1.0000 0.42714  0.53342  0.41236  Biso   1.000  O
  O5       1.0000 0.19790  0.30390  0.28900  Biso   1.000  O
  O6       1.0000 0.96203  0.51183  0.09506  Biso   1.000  O
  O7       1.0000 0.99674  0.62994  0.09328  Biso   1.000  O
  O8       1.0000 0.97930  0.87270  0.29660  Biso   1.000  O
  O9       1.0000 0.98522  0.87894  0.41236  Biso   1.000  O
  O10      1.0000 0.09110  0.98510  0.28900  Biso   1.000  O
  O11      1.0000 0.41677  0.86697  0.90494  Biso   1.000  O
  O12      1.0000 0.53666  0.90346  0.90672  Biso   1.000  O
  O13      1.0000 0.57610  0.68270  0.70340  Biso   1.000  O
  O14      1.0000 0.46658  0.57286  0.58764  Biso   1.000  O
  O15      1.0000 0.69610  0.80210  0.71100  Biso   1.000  O
  O16      1.0000 0.48817  0.03797  0.90494  Biso   1.000  O
  O17      1.0000 0.37006  0.00326  0.90672  Biso   1.000  O
  O18      1.0000 0.12730  0.02070  0.70340  Biso   1.000  O
  O19      1.0000 0.12106  0.01478  0.58764  Biso   1.000  O
  O20      1.0000 0.01490  0.90890  0.71100  Biso   1.000  O
  O21      1.0000 0.86697  0.41677  0.90494  Biso   1.000  O
  O22      1.0000 0.90346  0.53666  0.90672  Biso   1.000  O
  O23      1.0000 0.68270  0.57610  0.70340  Biso   1.000  O
  O24      1.0000 0.57286  0.46658  0.58764  Biso   1.000  O
  O25      1.0000 0.80210  0.69610  0.71100  Biso   1.000  O
  O26      1.0000 0.03797  0.48817  0.90494  Biso   1.000  O
  O27      1.0000 0.00326  0.37006  0.90672  Biso   1.000  O
  O28      1.0000 0.02070  0.12730  0.70340  Biso   1.000  O
  O29      1.0000 0.01478  0.12106  0.58764  Biso   1.000  O
  O30      1.0000 0.90890  0.01490  0.71100  Biso   1.000  O
  O31      1.0000 0.58323  0.13303  0.09506  Biso   1.000  O
  O32      1.0000 0.46334  0.09654  0.09328  Biso   1.000  O
  O33      1.0000 0.42390  0.31730  0.29660  Biso   1.000  O
  O34      1.0000 0.53342  0.42714  0.41236  Biso   1.000  O
  O35      1.0000 0.30390  0.19790  0.28900  Biso   1.000  O
  O36      1.0000 0.51183  0.96203  0.09506  Biso   1.000  O
  O37      1.0000 0.62994  0.99674  0.09328  Biso   1.000  O
  O38      1.0000 0.87270  0.97930  0.29660  Biso   1.000  O
  O39      1.0000 0.87894  0.98522  0.41236  Biso   1.000  O
  O40      1.0000 0.98510  0.09110  0.28900  Biso   1.000  O
  O41      1.0000 0.38270  0.38270  0.44740  Biso   1.000  O
  O42      1.0000 0.06470  0.06470  0.44740  Biso   1.000  O
  O43      1.0000 0.61730  0.61730  0.55260  Biso   1.000  O
  O44      1.0000 0.93530  0.93530  0.55260  Biso   1.000  O
