data_image0
_cell_length_a       25.507
_cell_length_b       25.507
_cell_length_c       25.507
_cell_angle_alpha    90
_cell_angle_beta     90
_cell_angle_gamma    90

_symmetry_space_group_name_H-M    "P 1"
_symmetry_int_tables_number       1

loop_
  _symmetry_equiv_pos_as_xyz
  'x, y, z'

loop_
  _atom_site_label
  _atom_site_occupancy
  _atom_site_fract_x
  _atom_site_fract_y
  _atom_site_fract_z
  _atom_site_thermal_displace_type
  _atom_site_B_iso_or_equiv
  _atom_site_type_symbol
  Zn1      1.0000 0.18679  0.82844  0.23266  Biso   1.000  Zn
  O1       1.0000 0.20145  0.81828  0.15753  Biso   1.000  O
  O2       1.0000 0.18056  0.76601  0.88888  Biso   1.000  O
  O3       1.0000 0.24729  0.70916  0.89816  Biso   1.000  O
  O4       1.0000 0.26084  0.75335  0.16104  Biso   1.000  O
  C1       1.0000 0.22918  0.78255  0.13679  Biso   1.000  C
  C2       1.0000 0.22461  0.77326  0.07947  Biso   1.000  C
  C3       1.0000 0.19482  0.80629  0.04748  Biso   1.000  C
  H1       1.0000 0.17760  0.83590  0.06210  Biso   1.000  H
  C4       1.0000 0.19042  0.79559  0.99423  Biso   1.000  C
  H2       1.0000 0.17030  0.81790  0.97230  Biso   1.000  H
  C5       1.0000 0.24840  0.72920  0.05840  Biso   1.000  C
  H3       1.0000 0.26760  0.70620  0.08050  Biso   1.000  H
  C6       1.0000 0.24430  0.71860  0.00539  Biso   1.000  C
  H4       1.0000 0.26090  0.68860  0.99100  Biso   1.000  H
  C7       1.0000 0.21420  0.74171  0.91543  Biso   1.000  C
  C8       1.0000 0.21574  0.75197  0.97318  Biso   1.000  C
  Zn2      1.0000 0.31321  0.17156  0.73266  Biso   1.000  Zn
  O5       1.0000 0.29855  0.18172  0.65753  Biso   1.000  O
  O6       1.0000 0.31944  0.23399  0.38888  Biso   1.000  O
  O7       1.0000 0.25271  0.29084  0.39816  Biso   1.000  O
  O8       1.0000 0.23916  0.24665  0.66104  Biso   1.000  O
  C9       1.0000 0.27082  0.21745  0.63679  Biso   1.000  C
  C10      1.0000 0.27539  0.22674  0.57947  Biso   1.000  C
  C11      1.0000 0.30518  0.19371  0.54748  Biso   1.000  C
  H5       1.0000 0.32240  0.16410  0.56210  Biso   1.000  H
  C12      1.0000 0.30958  0.20441  0.49423  Biso   1.000  C
  H6       1.0000 0.32970  0.18210  0.47230  Biso   1.000  H
  C13      1.0000 0.25160  0.27080  0.55840  Biso   1.000  C
  H7       1.0000 0.23240  0.29380  0.58050  Biso   1.000  H
  C14      1.0000 0.25570  0.28140  0.50539  Biso   1.000  C
  H8       1.0000 0.23910  0.31140  0.49100  Biso   1.000  H
  C15      1.0000 0.28580  0.25829  0.41543  Biso   1.000  C
  C16      1.0000 0.28426  0.24803  0.47318  Biso   1.000  C
  Zn3      1.0000 0.81321  0.32844  0.26734  Biso   1.000  Zn
  O9       1.0000 0.79855  0.31828  0.34247  Biso   1.000  O
  O10      1.0000 0.81944  0.26601  0.61112  Biso   1.000  O
  O11      1.0000 0.75271  0.20916  0.60184  Biso   1.000  O
  O12      1.0000 0.73916  0.25335  0.33896  Biso   1.000  O
  C17      1.0000 0.77082  0.28255  0.36321  Biso   1.000  C
  C18      1.0000 0.77539  0.27326  0.42053  Biso   1.000  C
  C19      1.0000 0.80518  0.30629  0.45252  Biso   1.000  C
  H9       1.0000 0.82240  0.33590  0.43790  Biso   1.000  H
  C20      1.0000 0.80958  0.29559  0.50577  Biso   1.000  C
  H10      1.0000 0.82970  0.31790  0.52770  Biso   1.000  H
  C21      1.0000 0.75160  0.22920  0.44160  Biso   1.000  C
  H11      1.0000 0.73240  0.20620  0.41950  Biso   1.000  H
  C22      1.0000 0.75570  0.21860  0.49461  Biso   1.000  C
  H12      1.0000 0.73910  0.18860  0.50900  Biso   1.000  H
  C23      1.0000 0.78580  0.24171  0.58457  Biso   1.000  C
  C24      1.0000 0.78426  0.25197  0.52682  Biso   1.000  C
  Zn4      1.0000 0.68679  0.67156  0.76734  Biso   1.000  Zn
  O13      1.0000 0.70145  0.68172  0.84247  Biso   1.000  O
  O14      1.0000 0.68056  0.73399  0.11112  Biso   1.000  O
  O15      1.0000 0.74729  0.79084  0.10184  Biso   1.000  O
  O16      1.0000 0.76084  0.74665  0.83896  Biso   1.000  O
  C25      1.0000 0.72918  0.71745  0.86321  Biso   1.000  C
  C26      1.0000 0.72461  0.72674  0.92053  Biso   1.000  C
  C27      1.0000 0.69482  0.69371  0.95252  Biso   1.000  C
  H13      1.0000 0.67760  0.66410  0.93790  Biso   1.000  H
  C28      1.0000 0.69042  0.70441  0.00577  Biso   1.000  C
  H14      1.0000 0.67030  0.68210  0.02770  Biso   1.000  H
  C29      1.0000 0.74840  0.77080  0.94160  Biso   1.000  C
  H15      1.0000 0.76760  0.79380  0.91950  Biso   1.000  H
  C30      1.0000 0.74430  0.78140  0.99461  Biso   1.000  C
  H16      1.0000 0.76090  0.81140  0.00900  Biso   1.000  H
  C31      1.0000 0.71420  0.75829  0.08457  Biso   1.000  C
  C32      1.0000 0.71574  0.74803  0.02682  Biso   1.000  C
  Zn5      1.0000 0.23266  0.18679  0.82844  Biso   1.000  Zn
  O17      1.0000 0.15753  0.20145  0.81828  Biso   1.000  O
  O18      1.0000 0.88888  0.18056  0.76601  Biso   1.000  O
  O19      1.0000 0.89816  0.24729  0.70916  Biso   1.000  O
  O20      1.0000 0.16104  0.26084  0.75335  Biso   1.000  O
  C33      1.0000 0.13679  0.22918  0.78255  Biso   1.000  C
  C34      1.0000 0.07947  0.22461  0.77326  Biso   1.000  C
  C35      1.0000 0.04748  0.19482  0.80629  Biso   1.000  C
  H17      1.0000 0.06210  0.17760  0.83590  Biso   1.000  H
  C36      1.0000 0.99423  0.19042  0.79559  Biso   1.000  C
  H18      1.0000 0.97230  0.17030  0.81790  Biso   1.000  H
  C37      1.0000 0.05840  0.24840  0.72920  Biso   1.000  C
  H19      1.0000 0.08050  0.26760  0.70620  Biso   1.000  H
  C38      1.0000 0.00539  0.24430  0.71860  Biso   1.000  C
  H20      1.0000 0.99100  0.26090  0.68860  Biso   1.000  H
  C39      1.0000 0.91543  0.21420  0.74171  Biso   1.000  C
  C40      1.0000 0.97318  0.21574  0.75197  Biso   1.000  C
  Zn6      1.0000 0.73266  0.31321  0.17156  Biso   1.000  Zn
  O21      1.0000 0.65753  0.29855  0.18172  Biso   1.000  O
  O22      1.0000 0.38888  0.31944  0.23399  Biso   1.000  O
  O23      1.0000 0.39816  0.25271  0.29084  Biso   1.000  O
  O24      1.0000 0.66104  0.23916  0.24665  Biso   1.000  O
  C41      1.0000 0.63679  0.27082  0.21745  Biso   1.000  C
  C42      1.0000 0.57947  0.27539  0.22674  Biso   1.000  C
  C43      1.0000 0.54748  0.30518  0.19371  Biso   1.000  C
  H21      1.0000 0.56210  0.32240  0.16410  Biso   1.000  H
  C44      1.0000 0.49423  0.30958  0.20441  Biso   1.000  C
  H22      1.0000 0.47230  0.32970  0.18210  Biso   1.000  H
  C45      1.0000 0.55840  0.25160  0.27080  Biso   1.000  C
  H23      1.0000 0.58050  0.23240  0.29380  Biso   1.000  H
  C46      1.0000 0.50539  0.25570  0.28140  Biso   1.000  C
  H24      1.0000 0.49100  0.23910  0.31140  Biso   1.000  H
  C47      1.0000 0.41543  0.28580  0.25829  Biso   1.000  C
  C48      1.0000 0.47318  0.28426  0.24803  Biso   1.000  C
  Zn7      1.0000 0.26734  0.81321  0.32844  Biso   1.000  Zn
  O25      1.0000 0.34247  0.79855  0.31828  Biso   1.000  O
  O26      1.0000 0.61112  0.81944  0.26601  Biso   1.000  O
  O27      1.0000 0.60184  0.75271  0.20916  Biso   1.000  O
  O28      1.0000 0.33896  0.73916  0.25335  Biso   1.000  O
  C49      1.0000 0.36321  0.77082  0.28255  Biso   1.000  C
  C50      1.0000 0.42053  0.77539  0.27326  Biso   1.000  C
  C51      1.0000 0.45252  0.80518  0.30629  Biso   1.000  C
  H25      1.0000 0.43790  0.82240  0.33590  Biso   1.000  H
  C52      1.0000 0.50577  0.80958  0.29559  Biso   1.000  C
  H26      1.0000 0.52770  0.82970  0.31790  Biso   1.000  H
  C53      1.0000 0.44160  0.75160  0.22920  Biso   1.000  C
  H27      1.0000 0.41950  0.73240  0.20620  Biso   1.000  H
  C54      1.0000 0.49461  0.75570  0.21860  Biso   1.000  C
  H28      1.0000 0.50900  0.73910  0.18860  Biso   1.000  H
  C55      1.0000 0.58457  0.78580  0.24171  Biso   1.000  C
  C56      1.0000 0.52682  0.78426  0.25197  Biso   1.000  C
  Zn8      1.0000 0.76734  0.68679  0.67156  Biso   1.000  Zn
  O29      1.0000 0.84247  0.70145  0.68172  Biso   1.000  O
  O30      1.0000 0.11112  0.68056  0.73399  Biso   1.000  O
  O31      1.0000 0.10184  0.74729  0.79084  Biso   1.000  O
  O32      1.0000 0.83896  0.76084  0.74665  Biso   1.000  O
  C57      1.0000 0.86321  0.72918  0.71745  Biso   1.000  C
  C58      1.0000 0.92053  0.72461  0.72674  Biso   1.000  C
  C59      1.0000 0.95252  0.69482  0.69371  Biso   1.000  C
  H29      1.0000 0.93790  0.67760  0.66410  Biso   1.000  H
  C60      1.0000 0.00577  0.69042  0.70441  Biso   1.000  C
  H30      1.0000 0.02770  0.67030  0.68210  Biso   1.000  H
  C61      1.0000 0.94160  0.74840  0.77080  Biso   1.000  C
  H31      1.0000 0.91950  0.76760  0.79380  Biso   1.000  H
  C62      1.0000 0.99461  0.74430  0.78140  Biso   1.000  C
  H32      1.0000 0.00900  0.76090  0.81140  Biso   1.000  H
  C63      1.0000 0.08457  0.71420  0.75829  Biso   1.000  C
  C64      1.0000 0.02682  0.71574  0.74803  Biso   1.000  C
  Zn9      1.0000 0.82844  0.23266  0.18679  Biso   1.000  Zn
  O33      1.0000 0.81828  0.15753  0.20145  Biso   1.000  O
  O34      1.0000 0.76601  0.88888  0.18056  Biso   1.000  O
  O35      1.0000 0.70916  0.89816  0.24729  Biso   1.000  O
  O36      1.0000 0.75335  0.16104  0.26084  Biso   1.000  O
  C65      1.0000 0.78255  0.13679  0.22918  Biso   1.000  C
  C66      1.0000 0.77326  0.07947  0.22461  Biso   1.000  C
  C67      1.0000 0.80629  0.04748  0.19482  Biso   1.000  C
  H33      1.0000 0.83590  0.06210  0.17760  Biso   1.000  H
  C68      1.0000 0.79559  0.99423  0.19042  Biso   1.000  C
  H34      1.0000 0.81790  0.97230  0.17030  Biso   1.000  H
  C69      1.0000 0.72920  0.05840  0.24840  Biso   1.000  C
  H35      1.0000 0.70620  0.08050  0.26760  Biso   1.000  H
  C70      1.0000 0.71860  0.00539  0.24430  Biso   1.000  C
  H36      1.0000 0.68860  0.99100  0.26090  Biso   1.000  H
  C71      1.0000 0.74171  0.91543  0.21420  Biso   1.000  C
  C72      1.0000 0.75197  0.97318  0.21574  Biso   1.000  C
  Zn10     1.0000 0.17156  0.73266  0.31321  Biso   1.000  Zn
  O37      1.0000 0.18172  0.65753  0.29855  Biso   1.000  O
  O38      1.0000 0.23399  0.38888  0.31944  Biso   1.000  O
  O39      1.0000 0.29084  0.39816  0.25271  Biso   1.000  O
  O40      1.0000 0.24665  0.66104  0.23916  Biso   1.000  O
  C73      1.0000 0.21745  0.63679  0.27082  Biso   1.000  C
  C74      1.0000 0.22674  0.57947  0.27539  Biso   1.000  C
  C75      1.0000 0.19371  0.54748  0.30518  Biso   1.000  C
  H37      1.0000 0.16410  0.56210  0.32240  Biso   1.000  H
  C76      1.0000 0.20441  0.49423  0.30958  Biso   1.000  C
  H38      1.0000 0.18210  0.47230  0.32970  Biso   1.000  H
  C77      1.0000 0.27080  0.55840  0.25160  Biso   1.000  C
  H39      1.0000 0.29380  0.58050  0.23240  Biso   1.000  H
  C78      1.0000 0.28140  0.50539  0.25570  Biso   1.000  C
  H40      1.0000 0.31140  0.49100  0.23910  Biso   1.000  H
  C79      1.0000 0.25829  0.41543  0.28580  Biso   1.000  C
  C80      1.0000 0.24803  0.47318  0.28426  Biso   1.000  C
  Zn11     1.0000 0.32844  0.26734  0.81321  Biso   1.000  Zn
  O41      1.0000 0.31828  0.34247  0.79855  Biso   1.000  O
  O42      1.0000 0.26601  0.61112  0.81944  Biso   1.000  O
  O43      1.0000 0.20916  0.60184  0.75271  Biso   1.000  O
  O44      1.0000 0.25335  0.33896  0.73916  Biso   1.000  O
  C81      1.0000 0.28255  0.36321  0.77082  Biso   1.000  C
  C82      1.0000 0.27326  0.42053  0.77539  Biso   1.000  C
  C83      1.0000 0.30629  0.45252  0.80518  Biso   1.000  C
  H41      1.0000 0.33590  0.43790  0.82240  Biso   1.000  H
  C84      1.0000 0.29559  0.50577  0.80958  Biso   1.000  C
  H42      1.0000 0.31790  0.52770  0.82970  Biso   1.000  H
  C85      1.0000 0.22920  0.44160  0.75160  Biso   1.000  C
  H43      1.0000 0.20620  0.41950  0.73240  Biso   1.000  H
  C86      1.0000 0.21860  0.49461  0.75570  Biso   1.000  C
  H44      1.0000 0.18860  0.50900  0.73910  Biso   1.000  H
  C87      1.0000 0.24171  0.58457  0.78580  Biso   1.000  C
  C88      1.0000 0.25197  0.52682  0.78426  Biso   1.000  C
  Zn12     1.0000 0.67156  0.76734  0.68679  Biso   1.000  Zn
  O45      1.0000 0.68172  0.84247  0.70145  Biso   1.000  O
  O46      1.0000 0.73399  0.11112  0.68056  Biso   1.000  O
  O47      1.0000 0.79084  0.10184  0.74729  Biso   1.000  O
  O48      1.0000 0.74665  0.83896  0.76084  Biso   1.000  O
  C89      1.0000 0.71745  0.86321  0.72918  Biso   1.000  C
  C90      1.0000 0.72674  0.92053  0.72461  Biso   1.000  C
  C91      1.0000 0.69371  0.95252  0.69482  Biso   1.000  C
  H45      1.0000 0.66410  0.93790  0.67760  Biso   1.000  H
  C92      1.0000 0.70441  0.00577  0.69042  Biso   1.000  C
  H46      1.0000 0.68210  0.02770  0.67030  Biso   1.000  H
  C93      1.0000 0.77080  0.94160  0.74840  Biso   1.000  C
  H47      1.0000 0.79380  0.91950  0.76760  Biso   1.000  H
  C94      1.0000 0.78140  0.99461  0.74430  Biso   1.000  C
  H48      1.0000 0.81140  0.00900  0.76090  Biso   1.000  H
  C95      1.0000 0.75829  0.08457  0.71420  Biso   1.000  C
  C96      1.0000 0.74803  0.02682  0.71574  Biso   1.000  C
  Zn13     1.0000 0.81321  0.17156  0.76734  Biso   1.000  Zn
  O49      1.0000 0.79855  0.18172  0.84247  Biso   1.000  O
  O50      1.0000 0.81944  0.23399  0.11112  Biso   1.000  O
  O51      1.0000 0.75271  0.29084  0.10184  Biso   1.000  O
  O52      1.0000 0.73916  0.24665  0.83896  Biso   1.000  O
  C97      1.0000 0.77082  0.21745  0.86321  Biso   1.000  C
  C98      1.0000 0.77539  0.22674  0.92053  Biso   1.000  C
  C99      1.0000 0.80518  0.19371  0.95252  Biso   1.000  C
  H49      1.0000 0.82240  0.16410  0.93790  Biso   1.000  H
  C100     1.0000 0.80958  0.20441  0.00577  Biso   1.000  C
  H50      1.0000 0.82970  0.18210  0.02770  Biso   1.000  H
  C101     1.0000 0.75160  0.27080  0.94160  Biso   1.000  C
  H51      1.0000 0.73240  0.29380  0.91950  Biso   1.000  H
  C102     1.0000 0.75570  0.28140  0.99461  Biso   1.000  C
  H52      1.0000 0.73910  0.31140  0.00900  Biso   1.000  H
  C103     1.0000 0.78580  0.25829  0.08457  Biso   1.000  C
  C104     1.0000 0.78426  0.24803  0.02682  Biso   1.000  C
  Zn14     1.0000 0.68679  0.82844  0.26734  Biso   1.000  Zn
  O53      1.0000 0.70145  0.81828  0.34247  Biso   1.000  O
  O54      1.0000 0.68056  0.76601  0.61112  Biso   1.000  O
  O55      1.0000 0.74729  0.70916  0.60184  Biso   1.000  O
  O56      1.0000 0.76084  0.75335  0.33896  Biso   1.000  O
  C105     1.0000 0.72918  0.78255  0.36321  Biso   1.000  C
  C106     1.0000 0.72461  0.77326  0.42053  Biso   1.000  C
  C107     1.0000 0.69482  0.80629  0.45252  Biso   1.000  C
  H53      1.0000 0.67760  0.83590  0.43790  Biso   1.000  H
  C108     1.0000 0.69042  0.79559  0.50577  Biso   1.000  C
  H54      1.0000 0.67030  0.81790  0.52770  Biso   1.000  H
  C109     1.0000 0.74840  0.72920  0.44160  Biso   1.000  C
  H55      1.0000 0.76760  0.70620  0.41950  Biso   1.000  H
  C110     1.0000 0.74430  0.71860  0.49461  Biso   1.000  C
  H56      1.0000 0.76090  0.68860  0.50900  Biso   1.000  H
  C111     1.0000 0.71420  0.74171  0.58457  Biso   1.000  C
  C112     1.0000 0.71574  0.75197  0.52682  Biso   1.000  C
  Zn15     1.0000 0.18679  0.67156  0.73266  Biso   1.000  Zn
  O57      1.0000 0.20145  0.68172  0.65753  Biso   1.000  O
  O58      1.0000 0.18056  0.73399  0.38888  Biso   1.000  O
  O59      1.0000 0.24729  0.79084  0.39816  Biso   1.000  O
  O60      1.0000 0.26084  0.74665  0.66104  Biso   1.000  O
  C113     1.0000 0.22918  0.71745  0.63679  Biso   1.000  C
  C114     1.0000 0.22461  0.72674  0.57947  Biso   1.000  C
  C115     1.0000 0.19482  0.69371  0.54748  Biso   1.000  C
  H57      1.0000 0.17760  0.66410  0.56210  Biso   1.000  H
  C116     1.0000 0.19042  0.70441  0.49423  Biso   1.000  C
  H58      1.0000 0.17030  0.68210  0.47230  Biso   1.000  H
  C117     1.0000 0.24840  0.77080  0.55840  Biso   1.000  C
  H59      1.0000 0.26760  0.79380  0.58050  Biso   1.000  H
  C118     1.0000 0.24430  0.78140  0.50539  Biso   1.000  C
  H60      1.0000 0.26090  0.81140  0.49100  Biso   1.000  H
  C119     1.0000 0.21420  0.75829  0.41543  Biso   1.000  C
  C120     1.0000 0.21574  0.74803  0.47318  Biso   1.000  C
  Zn16     1.0000 0.31321  0.32844  0.23266  Biso   1.000  Zn
  O61      1.0000 0.29855  0.31828  0.15753  Biso   1.000  O
  O62      1.0000 0.31944  0.26601  0.88888  Biso   1.000  O
  O63      1.0000 0.25271  0.20916  0.89816  Biso   1.000  O
  O64      1.0000 0.23916  0.25335  0.16104  Biso   1.000  O
  C121     1.0000 0.27082  0.28255  0.13679  Biso   1.000  C
  C122     1.0000 0.27539  0.27326  0.07947  Biso   1.000  C
  C123     1.0000 0.30518  0.30629  0.04748  Biso   1.000  C
  H61      1.0000 0.32240  0.33590  0.06210  Biso   1.000  H
  C124     1.0000 0.30958  0.29559  0.99423  Biso   1.000  C
  H62      1.0000 0.32970  0.31790  0.97230  Biso   1.000  H
  C125     1.0000 0.25160  0.22920  0.05840  Biso   1.000  C
  H63      1.0000 0.23240  0.20620  0.08050  Biso   1.000  H
  C126     1.0000 0.25570  0.21860  0.00539  Biso   1.000  C
  H64      1.0000 0.23910  0.18860  0.99100  Biso   1.000  H
  C127     1.0000 0.28580  0.24171  0.91543  Biso   1.000  C
  C128     1.0000 0.28426  0.25197  0.97318  Biso   1.000  C
  Zn17     1.0000 0.76734  0.81321  0.17156  Biso   1.000  Zn
  O65      1.0000 0.84247  0.79855  0.18172  Biso   1.000  O
  O66      1.0000 0.11112  0.81944  0.23399  Biso   1.000  O
  O67      1.0000 0.10184  0.75271  0.29084  Biso   1.000  O
  O68      1.0000 0.83896  0.73916  0.24665  Biso   1.000  O
  C129     1.0000 0.86321  0.77082  0.21745  Biso   1.000  C
  C130     1.0000 0.92053  0.77539  0.22674  Biso   1.000  C
  C131     1.0000 0.95252  0.80518  0.19371  Biso   1.000  C
  H65      1.0000 0.93790  0.82240  0.16410  Biso   1.000  H
  C132     1.0000 0.00577  0.80958  0.20441  Biso   1.000  C
  H66      1.0000 0.02770  0.82970  0.18210  Biso   1.000  H
  C133     1.0000 0.94160  0.75160  0.27080  Biso   1.000  C
  H67      1.0000 0.91950  0.73240  0.29380  Biso   1.000  H
  C134     1.0000 0.99461  0.75570  0.28140  Biso   1.000  C
  H68      1.0000 0.00900  0.73910  0.31140  Biso   1.000  H
  C135     1.0000 0.08457  0.78580  0.25829  Biso   1.000  C
  C136     1.0000 0.02682  0.78426  0.24803  Biso   1.000  C
  Zn18     1.0000 0.26734  0.68679  0.82844  Biso   1.000  Zn
  O69      1.0000 0.34247  0.70145  0.81828  Biso   1.000  O
  O70      1.0000 0.61112  0.68056  0.76601  Biso   1.000  O
  O71      1.0000 0.60184  0.74729  0.70916  Biso   1.000  O
  O72      1.0000 0.33896  0.76084  0.75335  Biso   1.000  O
  C137     1.0000 0.36321  0.72918  0.78255  Biso   1.000  C
  C138     1.0000 0.42053  0.72461  0.77326  Biso   1.000  C
  C139     1.0000 0.45252  0.69482  0.80629  Biso   1.000  C
  H69      1.0000 0.43790  0.67760  0.83590  Biso   1.000  H
  C140     1.0000 0.50577  0.69042  0.79559  Biso   1.000  C
  H70      1.0000 0.52770  0.67030  0.81790  Biso   1.000  H
  C141     1.0000 0.44160  0.74840  0.72920  Biso   1.000  C
  H71      1.0000 0.41950  0.76760  0.70620  Biso   1.000  H
  C142     1.0000 0.49461  0.74430  0.71860  Biso   1.000  C
  H72      1.0000 0.50900  0.76090  0.68860  Biso   1.000  H
  C143     1.0000 0.58457  0.71420  0.74171  Biso   1.000  C
  C144     1.0000 0.52682  0.71574  0.75197  Biso   1.000  C
  Zn19     1.0000 0.73266  0.18679  0.67156  Biso   1.000  Zn
  O73      1.0000 0.65753  0.20145  0.68172  Biso   1.000  O
  O74      1.0000 0.38888  0.18056  0.73399  Biso   1.000  O
  O75      1.0000 0.39816  0.24729  0.79084  Biso   1.000  O
  O76      1.0000 0.66104  0.26084  0.74665  Biso   1.000  O
  C145     1.0000 0.63679  0.22918  0.71745  Biso   1.000  C
  C146     1.0000 0.57947  0.22461  0.72674  Biso   1.000  C
  C147     1.0000 0.54748  0.19482  0.69371  Biso   1.000  C
  H73      1.0000 0.56210  0.17760  0.66410  Biso   1.000  H
  C148     1.0000 0.49423  0.19042  0.70441  Biso   1.000  C
  H74      1.0000 0.47230  0.17030  0.68210  Biso   1.000  H
  C149     1.0000 0.55840  0.24840  0.77080  Biso   1.000  C
  H75      1.0000 0.58050  0.26760  0.79380  Biso   1.000  H
  C150     1.0000 0.50539  0.24430  0.78140  Biso   1.000  C
  H76      1.0000 0.49100  0.26090  0.81140  Biso   1.000  H
  C151     1.0000 0.41543  0.21420  0.75829  Biso   1.000  C
  C152     1.0000 0.47318  0.21574  0.74803  Biso   1.000  C
  Zn20     1.0000 0.23266  0.31321  0.32844  Biso   1.000  Zn
  O77      1.0000 0.15753  0.29855  0.31828  Biso   1.000  O
  O78      1.0000 0.88888  0.31944  0.26601  Biso   1.000  O
  O79      1.0000 0.89816  0.25271  0.20916  Biso   1.000  O
  O80      1.0000 0.16104  0.23916  0.25335  Biso   1.000  O
  C153     1.0000 0.13679  0.27082  0.28255  Biso   1.000  C
  C154     1.0000 0.07947  0.27539  0.27326  Biso   1.000  C
  C155     1.0000 0.04748  0.30518  0.30629  Biso   1.000  C
  H77      1.0000 0.06210  0.32240  0.33590  Biso   1.000  H
  C156     1.0000 0.99423  0.30958  0.29559  Biso   1.000  C
  H78      1.0000 0.97230  0.32970  0.31790  Biso   1.000  H
  C157     1.0000 0.05840  0.25160  0.22920  Biso   1.000  C
  H79      1.0000 0.08050  0.23240  0.20620  Biso   1.000  H
  C158     1.0000 0.00539  0.25570  0.21860  Biso   1.000  C
  H80      1.0000 0.99100  0.23910  0.18860  Biso   1.000  H
  C159     1.0000 0.91543  0.28580  0.24171  Biso   1.000  C
  C160     1.0000 0.97318  0.28426  0.25197  Biso   1.000  C
  Zn21     1.0000 0.17156  0.76734  0.81321  Biso   1.000  Zn
  O81      1.0000 0.18172  0.84247  0.79855  Biso   1.000  O
  O82      1.0000 0.23399  0.11112  0.81944  Biso   1.000  O
  O83      1.0000 0.29084  0.10184  0.75271  Biso   1.000  O
  O84      1.0000 0.24665  0.83896  0.73916  Biso   1.000  O
  C161     1.0000 0.21745  0.86321  0.77082  Biso   1.000  C
  C162     1.0000 0.22674  0.92053  0.77539  Biso   1.000  C
  C163     1.0000 0.19371  0.95252  0.80518  Biso   1.000  C
  H81      1.0000 0.16410  0.93790  0.82240  Biso   1.000  H
  C164     1.0000 0.20441  0.00577  0.80958  Biso   1.000  C
  H82      1.0000 0.18210  0.02770  0.82970  Biso   1.000  H
  C165     1.0000 0.27080  0.94160  0.75160  Biso   1.000  C
  H83      1.0000 0.29380  0.91950  0.73240  Biso   1.000  H
  C166     1.0000 0.28140  0.99461  0.75570  Biso   1.000  C
  H84      1.0000 0.31140  0.00900  0.73910  Biso   1.000  H
  C167     1.0000 0.25829  0.08457  0.78580  Biso   1.000  C
  C168     1.0000 0.24803  0.02682  0.78426  Biso   1.000  C
  Zn22     1.0000 0.82844  0.26734  0.68679  Biso   1.000  Zn
  O85      1.0000 0.81828  0.34247  0.70145  Biso   1.000  O
  O86      1.0000 0.76601  0.61112  0.68056  Biso   1.000  O
  O87      1.0000 0.70916  0.60184  0.74729  Biso   1.000  O
  O88      1.0000 0.75335  0.33896  0.76084  Biso   1.000  O
  C169     1.0000 0.78255  0.36321  0.72918  Biso   1.000  C
  C170     1.0000 0.77326  0.42053  0.72461  Biso   1.000  C
  C171     1.0000 0.80629  0.45252  0.69482  Biso   1.000  C
  H85      1.0000 0.83590  0.43790  0.67760  Biso   1.000  H
  C172     1.0000 0.79559  0.50577  0.69042  Biso   1.000  C
  H86      1.0000 0.81790  0.52770  0.67030  Biso   1.000  H
  C173     1.0000 0.72920  0.44160  0.74840  Biso   1.000  C
  H87      1.0000 0.70620  0.41950  0.76760  Biso   1.000  H
  C174     1.0000 0.71860  0.49461  0.74430  Biso   1.000  C
  H88      1.0000 0.68860  0.50900  0.76090  Biso   1.000  H
  C175     1.0000 0.74171  0.58457  0.71420  Biso   1.000  C
  C176     1.0000 0.75197  0.52682  0.71574  Biso   1.000  C
  Zn23     1.0000 0.67156  0.73266  0.18679  Biso   1.000  Zn
  O89      1.0000 0.68172  0.65753  0.20145  Biso   1.000  O
  O90      1.0000 0.73399  0.38888  0.18056  Biso   1.000  O
  O91      1.0000 0.79084  0.39816  0.24729  Biso   1.000  O
  O92      1.0000 0.74665  0.66104  0.26084  Biso   1.000  O
  C177     1.0000 0.71745  0.63679  0.22918  Biso   1.000  C
  C178     1.0000 0.72674  0.57947  0.22461  Biso   1.000  C
  C179     1.0000 0.69371  0.54748  0.19482  Biso   1.000  C
  H89      1.0000 0.66410  0.56210  0.17760  Biso   1.000  H
  C180     1.0000 0.70441  0.49423  0.19042  Biso   1.000  C
  H90      1.0000 0.68210  0.47230  0.17030  Biso   1.000  H
  C181     1.0000 0.77080  0.55840  0.24840  Biso   1.000  C
  H91      1.0000 0.79380  0.58050  0.26760  Biso   1.000  H
  C182     1.0000 0.78140  0.50539  0.24430  Biso   1.000  C
  H92      1.0000 0.81140  0.49100  0.26090  Biso   1.000  H
  C183     1.0000 0.75829  0.41543  0.21420  Biso   1.000  C
  C184     1.0000 0.74803  0.47318  0.21574  Biso   1.000  C
  Zn24     1.0000 0.32844  0.23266  0.31321  Biso   1.000  Zn
  O93      1.0000 0.31828  0.15753  0.29855  Biso   1.000  O
  O94      1.0000 0.26601  0.88888  0.31944  Biso   1.000  O
  O95      1.0000 0.20916  0.89816  0.25271  Biso   1.000  O
  O96      1.0000 0.25335  0.16104  0.23916  Biso   1.000  O
  C185     1.0000 0.28255  0.13679  0.27082  Biso   1.000  C
  C186     1.0000 0.27326  0.07947  0.27539  Biso   1.000  C
  C187     1.0000 0.30629  0.04748  0.30518  Biso   1.000  C
  H93      1.0000 0.33590  0.06210  0.32240  Biso   1.000  H
  C188     1.0000 0.29559  0.99423  0.30958  Biso   1.000  C
  H94      1.0000 0.31790  0.97230  0.32970  Biso   1.000  H
  C189     1.0000 0.22920  0.05840  0.25160  Biso   1.000  C
  H95      1.0000 0.20620  0.08050  0.23240  Biso   1.000  H
  C190     1.0000 0.21860  0.00539  0.25570  Biso   1.000  C
  H96      1.0000 0.18860  0.99100  0.23910  Biso   1.000  H
  C191     1.0000 0.24171  0.91543  0.28580  Biso   1.000  C
  C192     1.0000 0.25197  0.97318  0.28426  Biso   1.000  C
  Zn25     1.0000 0.26611  0.73389  0.23389  Biso   1.000  Zn
  O97      1.0000 0.22230  0.77770  0.27770  Biso   1.000  O
  Zn26     1.0000 0.23389  0.26611  0.73389  Biso   1.000  Zn
  O98      1.0000 0.27770  0.22230  0.77770  Biso   1.000  O
  Zn27     1.0000 0.73389  0.23389  0.26611  Biso   1.000  Zn
  O99      1.0000 0.77770  0.27770  0.22230  Biso   1.000  O
  Zn28     1.0000 0.76611  0.76611  0.76611  Biso   1.000  Zn
  O100     1.0000 0.72230  0.72230  0.72230  Biso   1.000  O
  Zn29     1.0000 0.73389  0.26611  0.76611  Biso   1.000  Zn
  O101     1.0000 0.77770  0.22230  0.72230  Biso   1.000  O
  Zn30     1.0000 0.76611  0.73389  0.26611  Biso   1.000  Zn
  O102     1.0000 0.72230  0.77770  0.22230  Biso   1.000  O
  Zn31     1.0000 0.26611  0.76611  0.73389  Biso   1.000  Zn
  O103     1.0000 0.22230  0.72230  0.77770  Biso   1.000  O
  Zn32     1.0000 0.23389  0.23389  0.23389  Biso   1.000  Zn
  O104     1.0000 0.27770  0.27770  0.27770  Biso   1.000  O
