data_image0
_cell_length_a       8.9082
_cell_length_b       10.5533
_cell_length_c       18.6627
_cell_angle_alpha    90
_cell_angle_beta     90
_cell_angle_gamma    90

_symmetry_space_group_name_H-M    P 1
_symmetry_int_tables_number       1

loop_
  _symmetry_equiv_pos_as_xyz
  'x, y, z'

loop_
  _atom_site_label
  _atom_site_occupancy
  _atom_site_fract_x
  _atom_site_fract_y
  _atom_site_fract_z
  _atom_site_thermal_displace_type
  _atom_site_B_iso_or_equiv
  _atom_site_type_symbol
  Zn1      1.0000 0.87050  0.98471  0.39907  Biso   1.000  Zn
  Zn2      1.0000 0.37050  0.01529  0.60093  Biso   1.000  Zn
  Zn3      1.0000 0.87050  0.51529  0.89907  Biso   1.000  Zn
  Zn4      1.0000 0.37050  0.48471  0.10093  Biso   1.000  Zn
  H1       1.0000 0.17880  0.03760  0.47000  Biso   1.000  H
  H2       1.0000 0.76080  0.64130  0.60040  Biso   1.000  H
  H3       1.0000 0.15820  0.69810  0.72770  Biso   1.000  H
  H4       1.0000 0.24990  0.79780  0.69190  Biso   1.000  H
  H5       1.0000 0.02710  0.32390  0.28700  Biso   1.000  H
  H6       1.0000 0.14980  0.46830  0.21320  Biso   1.000  H
  H7       1.0000 0.40760  0.20720  0.13620  Biso   1.000  H
  H8       1.0000 0.29560  0.05500  0.20830  Biso   1.000  H
  H9       1.0000 0.67880  0.96240  0.53000  Biso   1.000  H
  H10      1.0000 0.26080  0.35870  0.39960  Biso   1.000  H
  H11      1.0000 0.65820  0.30190  0.27230  Biso   1.000  H
  H12      1.0000 0.74990  0.20220  0.30810  Biso   1.000  H
  H13      1.0000 0.52710  0.67610  0.71300  Biso   1.000  H
  H14      1.0000 0.64980  0.53170  0.78680  Biso   1.000  H
  H15      1.0000 0.90760  0.79280  0.86380  Biso   1.000  H
  H16      1.0000 0.79560  0.94500  0.79170  Biso   1.000  H
  H17      1.0000 0.17880  0.46240  0.97000  Biso   1.000  H
  H18      1.0000 0.76080  0.85870  0.10040  Biso   1.000  H
  H19      1.0000 0.15820  0.80190  0.22770  Biso   1.000  H
  H20      1.0000 0.24990  0.70220  0.19190  Biso   1.000  H
  H21      1.0000 0.02710  0.17610  0.78700  Biso   1.000  H
  H22      1.0000 0.14980  0.03170  0.71320  Biso   1.000  H
  H23      1.0000 0.40760  0.29280  0.63620  Biso   1.000  H
  H24      1.0000 0.29560  0.44500  0.70830  Biso   1.000  H
  H25      1.0000 0.67880  0.53760  0.03000  Biso   1.000  H
  H26      1.0000 0.26080  0.14130  0.89960  Biso   1.000  H
  H27      1.0000 0.65820  0.19810  0.77230  Biso   1.000  H
  H28      1.0000 0.74990  0.29780  0.80810  Biso   1.000  H
  H29      1.0000 0.52710  0.82390  0.21300  Biso   1.000  H
  H30      1.0000 0.64980  0.96830  0.28680  Biso   1.000  H
  H31      1.0000 0.90760  0.70720  0.36380  Biso   1.000  H
  H32      1.0000 0.79560  0.55500  0.29170  Biso   1.000  H
  C1       1.0000 0.13030  0.97650  0.49740  Biso   1.000  C
  C2       1.0000 0.84360  0.69410  0.59480  Biso   1.000  C
  C3       1.0000 0.06520  0.76090  0.64020  Biso   1.000  C
  C4       1.0000 0.07960  0.84310  0.58120  Biso   1.000  C
  C5       1.0000 0.96680  0.84020  0.53230  Biso   1.000  C
  C6       1.0000 0.07760  0.07530  0.30430  Biso   1.000  C
  C7       1.0000 0.10480  0.29800  0.25700  Biso   1.000  C
  C8       1.0000 0.15430  0.17250  0.25600  Biso   1.000  C
  C9       1.0000 0.17720  0.38330  0.21110  Biso   1.000  C
  C10      1.0000 0.32870  0.23020  0.16620  Biso   1.000  C
  C11      1.0000 0.26340  0.13880  0.21040  Biso   1.000  C
  C12      1.0000 0.63030  0.02350  0.50260  Biso   1.000  C
  C13      1.0000 0.34360  0.30590  0.40520  Biso   1.000  C
  C14      1.0000 0.56520  0.23910  0.35980  Biso   1.000  C
  C15      1.0000 0.57960  0.15690  0.41880  Biso   1.000  C
  C16      1.0000 0.46680  0.15980  0.46770  Biso   1.000  C
  C17      1.0000 0.57760  0.92470  0.69570  Biso   1.000  C
  C18      1.0000 0.60480  0.70200  0.74300  Biso   1.000  C
  C19      1.0000 0.65430  0.82750  0.74400  Biso   1.000  C
  C20      1.0000 0.67720  0.61670  0.78890  Biso   1.000  C
  C21      1.0000 0.82870  0.76980  0.83380  Biso   1.000  C
  C22      1.0000 0.76340  0.86120  0.78960  Biso   1.000  C
  C23      1.0000 0.13030  0.52350  0.99740  Biso   1.000  C
  C24      1.0000 0.84360  0.80590  0.09480  Biso   1.000  C
  C25      1.0000 0.06520  0.73910  0.14020  Biso   1.000  C
  C26      1.0000 0.07960  0.65690  0.08120  Biso   1.000  C
  C27      1.0000 0.96680  0.65980  0.03230  Biso   1.000  C
  C28      1.0000 0.07760  0.42470  0.80430  Biso   1.000  C
  C29      1.0000 0.10480  0.20200  0.75700  Biso   1.000  C
  C30      1.0000 0.15430  0.32750  0.75600  Biso   1.000  C
  C31      1.0000 0.17720  0.11670  0.71110  Biso   1.000  C
  C32      1.0000 0.32870  0.26980  0.66620  Biso   1.000  C
  C33      1.0000 0.26340  0.36120  0.71040  Biso   1.000  C
  C34      1.0000 0.63030  0.47650  0.00260  Biso   1.000  C
  C35      1.0000 0.34360  0.19410  0.90520  Biso   1.000  C
  C36      1.0000 0.56520  0.26090  0.85980  Biso   1.000  C
  C37      1.0000 0.57960  0.34310  0.91880  Biso   1.000  C
  C38      1.0000 0.46680  0.34020  0.96770  Biso   1.000  C
  C39      1.0000 0.57760  0.57530  0.19570  Biso   1.000  C
  C40      1.0000 0.60480  0.79800  0.24300  Biso   1.000  C
  C41      1.0000 0.65430  0.67250  0.24400  Biso   1.000  C
  C42      1.0000 0.67720  0.88330  0.28890  Biso   1.000  C
  C43      1.0000 0.82870  0.73020  0.33380  Biso   1.000  C
  C44      1.0000 0.76340  0.63880  0.28960  Biso   1.000  C
  N1       1.0000 0.99610  0.92510  0.47820  Biso   1.000  N
  N2       1.0000 0.84330  0.76880  0.53610  Biso   1.000  N
  N3       1.0000 0.18730  0.93160  0.55930  Biso   1.000  N
  N4       1.0000 0.94410  0.68720  0.64380  Biso   1.000  N
  N5       1.0000 0.17090  0.75100  0.69320  Biso   1.000  N
  N6       1.0000 0.28000  0.35030  0.16590  Biso   1.000  N
  N7       1.0000 0.49610  0.07490  0.52180  Biso   1.000  N
  N8       1.0000 0.34330  0.23120  0.46390  Biso   1.000  N
  N9       1.0000 0.68730  0.06840  0.44070  Biso   1.000  N
  N10      1.0000 0.44410  0.31280  0.35620  Biso   1.000  N
  N11      1.0000 0.67090  0.24900  0.30680  Biso   1.000  N
  N12      1.0000 0.78000  0.64970  0.83410  Biso   1.000  N
  N13      1.0000 0.99610  0.57490  0.97820  Biso   1.000  N
  N14      1.0000 0.84330  0.73120  0.03610  Biso   1.000  N
  N15      1.0000 0.18730  0.56840  0.05930  Biso   1.000  N
  N16      1.0000 0.94410  0.81280  0.14380  Biso   1.000  N
  N17      1.0000 0.17090  0.74900  0.19320  Biso   1.000  N
  N18      1.0000 0.28000  0.14970  0.66590  Biso   1.000  N
  N19      1.0000 0.49610  0.42510  0.02180  Biso   1.000  N
  N20      1.0000 0.34330  0.26880  0.96390  Biso   1.000  N
  N21      1.0000 0.68730  0.43160  0.94070  Biso   1.000  N
  N22      1.0000 0.44410  0.18720  0.85620  Biso   1.000  N
  N23      1.0000 0.67090  0.25100  0.80680  Biso   1.000  N
  N24      1.0000 0.78000  0.85030  0.33410  Biso   1.000  N
  O1       1.0000 0.96320  0.11520  0.33870  Biso   1.000  O
  O2       1.0000 0.12710  0.96680  0.30600  Biso   1.000  O
  O3       1.0000 0.46320  0.88480  0.66130  Biso   1.000  O
  O4       1.0000 0.62710  0.03320  0.69400  Biso   1.000  O
  O5       1.0000 0.96320  0.38480  0.83870  Biso   1.000  O
  O6       1.0000 0.12710  0.53320  0.80600  Biso   1.000  O
  O7       1.0000 0.46320  0.61520  0.16130  Biso   1.000  O
  O8       1.0000 0.62710  0.46680  0.19400  Biso   1.000  O
