data_image0
_cell_length_a       8.7992
_cell_length_b       10.2696
_cell_length_c       18.6244
_cell_angle_alpha    90
_cell_angle_beta     90
_cell_angle_gamma    90

_symmetry_space_group_name_H-M    P 1
_symmetry_int_tables_number       1

loop_
  _symmetry_equiv_pos_as_xyz
  'x, y, z'

loop_
  _atom_site_label
  _atom_site_occupancy
  _atom_site_fract_x
  _atom_site_fract_y
  _atom_site_fract_z
  _atom_site_thermal_displace_type
  _atom_site_B_iso_or_equiv
  _atom_site_type_symbol
  Zn1      1.0000 0.13311  0.02643  0.59917  Biso   1.000  Zn
  Zn2      1.0000 0.63311  0.97357  0.40083  Biso   1.000  Zn
  Zn3      1.0000 0.13311  0.47357  0.09917  Biso   1.000  Zn
  Zn4      1.0000 0.63311  0.52643  0.90083  Biso   1.000  Zn
  H1       1.0000 0.83280  0.96290  0.52800  Biso   1.000  H
  H2       1.0000 0.23590  0.37100  0.38790  Biso   1.000  H
  H3       1.0000 0.82510  0.29650  0.26620  Biso   1.000  H
  H4       1.0000 0.73770  0.19520  0.30590  Biso   1.000  H
  H5       1.0000 0.95760  0.68910  0.70760  Biso   1.000  H
  H6       1.0000 0.84640  0.54250  0.78460  Biso   1.000  H
  H7       1.0000 0.60720  0.81850  0.87490  Biso   1.000  H
  H8       1.0000 0.70810  0.97050  0.79830  Biso   1.000  H
  H9       1.0000 0.33280  0.03710  0.47200  Biso   1.000  H
  H10      1.0000 0.73590  0.62900  0.61210  Biso   1.000  H
  H11      1.0000 0.32510  0.70350  0.73380  Biso   1.000  H
  H12      1.0000 0.23770  0.80480  0.69410  Biso   1.000  H
  H13      1.0000 0.45760  0.31090  0.29240  Biso   1.000  H
  H14      1.0000 0.34640  0.45750  0.21540  Biso   1.000  H
  H15      1.0000 0.10720  0.18150  0.12510  Biso   1.000  H
  H16      1.0000 0.20810  0.02950  0.20170  Biso   1.000  H
  H17      1.0000 0.83280  0.53710  0.02800  Biso   1.000  H
  H18      1.0000 0.23590  0.12900  0.88790  Biso   1.000  H
  H19      1.0000 0.82510  0.20350  0.76620  Biso   1.000  H
  H20      1.0000 0.73770  0.30480  0.80590  Biso   1.000  H
  H21      1.0000 0.95760  0.81090  0.20760  Biso   1.000  H
  H22      1.0000 0.84640  0.95750  0.28460  Biso   1.000  H
  H23      1.0000 0.60720  0.68150  0.37490  Biso   1.000  H
  H24      1.0000 0.70810  0.52950  0.29830  Biso   1.000  H
  H25      1.0000 0.33280  0.46290  0.97200  Biso   1.000  H
  H26      1.0000 0.73590  0.87100  0.11210  Biso   1.000  H
  H27      1.0000 0.32510  0.79650  0.23380  Biso   1.000  H
  H28      1.0000 0.23770  0.69520  0.19410  Biso   1.000  H
  H29      1.0000 0.45760  0.18910  0.79240  Biso   1.000  H
  H30      1.0000 0.34640  0.04250  0.71540  Biso   1.000  H
  H31      1.0000 0.10720  0.31850  0.62510  Biso   1.000  H
  H32      1.0000 0.20810  0.47050  0.70170  Biso   1.000  H
  C1       1.0000 0.87810  0.02640  0.49950  Biso   1.000  C
  C2       1.0000 0.15320  0.31660  0.39607  Biso   1.000  C
  C3       1.0000 0.92340  0.24240  0.35322  Biso   1.000  C
  C4       1.0000 0.91900  0.16010  0.41368  Biso   1.000  C
  C5       1.0000 0.03800  0.16740  0.46219  Biso   1.000  C
  C6       1.0000 0.91340  0.94420  0.69311  Biso   1.000  C
  C7       1.0000 0.88610  0.71710  0.74094  Biso   1.000  C
  C8       1.0000 0.84480  0.84700  0.74438  Biso   1.000  C
  C9       1.0000 0.81990  0.63000  0.78766  Biso   1.000  C
  C10      1.0000 0.67820  0.79270  0.84070  Biso   1.000  C
  C11      1.0000 0.73850  0.88390  0.79510  Biso   1.000  C
  C12      1.0000 0.37810  0.97360  0.50050  Biso   1.000  C
  C13      1.0000 0.65320  0.68340  0.60393  Biso   1.000  C
  C14      1.0000 0.42340  0.75760  0.64678  Biso   1.000  C
  C15      1.0000 0.41900  0.83990  0.58632  Biso   1.000  C
  C16      1.0000 0.53800  0.83260  0.53781  Biso   1.000  C
  C17      1.0000 0.41340  0.05580  0.30689  Biso   1.000  C
  C18      1.0000 0.38610  0.28290  0.25906  Biso   1.000  C
  C19      1.0000 0.34480  0.15300  0.25562  Biso   1.000  C
  C20      1.0000 0.31990  0.37000  0.21234  Biso   1.000  C
  C21      1.0000 0.17820  0.20730  0.15930  Biso   1.000  C
  C22      1.0000 0.23850  0.11610  0.20490  Biso   1.000  C
  C23      1.0000 0.87810  0.47360  0.99950  Biso   1.000  C
  C24      1.0000 0.15320  0.18340  0.89607  Biso   1.000  C
  C25      1.0000 0.92340  0.25760  0.85322  Biso   1.000  C
  C26      1.0000 0.91900  0.33990  0.91368  Biso   1.000  C
  C27      1.0000 0.03800  0.33260  0.96219  Biso   1.000  C
  C28      1.0000 0.91340  0.55580  0.19311  Biso   1.000  C
  C29      1.0000 0.88610  0.78290  0.24094  Biso   1.000  C
  C30      1.0000 0.84480  0.65300  0.24438  Biso   1.000  C
  C31      1.0000 0.81990  0.87000  0.28766  Biso   1.000  C
  C32      1.0000 0.67820  0.70730  0.34070  Biso   1.000  C
  C33      1.0000 0.73850  0.61610  0.29510  Biso   1.000  C
  C34      1.0000 0.37810  0.52640  0.00050  Biso   1.000  C
  C35      1.0000 0.65320  0.81660  0.10393  Biso   1.000  C
  C36      1.0000 0.42340  0.74240  0.14678  Biso   1.000  C
  C37      1.0000 0.41900  0.66010  0.08632  Biso   1.000  C
  C38      1.0000 0.53800  0.66740  0.03781  Biso   1.000  C
  C39      1.0000 0.41340  0.44420  0.80689  Biso   1.000  C
  C40      1.0000 0.38610  0.21710  0.75906  Biso   1.000  C
  C41      1.0000 0.34480  0.34700  0.75562  Biso   1.000  C
  C42      1.0000 0.31990  0.13000  0.71234  Biso   1.000  C
  C43      1.0000 0.17820  0.29270  0.65930  Biso   1.000  C
  C44      1.0000 0.23850  0.38390  0.70490  Biso   1.000  C
  N1       1.0000 0.01020  0.08180  0.51705  Biso   1.000  N
  N2       1.0000 0.16070  0.24530  0.45575  Biso   1.000  N
  N3       1.0000 0.81550  0.06800  0.43857  Biso   1.000  N
  N4       1.0000 0.04440  0.32130  0.34628  Biso   1.000  N
  N5       1.0000 0.81590  0.24500  0.30240  Biso   1.000  N
  N6       1.0000 0.71940  0.66650  0.83703  Biso   1.000  N
  N7       1.0000 0.51020  0.91820  0.48295  Biso   1.000  N
  N8       1.0000 0.66070  0.75470  0.54425  Biso   1.000  N
  N9       1.0000 0.31550  0.93200  0.56143  Biso   1.000  N
  N10      1.0000 0.54440  0.67870  0.65372  Biso   1.000  N
  N11      1.0000 0.31590  0.75500  0.69760  Biso   1.000  N
  N12      1.0000 0.21940  0.33350  0.16297  Biso   1.000  N
  N13      1.0000 0.01020  0.41820  0.01705  Biso   1.000  N
  N14      1.0000 0.16070  0.25470  0.95575  Biso   1.000  N
  N15      1.0000 0.81550  0.43200  0.93857  Biso   1.000  N
  N16      1.0000 0.04440  0.17870  0.84628  Biso   1.000  N
  N17      1.0000 0.81590  0.25500  0.80240  Biso   1.000  N
  N18      1.0000 0.71940  0.83350  0.33703  Biso   1.000  N
  N19      1.0000 0.51020  0.58180  0.98295  Biso   1.000  N
  N20      1.0000 0.66070  0.74530  0.04425  Biso   1.000  N
  N21      1.0000 0.31550  0.56800  0.06143  Biso   1.000  N
  N22      1.0000 0.54440  0.82130  0.15372  Biso   1.000  N
  N23      1.0000 0.31590  0.74500  0.19760  Biso   1.000  N
  N24      1.0000 0.21940  0.16650  0.66297  Biso   1.000  N
  O1       1.0000 0.03270  0.90190  0.66077  Biso   1.000  O
  O2       1.0000 0.85700  0.05140  0.68506  Biso   1.000  O
  O3       1.0000 0.53270  0.09810  0.33923  Biso   1.000  O
  O4       1.0000 0.35700  0.94860  0.31494  Biso   1.000  O
  O5       1.0000 0.03270  0.59810  0.16077  Biso   1.000  O
  O6       1.0000 0.85700  0.44860  0.18506  Biso   1.000  O
  O7       1.0000 0.53270  0.40190  0.83923  Biso   1.000  O
  O8       1.0000 0.35700  0.55140  0.81494  Biso   1.000  O
