data_image0
_cell_length_a       15.04
_cell_length_b       15.09
_cell_length_c       15.179
_cell_angle_alpha    105.689
_cell_angle_beta     103.559
_cell_angle_gamma    117.111

_symmetry_space_group_name_H-M    P 1
_symmetry_int_tables_number       1

loop_
  _symmetry_equiv_pos_as_xyz
  'x, y, z'

loop_
  _atom_site_label
  _atom_site_occupancy
  _atom_site_fract_x
  _atom_site_fract_y
  _atom_site_fract_z
  _atom_site_thermal_displace_type
  _atom_site_B_iso_or_equiv
  _atom_site_type_symbol
  Sm1      1.0000 0.81753  0.11268  0.68093  Biso   1.000  Sm
  Sm2      1.0000 0.55724  0.86681  0.69783  Biso   1.000  Sm
  Sm3      1.0000 0.41570  0.06229  0.64294  Biso   1.000  Sm
  Sm4      1.0000 0.18247  0.88732  0.31907  Biso   1.000  Sm
  Sm5      1.0000 0.44276  0.13319  0.30217  Biso   1.000  Sm
  Sm6      1.0000 0.58430  0.93771  0.35706  Biso   1.000  Sm
  P1       1.0000 0.61690  0.14170  0.52260  Biso   1.000  P
  P2       1.0000 0.69460  0.17190  0.80090  Biso   1.000  P
  P3       1.0000 0.62500  0.81050  0.52120  Biso   1.000  P
  P4       1.0000 0.38310  0.85830  0.47740  Biso   1.000  P
  P5       1.0000 0.30540  0.82810  0.19910  Biso   1.000  P
  P6       1.0000 0.37500  0.18950  0.47880  Biso   1.000  P
  H1       1.0000 0.79840  0.62520  0.06730  Biso   1.000  H
  H2       1.0000 0.34150  0.15350  0.77680  Biso   1.000  H
  H3       1.0000 0.40790  0.24030  0.75720  Biso   1.000  H
  H4       1.0000 0.74980  0.32030  0.70970  Biso   1.000  H
  H5       1.0000 0.65710  0.09360  0.93680  Biso   1.000  H
  H6       1.0000 0.83660  0.89030  0.55680  Biso   1.000  H
  H7       1.0000 0.67490  0.31480  0.52860  Biso   1.000  H
  H8       1.0000 0.77520  0.30460  0.55710  Biso   1.000  H
  H9       1.0000 0.84820  0.50940  0.68890  Biso   1.000  H
  H10      1.0000 0.90840  0.44990  0.70390  Biso   1.000  H
  H11      1.0000 0.96400  0.59190  0.86130  Biso   1.000  H
  H12      1.0000 0.90240  0.47690  0.86270  Biso   1.000  H
  H13      1.0000 0.80730  0.59490  0.83830  Biso   1.000  H
  H14      1.0000 0.64030  0.45340  0.81420  Biso   1.000  H
  H15      1.0000 0.69310  0.38790  0.83220  Biso   1.000  H
  H16      1.0000 0.58750  0.31390  0.65860  Biso   1.000  H
  H17      1.0000 0.66050  0.43150  0.66540  Biso   1.000  H
  H18      1.0000 0.83580  0.21970  0.94430  Biso   1.000  H
  H19      1.0000 0.80010  0.30170  0.96910  Biso   1.000  H
  H20      1.0000 0.71790  0.29000  0.07820  Biso   1.000  H
  H21      1.0000 0.61380  0.21990  0.97600  Biso   1.000  H
  H22      1.0000 0.56430  0.19450  0.10760  Biso   1.000  H
  H23      1.0000 0.52840  0.08370  0.02460  Biso   1.000  H
  H24      1.0000 0.71450  0.20700  0.20730  Biso   1.000  H
  H25      1.0000 0.76560  0.08640  0.16290  Biso   1.000  H
  H26      1.0000 0.66220  0.01090  0.06030  Biso   1.000  H
  H27      1.0000 0.81280  0.11780  0.03330  Biso   1.000  H
  H28      1.0000 0.84040  0.22650  0.11300  Biso   1.000  H
  H29      1.0000 0.66900  0.68100  0.48820  Biso   1.000  H
  H30      1.0000 0.71770  0.74740  0.60430  Biso   1.000  H
  H31      1.0000 0.88890  0.75590  0.60130  Biso   1.000  H
  H32      1.0000 0.90600  0.85580  0.68430  Biso   1.000  H
  H33      1.0000 0.07240  0.89950  0.67410  Biso   1.000  H
  H34      1.0000 0.03720  0.97350  0.64400  Biso   1.000  H
  H35      1.0000 0.00880  0.78990  0.50620  Biso   1.000  H
  H36      1.0000 0.92490  0.81190  0.37550  Biso   1.000  H
  H37      1.0000 0.94340  0.91760  0.45140  Biso   1.000  H
  H38      1.0000 0.76160  0.77190  0.38950  Biso   1.000  H
  H39      1.0000 0.80000  0.70180  0.42370  Biso   1.000  H
  H40      1.0000 0.00130  0.16780  0.02530  Biso   1.000  H
  H41      1.0000 0.13090  0.17510  0.15860  Biso   1.000  H
  H42      1.0000 0.23850  0.06780  0.96010  Biso   1.000  H
  H43      1.0000 0.11090  0.05860  0.83010  Biso   1.000  H
  H44      1.0000 0.01060  0.40680  0.57810  Biso   1.000  H
  H45      1.0000 0.16180  0.55000  0.57250  Biso   1.000  H
  H46      1.0000 0.36620  0.58010  0.82010  Biso   1.000  H
  H47      1.0000 0.21770  0.44650  0.83280  Biso   1.000  H
  H48      1.0000 0.20160  0.37480  0.93270  Biso   1.000  H
  H49      1.0000 0.65850  0.84650  0.22320  Biso   1.000  H
  H50      1.0000 0.59210  0.75970  0.24280  Biso   1.000  H
  H51      1.0000 0.25020  0.67970  0.29030  Biso   1.000  H
  H52      1.0000 0.34290  0.90640  0.06320  Biso   1.000  H
  H53      1.0000 0.16340  0.10970  0.44320  Biso   1.000  H
  H54      1.0000 0.32510  0.68520  0.47140  Biso   1.000  H
  H55      1.0000 0.22480  0.69540  0.44290  Biso   1.000  H
  H56      1.0000 0.15180  0.49060  0.31110  Biso   1.000  H
  H57      1.0000 0.09160  0.55010  0.29610  Biso   1.000  H
  H58      1.0000 0.03600  0.40810  0.13870  Biso   1.000  H
  H59      1.0000 0.09760  0.52310  0.13730  Biso   1.000  H
  H60      1.0000 0.19270  0.40510  0.16170  Biso   1.000  H
  H61      1.0000 0.35970  0.54660  0.18580  Biso   1.000  H
  H62      1.0000 0.30690  0.61210  0.16780  Biso   1.000  H
  H63      1.0000 0.41250  0.68610  0.34140  Biso   1.000  H
  H64      1.0000 0.33950  0.56850  0.33460  Biso   1.000  H
  H65      1.0000 0.16420  0.78030  0.05570  Biso   1.000  H
  H66      1.0000 0.19990  0.69830  0.03090  Biso   1.000  H
  H67      1.0000 0.28210  0.71000  0.92180  Biso   1.000  H
  H68      1.0000 0.38620  0.78010  0.02400  Biso   1.000  H
  H69      1.0000 0.43570  0.80550  0.89240  Biso   1.000  H
  H70      1.0000 0.47160  0.91630  0.97540  Biso   1.000  H
  H71      1.0000 0.28550  0.79300  0.79270  Biso   1.000  H
  H72      1.0000 0.23440  0.91360  0.83710  Biso   1.000  H
  H73      1.0000 0.33780  0.98910  0.93970  Biso   1.000  H
  H74      1.0000 0.18720  0.88220  0.96670  Biso   1.000  H
  H75      1.0000 0.15960  0.77350  0.88700  Biso   1.000  H
  H76      1.0000 0.33100  0.31900  0.51180  Biso   1.000  H
  H77      1.0000 0.28230  0.25260  0.39570  Biso   1.000  H
  H78      1.0000 0.11110  0.24410  0.39870  Biso   1.000  H
  H79      1.0000 0.09400  0.14420  0.31570  Biso   1.000  H
  H80      1.0000 0.92760  0.10050  0.32590  Biso   1.000  H
  H81      1.0000 0.96280  0.02650  0.35600  Biso   1.000  H
  H82      1.0000 0.99120  0.21010  0.49380  Biso   1.000  H
  H83      1.0000 0.07510  0.18810  0.62450  Biso   1.000  H
  H84      1.0000 0.05660  0.08240  0.54860  Biso   1.000  H
  H85      1.0000 0.23840  0.22810  0.61050  Biso   1.000  H
  H86      1.0000 0.20000  0.29820  0.57630  Biso   1.000  H
  H87      1.0000 0.99870  0.83220  0.97470  Biso   1.000  H
  H88      1.0000 0.86910  0.82490  0.84140  Biso   1.000  H
  H89      1.0000 0.76150  0.93220  0.03990  Biso   1.000  H
  H90      1.0000 0.88910  0.94140  0.16990  Biso   1.000  H
  H91      1.0000 0.98940  0.59320  0.42190  Biso   1.000  H
  H92      1.0000 0.83820  0.45000  0.42750  Biso   1.000  H
  H93      1.0000 0.63380  0.41990  0.17990  Biso   1.000  H
  H94      1.0000 0.78230  0.55350  0.16720  Biso   1.000  H
  C1       1.0000 0.71020  0.29010  0.56810  Biso   1.000  C
  C2       1.0000 0.85530  0.46260  0.71860  Biso   1.000  C
  C3       1.0000 0.89360  0.52280  0.83280  Biso   1.000  C
  C4       1.0000 0.80950  0.54190  0.86110  Biso   1.000  C
  C5       1.0000 0.69350  0.43810  0.80390  Biso   1.000  C
  C6       1.0000 0.66030  0.38090  0.69300  Biso   1.000  C
  C7       1.0000 0.84200  0.58900  0.97400  Biso   1.000  C
  C8       1.0000 0.77310  0.22500  0.93560  Biso   1.000  C
  C9       1.0000 0.66040  0.21590  0.02870  Biso   1.000  C
  C10      1.0000 0.59130  0.15440  0.07600  Biso   1.000  C
  C11      1.0000 0.65830  0.13530  0.15290  Biso   1.000  C
  C12      1.0000 0.71590  0.08630  0.10920  Biso   1.000  C
  C13      1.0000 0.78110  0.15340  0.06270  Biso   1.000  C
  C14      1.0000 0.58900  0.06350  0.19730  Biso   1.000  C
  C15      1.0000 0.70810  0.75380  0.54170  Biso   1.000  C
  C16      1.0000 0.90630  0.82970  0.61930  Biso   1.000  C
  C17      1.0000 0.01840  0.89910  0.62440  Biso   1.000  C
  C18      1.0000 0.02300  0.86230  0.52180  Biso   1.000  C
  C19      1.0000 0.92770  0.84530  0.44040  Biso   1.000  C
  C20      1.0000 0.81830  0.77560  0.43930  Biso   1.000  C
  C21      1.0000 0.13440  0.93330  0.52340  Biso   1.000  C
  C22      1.0000 0.95200  0.09560  0.83180  Biso   1.000  C
  C23      1.0000 0.04030  0.10680  0.91480  Biso   1.000  C
  C24      1.0000 0.04880  0.14480  0.01240  Biso   1.000  C
  C25      1.0000 0.12710  0.15160  0.09160  Biso   1.000  C
  C26      1.0000 0.19850  0.11920  0.07240  Biso   1.000  C
  C27      1.0000 0.18910  0.08800  0.97270  Biso   1.000  C
  C28      1.0000 0.11180  0.07870  0.89620  Biso   1.000  C
  C29      1.0000 0.27890  0.12670  0.15260  Biso   1.000  C
  C30      1.0000 0.00180  0.31980  0.70600  Biso   1.000  C
  C31      1.0000 0.10220  0.41400  0.70410  Biso   1.000  C
  C32      1.0000 0.08450  0.44380  0.62810  Biso   1.000  C
  C33      1.0000 0.17350  0.52680  0.62510  Biso   1.000  C
  C34      1.0000 0.28020  0.58050  0.69770  Biso   1.000  C
  C35      1.0000 0.29260  0.54580  0.77090  Biso   1.000  C
  C36      1.0000 0.20740  0.46560  0.77710  Biso   1.000  C
  C37      1.0000 0.37240  0.66930  0.69100  Biso   1.000  C
  C38      1.0000 0.28980  0.70990  0.43190  Biso   1.000  C
  C39      1.0000 0.14470  0.53740  0.28140  Biso   1.000  C
  C40      1.0000 0.10640  0.47720  0.16720  Biso   1.000  C
  C41      1.0000 0.19050  0.45810  0.13890  Biso   1.000  C
  C42      1.0000 0.30650  0.56190  0.19610  Biso   1.000  C
  C43      1.0000 0.33970  0.61910  0.30700  Biso   1.000  C
  C44      1.0000 0.15800  0.41100  0.02600  Biso   1.000  C
  C45      1.0000 0.22690  0.77500  0.06440  Biso   1.000  C
  C46      1.0000 0.33960  0.78410  0.97130  Biso   1.000  C
  C47      1.0000 0.40870  0.84560  0.92400  Biso   1.000  C
  C48      1.0000 0.34170  0.86470  0.84710  Biso   1.000  C
  C49      1.0000 0.28410  0.91370  0.89080  Biso   1.000  C
  C50      1.0000 0.21890  0.84660  0.93730  Biso   1.000  C
  C51      1.0000 0.41100  0.93650  0.80270  Biso   1.000  C
  C52      1.0000 0.29190  0.24620  0.45830  Biso   1.000  C
  C53      1.0000 0.09370  0.17030  0.38070  Biso   1.000  C
  C54      1.0000 0.98160  0.10090  0.37560  Biso   1.000  C
  C55      1.0000 0.97700  0.13770  0.47820  Biso   1.000  C
  C56      1.0000 0.07230  0.15470  0.55960  Biso   1.000  C
  C57      1.0000 0.18170  0.22440  0.56070  Biso   1.000  C
  C58      1.0000 0.86560  0.06670  0.47660  Biso   1.000  C
  C59      1.0000 0.04800  0.90440  0.16820  Biso   1.000  C
  C60      1.0000 0.95970  0.89320  0.08520  Biso   1.000  C
  C61      1.0000 0.95120  0.85520  0.98760  Biso   1.000  C
  C62      1.0000 0.87290  0.84840  0.90840  Biso   1.000  C
  C63      1.0000 0.80150  0.88080  0.92760  Biso   1.000  C
  C64      1.0000 0.81090  0.91200  0.02730  Biso   1.000  C
  C65      1.0000 0.88820  0.92130  0.10380  Biso   1.000  C
  C66      1.0000 0.72110  0.87330  0.84740  Biso   1.000  C
  C67      1.0000 0.99820  0.68020  0.29400  Biso   1.000  C
  C68      1.0000 0.89780  0.58600  0.29590  Biso   1.000  C
  C69      1.0000 0.91550  0.55620  0.37190  Biso   1.000  C
  C70      1.0000 0.82650  0.47320  0.37490  Biso   1.000  C
  C71      1.0000 0.71980  0.41950  0.30230  Biso   1.000  C
  C72      1.0000 0.70740  0.45420  0.22910  Biso   1.000  C
  C73      1.0000 0.79260  0.53440  0.22290  Biso   1.000  C
  C74      1.0000 0.62760  0.33070  0.30900  Biso   1.000  C
  N1       1.0000 0.74390  0.35970  0.67590  Biso   1.000  N
  N2       1.0000 0.71150  0.16230  0.98430  Biso   1.000  N
  N3       1.0000 0.81930  0.82100  0.54190  Biso   1.000  N
  N4       1.0000 0.25610  0.64030  0.32410  Biso   1.000  N
  N5       1.0000 0.28850  0.83770  0.01570  Biso   1.000  N
  N6       1.0000 0.18070  0.17900  0.45810  Biso   1.000  N
  O1       1.0000 0.55400  0.09430  0.40870  Biso   1.000  O
  O2       1.0000 0.54620  0.12660  0.57920  Biso   1.000  O
  O3       1.0000 0.68160  0.08930  0.53680  Biso   1.000  O
  O4       1.0000 0.92720  0.61240  0.02860  Biso   1.000  O
  O5       1.0000 0.77350  0.60120  0.00350  Biso   1.000  O
  O6       1.0000 0.77920  0.24760  0.77110  Biso   1.000  O
  O7       1.0000 0.67010  0.05550  0.74950  Biso   1.000  O
  O8       1.0000 0.59380  0.17290  0.78560  Biso   1.000  O
  O9       1.0000 0.49620  0.05200  0.18260  Biso   1.000  O
  O10      1.0000 0.62920  0.02520  0.24650  Biso   1.000  O
  O11      1.0000 0.61270  0.82070  0.42300  Biso   1.000  O
  O12      1.0000 0.68780  0.92280  0.61190  Biso   1.000  O
  O13      1.0000 0.52260  0.73780  0.53240  Biso   1.000  O
  O14      1.0000 0.21750  0.96430  0.59790  Biso   1.000  O
  O15      1.0000 0.14030  0.96120  0.45290  Biso   1.000  O
  O16      1.0000 0.91220  0.27110  0.63760  Biso   1.000  O
  O17      1.0000 0.01900  0.28920  0.77450  Biso   1.000  O
  O18      1.0000 0.35450  0.71940  0.64290  Biso   1.000  O
  O19      1.0000 0.46990  0.69860  0.73830  Biso   1.000  O
  O20      1.0000 0.94360  0.05200  0.74260  Biso   1.000  O
  O21      1.0000 0.89890  0.13310  0.85150  Biso   1.000  O
  O22      1.0000 0.30170  0.17970  0.24370  Biso   1.000  O
  O23      1.0000 0.31910  0.07230  0.12690  Biso   1.000  O
  O24      1.0000 0.40280  0.18840  0.77270  Biso   1.000  O
  O25      1.0000 0.44600  0.90570  0.59130  Biso   1.000  O
  O26      1.0000 0.45380  0.87340  0.42080  Biso   1.000  O
  O27      1.0000 0.31840  0.91070  0.46320  Biso   1.000  O
  O28      1.0000 0.07280  0.38760  0.97140  Biso   1.000  O
  O29      1.0000 0.22650  0.39880  0.99650  Biso   1.000  O
  O30      1.0000 0.22080  0.75240  0.22890  Biso   1.000  O
  O31      1.0000 0.32990  0.94450  0.25050  Biso   1.000  O
  O32      1.0000 0.40620  0.82710  0.21440  Biso   1.000  O
  O33      1.0000 0.50380  0.94800  0.81740  Biso   1.000  O
  O34      1.0000 0.37080  0.97480  0.75350  Biso   1.000  O
  O35      1.0000 0.38730  0.17930  0.57700  Biso   1.000  O
  O36      1.0000 0.31220  0.07720  0.38810  Biso   1.000  O
  O37      1.0000 0.47740  0.26220  0.46760  Biso   1.000  O
  O38      1.0000 0.78250  0.03570  0.40210  Biso   1.000  O
  O39      1.0000 0.85970  0.03880  0.54710  Biso   1.000  O
  O40      1.0000 0.08780  0.72890  0.36240  Biso   1.000  O
  O41      1.0000 0.98100  0.71080  0.22550  Biso   1.000  O
  O42      1.0000 0.64550  0.28060  0.35710  Biso   1.000  O
  O43      1.0000 0.53010  0.30140  0.26170  Biso   1.000  O
  O44      1.0000 0.05640  0.94800  0.25740  Biso   1.000  O
  O45      1.0000 0.10110  0.86690  0.14850  Biso   1.000  O
  O46      1.0000 0.69830  0.82030  0.75630  Biso   1.000  O
  O47      1.0000 0.68090  0.92770  0.87310  Biso   1.000  O
  O48      1.0000 0.59720  0.81160  0.22730  Biso   1.000  O
