data_image0
_cell_length_a       15.2095
_cell_length_b       15.3049
_cell_length_c       15.3698
_cell_angle_alpha    106.485
_cell_angle_beta     117.143
_cell_angle_gamma    103.236

_symmetry_space_group_name_H-M    P 1
_symmetry_int_tables_number       1

loop_
  _symmetry_equiv_pos_as_xyz
  'x, y, z'

loop_
  _atom_site_label
  _atom_site_occupancy
  _atom_site_fract_x
  _atom_site_fract_y
  _atom_site_fract_z
  _atom_site_thermal_displace_type
  _atom_site_B_iso_or_equiv
  _atom_site_type_symbol
  Ce1      1.0000 0.94314  0.80242  0.63389  Biso   1.000  Ce
  Ce2      1.0000 0.67948  0.81725  0.38487  Biso   1.000  Ce
  Ce3      1.0000 0.91537  0.14570  0.56272  Biso   1.000  Ce
  Ce4      1.0000 0.05686  0.19758  0.36611  Biso   1.000  Ce
  Ce5      1.0000 0.32052  0.18275  0.61513  Biso   1.000  Ce
  Ce6      1.0000 0.08463  0.85430  0.43728  Biso   1.000  Ce
  P1       1.0000 0.87425  0.98235  0.68990  Biso   1.000  P
  P2       1.0000 0.80358  0.69495  0.32610  Biso   1.000  P
  P3       1.0000 0.11717  0.02455  0.64270  Biso   1.000  P
  P4       1.0000 0.12575  0.01765  0.31010  Biso   1.000  P
  P5       1.0000 0.19642  0.30505  0.67390  Biso   1.000  P
  P6       1.0000 0.88283  0.97545  0.35730  Biso   1.000  P
  H1       1.0000 0.29480  0.52540  0.17690  Biso   1.000  H
  H2       1.0000 0.96210  0.33270  0.73060  Biso   1.000  H
  H3       1.0000 0.85080  0.29260  0.65550  Biso   1.000  H
  H4       1.0000 0.66330  0.94450  0.60900  Biso   1.000  H
  H5       1.0000 0.84110  0.56210  0.40360  Biso   1.000  H
  H6       1.0000 0.25420  0.21370  0.81960  Biso   1.000  H
  H7       1.0000 0.82800  0.00970  0.81630  Biso   1.000  H
  H8       1.0000 0.77870  0.89430  0.74230  Biso   1.000  H
  H9       1.0000 0.59510  0.81660  0.63650  Biso   1.000  H
  H10      1.0000 0.61130  0.89460  0.74040  Biso   1.000  H
  H11      1.0000 0.42940  0.82710  0.59750  Biso   1.000  H
  H12      1.0000 0.46190  0.85500  0.52240  Biso   1.000  H
  H13      1.0000 0.49250  0.99250  0.71090  Biso   1.000  H
  H14      1.0000 0.57650  0.12620  0.69410  Biso   1.000  H
  H15      1.0000 0.55870  0.05490  0.58580  Biso   1.000  H
  H16      1.0000 0.70320  0.07980  0.79660  Biso   1.000  H
  H17      1.0000 0.73600  0.10830  0.72210  Biso   1.000  H
  H18      1.0000 0.70010  0.52680  0.19680  Biso   1.000  H
  H19      1.0000 0.66060  0.55160  0.27510  Biso   1.000  H
  H20      1.0000 0.78620  0.42100  0.21120  Biso   1.000  H
  H21      1.0000 0.88890  0.52410  0.28440  Biso   1.000  H
  H22      1.0000 0.97150  0.47580  0.41610  Biso   1.000  H
  H23      1.0000 0.93130  0.38910  0.30440  Biso   1.000  H
  H24      1.0000 0.78630  0.29240  0.29510  Biso   1.000  H
  H25      1.0000 0.83680  0.44180  0.48720  Biso   1.000  H
  H26      1.0000 0.73520  0.33780  0.41200  Biso   1.000  H
  H27      1.0000 0.68870  0.46950  0.38340  Biso   1.000  H
  H28      1.0000 0.65850  0.38550  0.27470  Biso   1.000  H
  H29      1.0000 0.27520  0.05970  0.80460  Biso   1.000  H
  H30      1.0000 0.17640  0.03370  0.81570  Biso   1.000  H
  H31      1.0000 0.09470  0.16650  0.81350  Biso   1.000  H
  H32      1.0000 0.16320  0.17050  0.92910  Biso   1.000  H
  H33      1.0000 0.19440  0.33720  0.88420  Biso   1.000  H
  H34      1.0000 0.14480  0.32030  0.95120  Biso   1.000  H
  H35      1.0000 0.30930  0.34150  0.09260  Biso   1.000  H
  H36      1.0000 0.40680  0.36970  0.97780  Biso   1.000  H
  H37      1.0000 0.46400  0.36710  0.09110  Biso   1.000  H
  H38      1.0000 0.35210  0.19650  0.00940  Biso   1.000  H
  H39      1.0000 0.40880  0.21230  0.94810  Biso   1.000  H
  H40      1.0000 0.27910  0.67740  0.05750  Biso   1.000  H
  H41      1.0000 0.13520  0.68750  0.92120  Biso   1.000  H
  H42      1.0000 0.34130  0.91970  0.94470  Biso   1.000  H
  H43      1.0000 0.48630  0.91690  0.08670  Biso   1.000  H
  H44      1.0000 0.50390  0.53210  0.66560  Biso   1.000  H
  H45      1.0000 0.63120  0.65700  0.67730  Biso   1.000  H
  H46      1.0000 0.73270  0.45950  0.56430  Biso   1.000  H
  H47      1.0000 0.60130  0.33150  0.54830  Biso   1.000  H
  H48      1.0000 0.70520  0.47460  0.82310  Biso   1.000  H
  H49      1.0000 0.03790  0.66730  0.26940  Biso   1.000  H
  H50      1.0000 0.14920  0.70740  0.34450  Biso   1.000  H
  H51      1.0000 0.33670  0.05550  0.39100  Biso   1.000  H
  H52      1.0000 0.15890  0.43790  0.59640  Biso   1.000  H
  H53      1.0000 0.74580  0.78630  0.18040  Biso   1.000  H
  H54      1.0000 0.17200  0.99030  0.18370  Biso   1.000  H
  H55      1.0000 0.22130  0.10570  0.25770  Biso   1.000  H
  H56      1.0000 0.40490  0.18340  0.36350  Biso   1.000  H
  H57      1.0000 0.38870  0.10540  0.25960  Biso   1.000  H
  H58      1.0000 0.57060  0.17290  0.40250  Biso   1.000  H
  H59      1.0000 0.53810  0.14500  0.47760  Biso   1.000  H
  H60      1.0000 0.50750  0.00750  0.28910  Biso   1.000  H
  H61      1.0000 0.42350  0.87380  0.30590  Biso   1.000  H
  H62      1.0000 0.44130  0.94510  0.41420  Biso   1.000  H
  H63      1.0000 0.29680  0.92020  0.20340  Biso   1.000  H
  H64      1.0000 0.26400  0.89170  0.27790  Biso   1.000  H
  H65      1.0000 0.29990  0.47320  0.80320  Biso   1.000  H
  H66      1.0000 0.33940  0.44840  0.72490  Biso   1.000  H
  H67      1.0000 0.21380  0.57900  0.78880  Biso   1.000  H
  H68      1.0000 0.11110  0.47590  0.71560  Biso   1.000  H
  H69      1.0000 0.02850  0.52420  0.58390  Biso   1.000  H
  H70      1.0000 0.06870  0.61090  0.69560  Biso   1.000  H
  H71      1.0000 0.21370  0.70760  0.70490  Biso   1.000  H
  H72      1.0000 0.16320  0.55820  0.51280  Biso   1.000  H
  H73      1.0000 0.26480  0.66220  0.58800  Biso   1.000  H
  H74      1.0000 0.31130  0.53050  0.61660  Biso   1.000  H
  H75      1.0000 0.34150  0.61450  0.72530  Biso   1.000  H
  H76      1.0000 0.72480  0.94030  0.19540  Biso   1.000  H
  H77      1.0000 0.82360  0.96630  0.18430  Biso   1.000  H
  H78      1.0000 0.90530  0.83350  0.18650  Biso   1.000  H
  H79      1.0000 0.83680  0.82950  0.07090  Biso   1.000  H
  H80      1.0000 0.80560  0.66280  0.11580  Biso   1.000  H
  H81      1.0000 0.85520  0.67970  0.04880  Biso   1.000  H
  H82      1.0000 0.69070  0.65850  0.90740  Biso   1.000  H
  H83      1.0000 0.59320  0.63030  0.02220  Biso   1.000  H
  H84      1.0000 0.53600  0.63290  0.90890  Biso   1.000  H
  H85      1.0000 0.64790  0.80350  0.99060  Biso   1.000  H
  H86      1.0000 0.59120  0.78770  0.05190  Biso   1.000  H
  H87      1.0000 0.72090  0.32260  0.94250  Biso   1.000  H
  H88      1.0000 0.86480  0.31250  0.07880  Biso   1.000  H
  H89      1.0000 0.65870  0.08030  0.05530  Biso   1.000  H
  H90      1.0000 0.51370  0.08310  0.91330  Biso   1.000  H
  H91      1.0000 0.49610  0.46790  0.33440  Biso   1.000  H
  H92      1.0000 0.36880  0.34300  0.32270  Biso   1.000  H
  H93      1.0000 0.26730  0.54050  0.43570  Biso   1.000  H
  H94      1.0000 0.39870  0.66850  0.45170  Biso   1.000  H
  C1       1.0000 0.78940  0.95890  0.74140  Biso   1.000  C
  C2       1.0000 0.59500  0.88130  0.66790  Biso   1.000  C
  C3       1.0000 0.48220  0.87640  0.59720  Biso   1.000  C
  C4       1.0000 0.47980  0.97760  0.63880  Biso   1.000  C
  C5       1.0000 0.57340  0.06180  0.65640  Biso   1.000  C
  C6       1.0000 0.68180  0.05980  0.72160  Biso   1.000  C
  C7       1.0000 0.36750  0.97530  0.56680  Biso   1.000  C
  C8       1.0000 0.72460  0.56080  0.27270  Biso   1.000  C
  C9       1.0000 0.84150  0.47100  0.28610  Biso   1.000  C
  C10      1.0000 0.90720  0.42360  0.34650  Biso   1.000  C
  C11      1.0000 0.84300  0.34900  0.36700  Biso   1.000  C
  C12      1.0000 0.78400  0.39110  0.41200  Biso   1.000  C
  C13      1.0000 0.71870  0.43770  0.34680  Biso   1.000  C
  C14      1.0000 0.90990  0.30540  0.43460  Biso   1.000  C
  C15      1.0000 0.21140  0.07200  0.79100  Biso   1.000  C
  C16      1.0000 0.16620  0.19920  0.88130  Biso   1.000  C
  C17      1.0000 0.19700  0.30980  0.93460  Biso   1.000  C
  C18      1.0000 0.31170  0.36500  0.04030  Biso   1.000  C
  C19      1.0000 0.39510  0.33930  0.02130  Biso   1.000  C
  C20      1.0000 0.35670  0.22630  0.96290  Biso   1.000  C
  C21      1.0000 0.33730  0.47960  0.08830  Biso   1.000  C
  C22      1.0000 0.49230  0.79240  0.17790  Biso   1.000  C
  C23      1.0000 0.39740  0.79550  0.08650  Biso   1.000  C
  C24      1.0000 0.29240  0.72750  0.03640  Biso   1.000  C
  C25      1.0000 0.20610  0.73350  0.95430  Biso   1.000  C
  C26      1.0000 0.22440  0.80540  0.92240  Biso   1.000  C
  C27      1.0000 0.32900  0.87230  0.96940  Biso   1.000  C
  C28      1.0000 0.41590  0.86960  0.05290  Biso   1.000  C
  C29      1.0000 0.12890  0.81000  0.83060  Biso   1.000  C
  C30      1.0000 0.45810  0.33660  0.59850  Biso   1.000  C
  C31      1.0000 0.54010  0.41920  0.60810  Biso   1.000  C
  C32      1.0000 0.54950  0.51720  0.64500  Biso   1.000  C
  C33      1.0000 0.62520  0.59170  0.65130  Biso   1.000  C
  C34      1.0000 0.69470  0.57130  0.61880  Biso   1.000  C
  C35      1.0000 0.68580  0.47390  0.58320  Biso   1.000  C
  C36      1.0000 0.60810  0.39700  0.57520  Biso   1.000  C
  C37      1.0000 0.77470  0.65070  0.62250  Biso   1.000  C
  C38      1.0000 0.21060  0.04110  0.25860  Biso   1.000  C
  C39      1.0000 0.40500  0.11870  0.33210  Biso   1.000  C
  C40      1.0000 0.51780  0.12360  0.40280  Biso   1.000  C
  C41      1.0000 0.52020  0.02240  0.36120  Biso   1.000  C
  C42      1.0000 0.42660  0.93820  0.34360  Biso   1.000  C
  C43      1.0000 0.31820  0.94020  0.27840  Biso   1.000  C
  C44      1.0000 0.63250  0.02470  0.43320  Biso   1.000  C
  C45      1.0000 0.27540  0.43920  0.72730  Biso   1.000  C
  C46      1.0000 0.15850  0.52900  0.71390  Biso   1.000  C
  C47      1.0000 0.09280  0.57640  0.65350  Biso   1.000  C
  C48      1.0000 0.15700  0.65100  0.63300  Biso   1.000  C
  C49      1.0000 0.21600  0.60890  0.58800  Biso   1.000  C
  C50      1.0000 0.28130  0.56230  0.65320  Biso   1.000  C
  C51      1.0000 0.09010  0.69460  0.56540  Biso   1.000  C
  C52      1.0000 0.78860  0.92800  0.20900  Biso   1.000  C
  C53      1.0000 0.83380  0.80080  0.11870  Biso   1.000  C
  C54      1.0000 0.80300  0.69020  0.06540  Biso   1.000  C
  C55      1.0000 0.68830  0.63500  0.95970  Biso   1.000  C
  C56      1.0000 0.60490  0.66070  0.97870  Biso   1.000  C
  C57      1.0000 0.64330  0.77370  0.03710  Biso   1.000  C
  C58      1.0000 0.66270  0.52040  0.91170  Biso   1.000  C
  C59      1.0000 0.50770  0.20760  0.82210  Biso   1.000  C
  C60      1.0000 0.60260  0.20450  0.91350  Biso   1.000  C
  C61      1.0000 0.70760  0.27250  0.96360  Biso   1.000  C
  C62      1.0000 0.79390  0.26650  0.04570  Biso   1.000  C
  C63      1.0000 0.77560  0.19460  0.07760  Biso   1.000  C
  C64      1.0000 0.67100  0.12770  0.03060  Biso   1.000  C
  C65      1.0000 0.58410  0.13040  0.94710  Biso   1.000  C
  C66      1.0000 0.87110  0.19000  0.16940  Biso   1.000  C
  C67      1.0000 0.54190  0.66340  0.40150  Biso   1.000  C
  C68      1.0000 0.45990  0.58080  0.39190  Biso   1.000  C
  C69      1.0000 0.45050  0.48280  0.35500  Biso   1.000  C
  C70      1.0000 0.37480  0.40830  0.34870  Biso   1.000  C
  C71      1.0000 0.30530  0.42870  0.38120  Biso   1.000  C
  C72      1.0000 0.31420  0.52610  0.41680  Biso   1.000  C
  C73      1.0000 0.39190  0.60300  0.42480  Biso   1.000  C
  C74      1.0000 0.22530  0.34930  0.37750  Biso   1.000  C
  N1       1.0000 0.68000  0.95900  0.67710  Biso   1.000  N
  N2       1.0000 0.78820  0.51350  0.33560  Biso   1.000  N
  N3       1.0000 0.24800  0.18130  0.85820  Biso   1.000  N
  N4       1.0000 0.32000  0.04100  0.32290  Biso   1.000  N
  N5       1.0000 0.21180  0.48650  0.66440  Biso   1.000  N
  N6       1.0000 0.75200  0.81870  0.14180  Biso   1.000  N
  O1       1.0000 0.97680  0.97310  0.76450  Biso   1.000  O
  O2       1.0000 0.81370  0.89190  0.57920  Biso   1.000  O
  O3       1.0000 0.88730  0.07970  0.68350  Biso   1.000  O
  O4       1.0000 0.28650  0.90250  0.53890  Biso   1.000  O
  O5       1.0000 0.36360  0.04460  0.53860  Biso   1.000  O
  O6       1.0000 0.72090  0.72430  0.25270  Biso   1.000  O
  O7       1.0000 0.82550  0.74520  0.43910  Biso   1.000  O
  O8       1.0000 0.90470  0.70970  0.32580  Biso   1.000  O
  O9       1.0000 0.87030  0.25650  0.47080  Biso   1.000  O
  O10      1.0000 0.00280  0.31990  0.45020  Biso   1.000  O
  O11      1.0000 0.05640  0.91030  0.59670  Biso   1.000  O
  O12      1.0000 0.04610  0.08060  0.62770  Biso   1.000  O
  O13      1.0000 0.18130  0.03840  0.59140  Biso   1.000  O
  O14      1.0000 0.27810  0.50790  0.11180  Biso   1.000  O
  O15      1.0000 0.42280  0.53180  0.10650  Biso   1.000  O
  O16      1.0000 0.47620  0.72790  0.20910  Biso   1.000  O
  O17      1.0000 0.58510  0.86110  0.22700  Biso   1.000  O
  O18      1.0000 0.03380  0.76370  0.80190  Biso   1.000  O
  O19      1.0000 0.14890  0.86010  0.78290  Biso   1.000  O
  O20      1.0000 0.40520  0.35850  0.63900  Biso   1.000  O
  O21      1.0000 0.44330  0.24770  0.55510  Biso   1.000  O
  O22      1.0000 0.79970  0.74260  0.67730  Biso   1.000  O
  O23      1.0000 0.81740  0.62520  0.57270  Biso   1.000  O
  O24      1.0000 0.90320  0.27990  0.69220  Biso   1.000  O
  O25      1.0000 0.02320  0.02690  0.23550  Biso   1.000  O
  O26      1.0000 0.18630  0.10810  0.42080  Biso   1.000  O
  O27      1.0000 0.11270  0.92030  0.31650  Biso   1.000  O
  O28      1.0000 0.71350  0.09750  0.46110  Biso   1.000  O
  O29      1.0000 0.63640  0.95540  0.46140  Biso   1.000  O
  O30      1.0000 0.27910  0.27570  0.74730  Biso   1.000  O
  O31      1.0000 0.17450  0.25480  0.56090  Biso   1.000  O
  O32      1.0000 0.09530  0.29030  0.67420  Biso   1.000  O
  O33      1.0000 0.12970  0.74350  0.52920  Biso   1.000  O
  O34      1.0000 0.99720  0.68010  0.54980  Biso   1.000  O
  O35      1.0000 0.94360  0.08970  0.40330  Biso   1.000  O
  O36      1.0000 0.95390  0.91940  0.37230  Biso   1.000  O
  O37      1.0000 0.81870  0.96160  0.40860  Biso   1.000  O
  O38      1.0000 0.72190  0.49210  0.88820  Biso   1.000  O
  O39      1.0000 0.57720  0.46820  0.89350  Biso   1.000  O
  O40      1.0000 0.52380  0.27210  0.79090  Biso   1.000  O
  O41      1.0000 0.41490  0.13890  0.77300  Biso   1.000  O
  O42      1.0000 0.96620  0.23630  0.19810  Biso   1.000  O
  O43      1.0000 0.85110  0.13990  0.21710  Biso   1.000  O
  O44      1.0000 0.59480  0.64150  0.36100  Biso   1.000  O
  O45      1.0000 0.55670  0.75230  0.44490  Biso   1.000  O
  O46      1.0000 0.20030  0.25740  0.32270  Biso   1.000  O
  O47      1.0000 0.18260  0.37480  0.42730  Biso   1.000  O
  O48      1.0000 0.09680  0.72010  0.30780  Biso   1.000  O
