data_image0
_cell_length_a       15.122
_cell_length_b       15.167
_cell_length_c       15.242
_cell_angle_alpha    106.199
_cell_angle_beta     103.35
_cell_angle_gamma    116.99

_symmetry_space_group_name_H-M    P 1
_symmetry_int_tables_number       1

loop_
  _symmetry_equiv_pos_as_xyz
  'x, y, z'

loop_
  _atom_site_label
  _atom_site_occupancy
  _atom_site_fract_x
  _atom_site_fract_y
  _atom_site_fract_z
  _atom_site_thermal_displace_type
  _atom_site_B_iso_or_equiv
  _atom_site_type_symbol
  Pr1      1.0000 0.81893  0.11428  0.68211  Biso   1.000  Pr
  Pr2      1.0000 0.55711  0.86584  0.69764  Biso   1.000  Pr
  Pr3      1.0000 0.41521  0.06337  0.64476  Biso   1.000  Pr
  Pr4      1.0000 0.18107  0.88572  0.31789  Biso   1.000  Pr
  Pr5      1.0000 0.44289  0.13416  0.30236  Biso   1.000  Pr
  Pr6      1.0000 0.58479  0.93663  0.35524  Biso   1.000  Pr
  P1       1.0000 0.61670  0.14240  0.52360  Biso   1.000  P
  P2       1.0000 0.69490  0.17420  0.80370  Biso   1.000  P
  P3       1.0000 0.62530  0.80840  0.51850  Biso   1.000  P
  P4       1.0000 0.38330  0.85760  0.47640  Biso   1.000  P
  P5       1.0000 0.30510  0.82580  0.19630  Biso   1.000  P
  P6       1.0000 0.37470  0.19160  0.48150  Biso   1.000  P
  H1       1.0000 0.79910  0.62690  0.06530  Biso   1.000  H
  H2       1.0000 0.34280  0.16060  0.78200  Biso   1.000  H
  H3       1.0000 0.40920  0.24730  0.76240  Biso   1.000  H
  H4       1.0000 0.75130  0.31910  0.71110  Biso   1.000  H
  H5       1.0000 0.65830  0.09670  0.93920  Biso   1.000  H
  H6       1.0000 0.83940  0.89180  0.55580  Biso   1.000  H
  H7       1.0000 0.67310  0.31450  0.52840  Biso   1.000  H
  H8       1.0000 0.77340  0.30430  0.55690  Biso   1.000  H
  H9       1.0000 0.84610  0.51240  0.69410  Biso   1.000  H
  H10      1.0000 0.90630  0.45290  0.70910  Biso   1.000  H
  H11      1.0000 0.96570  0.59490  0.86540  Biso   1.000  H
  H12      1.0000 0.90410  0.47990  0.86680  Biso   1.000  H
  H13      1.0000 0.80480  0.59730  0.84010  Biso   1.000  H
  H14      1.0000 0.64120  0.45150  0.81690  Biso   1.000  H
  H15      1.0000 0.69400  0.38610  0.83490  Biso   1.000  H
  H16      1.0000 0.58920  0.31470  0.65990  Biso   1.000  H
  H17      1.0000 0.66220  0.43230  0.66670  Biso   1.000  H
  H18      1.0000 0.83740  0.22170  0.94790  Biso   1.000  H
  H19      1.0000 0.80180  0.30360  0.97270  Biso   1.000  H
  H20      1.0000 0.71800  0.29320  0.08090  Biso   1.000  H
  H21      1.0000 0.61390  0.22300  0.97870  Biso   1.000  H
  H22      1.0000 0.56570  0.19350  0.10740  Biso   1.000  H
  H23      1.0000 0.52980  0.08270  0.02440  Biso   1.000  H
  H24      1.0000 0.71410  0.20630  0.20620  Biso   1.000  H
  H25      1.0000 0.76620  0.08820  0.16320  Biso   1.000  H
  H26      1.0000 0.66280  0.01270  0.06070  Biso   1.000  H
  H27      1.0000 0.80990  0.11630  0.03220  Biso   1.000  H
  H28      1.0000 0.83750  0.22500  0.11190  Biso   1.000  H
  H29      1.0000 0.67030  0.68070  0.48640  Biso   1.000  H
  H30      1.0000 0.71890  0.74710  0.60250  Biso   1.000  H
  H31      1.0000 0.88760  0.75460  0.60020  Biso   1.000  H
  H32      1.0000 0.90460  0.85440  0.68320  Biso   1.000  H
  H33      1.0000 0.07140  0.89760  0.67190  Biso   1.000  H
  H34      1.0000 0.03620  0.97170  0.64180  Biso   1.000  H
  H35      1.0000 0.00550  0.78590  0.50490  Biso   1.000  H
  H36      1.0000 0.92350  0.81150  0.37380  Biso   1.000  H
  H37      1.0000 0.94200  0.91720  0.44970  Biso   1.000  H
  H38      1.0000 0.76230  0.77310  0.39020  Biso   1.000  H
  H39      1.0000 0.80070  0.70300  0.42430  Biso   1.000  H
  H40      1.0000 0.00020  0.16550  0.02910  Biso   1.000  H
  H41      1.0000 0.12880  0.17500  0.15780  Biso   1.000  H
  H42      1.0000 0.24060  0.06970  0.96160  Biso   1.000  H
  H43      1.0000 0.06180  0.00520  0.87820  Biso   1.000  H
  H44      1.0000 0.01190  0.41060  0.58310  Biso   1.000  H
  H45      1.0000 0.15770  0.55020  0.57250  Biso   1.000  H
  H46      1.0000 0.36940  0.57840  0.81790  Biso   1.000  H
  H47      1.0000 0.21690  0.44400  0.82890  Biso   1.000  H
  H48      1.0000 0.20090  0.37310  0.93470  Biso   1.000  H
  H49      1.0000 0.65720  0.83940  0.21800  Biso   1.000  H
  H50      1.0000 0.59080  0.75270  0.23760  Biso   1.000  H
  H51      1.0000 0.24870  0.68090  0.28890  Biso   1.000  H
  H52      1.0000 0.34170  0.90330  0.06080  Biso   1.000  H
  H53      1.0000 0.16060  0.10820  0.44420  Biso   1.000  H
  H54      1.0000 0.32690  0.68550  0.47160  Biso   1.000  H
  H55      1.0000 0.22660  0.69570  0.44310  Biso   1.000  H
  H56      1.0000 0.15390  0.48760  0.30590  Biso   1.000  H
  H57      1.0000 0.09370  0.54710  0.29090  Biso   1.000  H
  H58      1.0000 0.03430  0.40510  0.13460  Biso   1.000  H
  H59      1.0000 0.09590  0.52010  0.13320  Biso   1.000  H
  H60      1.0000 0.19520  0.40270  0.15990  Biso   1.000  H
  H61      1.0000 0.35880  0.54850  0.18310  Biso   1.000  H
  H62      1.0000 0.30600  0.61390  0.16510  Biso   1.000  H
  H63      1.0000 0.41080  0.68530  0.34010  Biso   1.000  H
  H64      1.0000 0.33780  0.56770  0.33330  Biso   1.000  H
  H65      1.0000 0.16260  0.77830  0.05210  Biso   1.000  H
  H66      1.0000 0.19820  0.69640  0.02730  Biso   1.000  H
  H67      1.0000 0.28200  0.70680  0.91910  Biso   1.000  H
  H68      1.0000 0.38610  0.77700  0.02130  Biso   1.000  H
  H69      1.0000 0.43430  0.80650  0.89260  Biso   1.000  H
  H70      1.0000 0.47020  0.91730  0.97560  Biso   1.000  H
  H71      1.0000 0.28590  0.79370  0.79380  Biso   1.000  H
  H72      1.0000 0.23380  0.91180  0.83680  Biso   1.000  H
  H73      1.0000 0.33720  0.98730  0.93930  Biso   1.000  H
  H74      1.0000 0.19010  0.88370  0.96780  Biso   1.000  H
  H75      1.0000 0.16250  0.77500  0.88810  Biso   1.000  H
  H76      1.0000 0.32970  0.31930  0.51360  Biso   1.000  H
  H77      1.0000 0.28110  0.25290  0.39750  Biso   1.000  H
  H78      1.0000 0.11240  0.24540  0.39980  Biso   1.000  H
  H79      1.0000 0.09540  0.14560  0.31680  Biso   1.000  H
  H80      1.0000 0.92860  0.10240  0.32810  Biso   1.000  H
  H81      1.0000 0.96380  0.02830  0.35820  Biso   1.000  H
  H82      1.0000 0.99450  0.21410  0.49510  Biso   1.000  H
  H83      1.0000 0.07650  0.18850  0.62620  Biso   1.000  H
  H84      1.0000 0.05800  0.08280  0.55030  Biso   1.000  H
  H85      1.0000 0.23770  0.22690  0.60980  Biso   1.000  H
  H86      1.0000 0.19930  0.29700  0.57570  Biso   1.000  H
  H87      1.0000 0.99980  0.83450  0.97090  Biso   1.000  H
  H88      1.0000 0.87120  0.82500  0.84220  Biso   1.000  H
  H89      1.0000 0.75940  0.93030  0.03840  Biso   1.000  H
  H90      1.0000 0.93820  0.99480  0.12180  Biso   1.000  H
  H91      1.0000 0.98810  0.58940  0.41690  Biso   1.000  H
  H92      1.0000 0.84230  0.44980  0.42750  Biso   1.000  H
  H93      1.0000 0.63060  0.42160  0.18210  Biso   1.000  H
  H94      1.0000 0.78310  0.55600  0.17110  Biso   1.000  H
  C1       1.0000 0.70850  0.28980  0.56780  Biso   1.000  C
  C2       1.0000 0.85320  0.46560  0.72380  Biso   1.000  C
  C3       1.0000 0.89530  0.52590  0.83690  Biso   1.000  C
  C4       1.0000 0.80700  0.54430  0.86290  Biso   1.000  C
  C5       1.0000 0.69440  0.43620  0.80660  Biso   1.000  C
  C6       1.0000 0.66200  0.38170  0.69430  Biso   1.000  C
  C7       1.0000 0.84200  0.58900  0.97600  Biso   1.000  C
  C8       1.0000 0.77470  0.22700  0.93920  Biso   1.000  C
  C9       1.0000 0.66050  0.21910  0.03130  Biso   1.000  C
  C10      1.0000 0.59270  0.15330  0.07580  Biso   1.000  C
  C11      1.0000 0.65790  0.13470  0.15180  Biso   1.000  C
  C12      1.0000 0.71650  0.08810  0.10960  Biso   1.000  C
  C13      1.0000 0.77820  0.15190  0.06170  Biso   1.000  C
  C14      1.0000 0.59130  0.06760  0.19530  Biso   1.000  C
  C15      1.0000 0.70940  0.75360  0.53990  Biso   1.000  C
  C16      1.0000 0.90500  0.82840  0.61830  Biso   1.000  C
  C17      1.0000 0.01740  0.89730  0.62230  Biso   1.000  C
  C18      1.0000 0.01970  0.85840  0.52050  Biso   1.000  C
  C19      1.0000 0.92630  0.84490  0.43870  Biso   1.000  C
  C20      1.0000 0.81900  0.77680  0.44000  Biso   1.000  C
  C21      1.0000 0.13030  0.93260  0.52280  Biso   1.000  C
  C22      1.0000 0.95490  0.09710  0.83390  Biso   1.000  C
  C23      1.0000 0.04110  0.10880  0.92020  Biso   1.000  C
  C24      1.0000 0.04770  0.14260  0.01620  Biso   1.000  C
  C25      1.0000 0.12500  0.15150  0.09080  Biso   1.000  C
  C26      1.0000 0.19650  0.12040  0.07150  Biso   1.000  C
  C27      1.0000 0.19120  0.08990  0.97420  Biso   1.000  C
  C28      1.0000 0.11220  0.08080  0.89390  Biso   1.000  C
  C29      1.0000 0.27710  0.12310  0.14890  Biso   1.000  C
  C30      1.0000 0.00850  0.32290  0.70780  Biso   1.000  C
  C31      1.0000 0.10280  0.41570  0.70490  Biso   1.000  C
  C32      1.0000 0.08580  0.44760  0.63310  Biso   1.000  C
  C33      1.0000 0.16930  0.52710  0.62510  Biso   1.000  C
  C34      1.0000 0.27670  0.58020  0.69570  Biso   1.000  C
  C35      1.0000 0.29570  0.54420  0.76880  Biso   1.000  C
  C36      1.0000 0.20660  0.46310  0.77330  Biso   1.000  C
  C37      1.0000 0.37030  0.66850  0.68940  Biso   1.000  C
  C38      1.0000 0.29150  0.71020  0.43220  Biso   1.000  C
  C39      1.0000 0.14680  0.53440  0.27620  Biso   1.000  C
  C40      1.0000 0.10470  0.47410  0.16310  Biso   1.000  C
  C41      1.0000 0.19300  0.45570  0.13710  Biso   1.000  C
  C42      1.0000 0.30560  0.56380  0.19340  Biso   1.000  C
  C43      1.0000 0.33800  0.61830  0.30570  Biso   1.000  C
  C44      1.0000 0.15800  0.41100  0.02400  Biso   1.000  C
  C45      1.0000 0.22530  0.77300  0.06080  Biso   1.000  C
  C46      1.0000 0.33950  0.78090  0.96870  Biso   1.000  C
  C47      1.0000 0.40730  0.84670  0.92420  Biso   1.000  C
  C48      1.0000 0.34210  0.86530  0.84820  Biso   1.000  C
  C49      1.0000 0.28350  0.91190  0.89040  Biso   1.000  C
  C50      1.0000 0.22180  0.84810  0.93830  Biso   1.000  C
  C51      1.0000 0.40870  0.93240  0.80470  Biso   1.000  C
  C52      1.0000 0.29060  0.24640  0.46010  Biso   1.000  C
  C53      1.0000 0.09500  0.17160  0.38170  Biso   1.000  C
  C54      1.0000 0.98260  0.10270  0.37770  Biso   1.000  C
  C55      1.0000 0.98030  0.14160  0.47950  Biso   1.000  C
  C56      1.0000 0.07370  0.15510  0.56130  Biso   1.000  C
  C57      1.0000 0.18100  0.22320  0.56000  Biso   1.000  C
  C58      1.0000 0.86970  0.06740  0.47720  Biso   1.000  C
  C59      1.0000 0.04510  0.90290  0.16610  Biso   1.000  C
  C60      1.0000 0.95890  0.89120  0.07980  Biso   1.000  C
  C61      1.0000 0.95230  0.85740  0.98380  Biso   1.000  C
  C62      1.0000 0.87500  0.84850  0.90920  Biso   1.000  C
  C63      1.0000 0.80350  0.87960  0.92850  Biso   1.000  C
  C64      1.0000 0.80880  0.91010  0.02580  Biso   1.000  C
  C65      1.0000 0.88780  0.91920  0.10610  Biso   1.000  C
  C66      1.0000 0.72290  0.87690  0.85110  Biso   1.000  C
  C67      1.0000 0.99150  0.67710  0.29220  Biso   1.000  C
  C68      1.0000 0.89720  0.58430  0.29510  Biso   1.000  C
  C69      1.0000 0.91420  0.55240  0.36690  Biso   1.000  C
  C70      1.0000 0.83070  0.47290  0.37490  Biso   1.000  C
  C71      1.0000 0.72330  0.41980  0.30430  Biso   1.000  C
  C72      1.0000 0.70430  0.45580  0.23120  Biso   1.000  C
  C73      1.0000 0.79340  0.53690  0.22670  Biso   1.000  C
  C74      1.0000 0.62970  0.33150  0.31060  Biso   1.000  C
  N1       1.0000 0.74530  0.35860  0.67730  Biso   1.000  N
  N2       1.0000 0.71270  0.16540  0.98680  Biso   1.000  N
  N3       1.0000 0.82210  0.82250  0.54090  Biso   1.000  N
  N4       1.0000 0.25470  0.64140  0.32270  Biso   1.000  N
  N5       1.0000 0.28730  0.83460  0.01320  Biso   1.000  N
  N6       1.0000 0.17790  0.17750  0.45910  Biso   1.000  N
  O1       1.0000 0.55820  0.09830  0.41130  Biso   1.000  O
  O2       1.0000 0.54520  0.12630  0.57980  Biso   1.000  O
  O3       1.0000 0.68250  0.09140  0.53750  Biso   1.000  O
  O4       1.0000 0.92660  0.60760  0.03380  Biso   1.000  O
  O5       1.0000 0.77400  0.60300  0.00140  Biso   1.000  O
  O6       1.0000 0.77930  0.24850  0.77400  Biso   1.000  O
  O7       1.0000 0.67150  0.05790  0.75210  Biso   1.000  O
  O8       1.0000 0.59250  0.17430  0.78660  Biso   1.000  O
  O9       1.0000 0.49800  0.05000  0.18110  Biso   1.000  O
  O10      1.0000 0.62820  0.02640  0.24360  Biso   1.000  O
  O11      1.0000 0.61340  0.81630  0.42130  Biso   1.000  O
  O12      1.0000 0.68790  0.92230  0.61010  Biso   1.000  O
  O13      1.0000 0.52360  0.73580  0.52980  Biso   1.000  O
  O14      1.0000 0.21350  0.96190  0.59710  Biso   1.000  O
  O15      1.0000 0.13570  0.96040  0.45440  Biso   1.000  O
  O16      1.0000 0.91420  0.27460  0.63770  Biso   1.000  O
  O17      1.0000 0.02130  0.29080  0.77440  Biso   1.000  O
  O18      1.0000 0.35120  0.71760  0.64150  Biso   1.000  O
  O19      1.0000 0.46470  0.69430  0.73570  Biso   1.000  O
  O20      1.0000 0.94180  0.05320  0.74470  Biso   1.000  O
  O21      1.0000 0.90210  0.13580  0.85430  Biso   1.000  O
  O22      1.0000 0.30120  0.17940  0.24110  Biso   1.000  O
  O23      1.0000 0.31830  0.07250  0.12600  Biso   1.000  O
  O24      1.0000 0.40410  0.19540  0.77790  Biso   1.000  O
  O25      1.0000 0.44180  0.90170  0.58870  Biso   1.000  O
  O26      1.0000 0.45480  0.87370  0.42020  Biso   1.000  O
  O27      1.0000 0.31750  0.90860  0.46250  Biso   1.000  O
  O28      1.0000 0.07340  0.39240  0.96620  Biso   1.000  O
  O29      1.0000 0.22600  0.39700  0.99860  Biso   1.000  O
  O30      1.0000 0.22070  0.75150  0.22600  Biso   1.000  O
  O31      1.0000 0.32850  0.94210  0.24790  Biso   1.000  O
  O32      1.0000 0.40750  0.82570  0.21340  Biso   1.000  O
  O33      1.0000 0.50200  0.95000  0.81890  Biso   1.000  O
  O34      1.0000 0.37180  0.97360  0.75640  Biso   1.000  O
  O35      1.0000 0.38660  0.18370  0.57870  Biso   1.000  O
  O36      1.0000 0.31210  0.07770  0.38990  Biso   1.000  O
  O37      1.0000 0.47640  0.26420  0.47020  Biso   1.000  O
  O38      1.0000 0.78650  0.03810  0.40290  Biso   1.000  O
  O39      1.0000 0.86430  0.03960  0.54560  Biso   1.000  O
  O40      1.0000 0.08580  0.72540  0.36230  Biso   1.000  O
  O41      1.0000 0.97870  0.70920  0.22560  Biso   1.000  O
  O42      1.0000 0.64880  0.28240  0.35850  Biso   1.000  O
  O43      1.0000 0.53530  0.30570  0.26430  Biso   1.000  O
  O44      1.0000 0.05820  0.94680  0.25530  Biso   1.000  O
  O45      1.0000 0.09790  0.86420  0.14570  Biso   1.000  O
  O46      1.0000 0.69880  0.82060  0.75890  Biso   1.000  O
  O47      1.0000 0.68170  0.92750  0.87400  Biso   1.000  O
  O48      1.0000 0.59590  0.80460  0.22210  Biso   1.000  O
