data_image0
_cell_length_a       15.2688
_cell_length_b       15.3552
_cell_length_c       15.403
_cell_angle_alpha    106.787
_cell_angle_beta     117.059
_cell_angle_gamma    103.195

_symmetry_space_group_name_H-M    P 1
_symmetry_int_tables_number       1

loop_
  _symmetry_equiv_pos_as_xyz
  'x, y, z'

loop_
  _atom_site_label
  _atom_site_occupancy
  _atom_site_fract_x
  _atom_site_fract_y
  _atom_site_fract_z
  _atom_site_thermal_displace_type
  _atom_site_B_iso_or_equiv
  _atom_site_type_symbol
  La1      1.0000 0.94298  0.80254  0.63424  Biso   1.000  La
  La2      1.0000 0.67839  0.81607  0.38335  Biso   1.000  La
  La3      1.0000 0.91512  0.14639  0.56324  Biso   1.000  La
  La4      1.0000 0.05702  0.19746  0.36576  Biso   1.000  La
  La5      1.0000 0.32161  0.18393  0.61665  Biso   1.000  La
  La6      1.0000 0.08488  0.85361  0.43676  Biso   1.000  La
  P1       1.0000 0.87410  0.98320  0.69100  Biso   1.000  P
  P2       1.0000 0.80330  0.69340  0.32440  Biso   1.000  P
  P3       1.0000 0.11750  0.02510  0.64390  Biso   1.000  P
  P4       1.0000 0.12590  0.01680  0.30900  Biso   1.000  P
  P5       1.0000 0.19670  0.30660  0.67560  Biso   1.000  P
  P6       1.0000 0.88250  0.97490  0.35610  Biso   1.000  P
  H1       1.0000 0.29330  0.52470  0.17670  Biso   1.000  H
  H2       1.0000 0.96200  0.33500  0.73380  Biso   1.000  H
  H3       1.0000 0.85070  0.29480  0.65870  Biso   1.000  H
  H4       1.0000 0.66240  0.94510  0.60860  Biso   1.000  H
  H5       1.0000 0.84130  0.56220  0.40420  Biso   1.000  H
  H6       1.0000 0.25420  0.21410  0.82060  Biso   1.000  H
  H7       1.0000 0.82720  0.01010  0.81660  Biso   1.000  H
  H8       1.0000 0.77790  0.89490  0.74180  Biso   1.000  H
  H9       1.0000 0.59510  0.81710  0.63690  Biso   1.000  H
  H10      1.0000 0.61090  0.89560  0.74060  Biso   1.000  H
  H11      1.0000 0.42940  0.82730  0.59500  Biso   1.000  H
  H12      1.0000 0.46400  0.85690  0.52230  Biso   1.000  H
  H13      1.0000 0.49150  0.99290  0.71040  Biso   1.000  H
  H14      1.0000 0.57490  0.12550  0.69150  Biso   1.000  H
  H15      1.0000 0.55820  0.05240  0.58460  Biso   1.000  H
  H16      1.0000 0.70170  0.07970  0.79740  Biso   1.000  H
  H17      1.0000 0.73630  0.10960  0.72480  Biso   1.000  H
  H18      1.0000 0.70070  0.52440  0.19640  Biso   1.000  H
  H19      1.0000 0.66090  0.55040  0.27420  Biso   1.000  H
  H20      1.0000 0.78490  0.41850  0.20870  Biso   1.000  H
  H21      1.0000 0.88770  0.52140  0.28070  Biso   1.000  H
  H22      1.0000 0.96920  0.47540  0.41690  Biso   1.000  H
  H23      1.0000 0.93260  0.38860  0.30690  Biso   1.000  H
  H24      1.0000 0.78580  0.29240  0.29350  Biso   1.000  H
  H25      1.0000 0.83890  0.44540  0.48740  Biso   1.000  H
  H26      1.0000 0.73800  0.34090  0.41560  Biso   1.000  H
  H27      1.0000 0.68500  0.46480  0.37680  Biso   1.000  H
  H28      1.0000 0.66270  0.38230  0.27150  Biso   1.000  H
  H29      1.0000 0.27580  0.06160  0.80620  Biso   1.000  H
  H30      1.0000 0.17760  0.03540  0.81750  Biso   1.000  H
  H31      1.0000 0.09570  0.16650  0.81490  Biso   1.000  H
  H32      1.0000 0.16460  0.17210  0.93080  Biso   1.000  H
  H33      1.0000 0.19290  0.33710  0.88450  Biso   1.000  H
  H34      1.0000 0.14320  0.31980  0.95090  Biso   1.000  H
  H35      1.0000 0.30910  0.34500  0.09500  Biso   1.000  H
  H36      1.0000 0.40420  0.37150  0.97900  Biso   1.000  H
  H37      1.0000 0.46210  0.37040  0.09260  Biso   1.000  H
  H38      1.0000 0.34900  0.19720  0.01020  Biso   1.000  H
  H39      1.0000 0.40730  0.21250  0.95050  Biso   1.000  H
  H40      1.0000 0.27800  0.68300  0.06220  Biso   1.000  H
  H41      1.0000 0.13510  0.68770  0.92320  Biso   1.000  H
  H42      1.0000 0.34190  0.91470  0.94040  Biso   1.000  H
  H43      1.0000 0.48570  0.91580  0.08710  Biso   1.000  H
  H44      1.0000 0.50860  0.53520  0.67120  Biso   1.000  H
  H45      1.0000 0.63110  0.65670  0.67310  Biso   1.000  H
  H46      1.0000 0.72870  0.45760  0.56070  Biso   1.000  H
  H47      1.0000 0.60370  0.33220  0.55270  Biso   1.000  H
  H48      1.0000 0.70670  0.47530  0.82330  Biso   1.000  H
  H49      1.0000 0.03800  0.66500  0.26620  Biso   1.000  H
  H50      1.0000 0.14930  0.70520  0.34130  Biso   1.000  H
  H51      1.0000 0.33760  0.05490  0.39140  Biso   1.000  H
  H52      1.0000 0.15870  0.43780  0.59580  Biso   1.000  H
  H53      1.0000 0.74580  0.78590  0.17940  Biso   1.000  H
  H54      1.0000 0.17280  0.98990  0.18340  Biso   1.000  H
  H55      1.0000 0.22210  0.10510  0.25820  Biso   1.000  H
  H56      1.0000 0.40490  0.18290  0.36310  Biso   1.000  H
  H57      1.0000 0.38910  0.10440  0.25940  Biso   1.000  H
  H58      1.0000 0.57060  0.17270  0.40500  Biso   1.000  H
  H59      1.0000 0.53600  0.14310  0.47770  Biso   1.000  H
  H60      1.0000 0.50850  0.00710  0.28960  Biso   1.000  H
  H61      1.0000 0.42510  0.87450  0.30850  Biso   1.000  H
  H62      1.0000 0.44180  0.94760  0.41540  Biso   1.000  H
  H63      1.0000 0.29830  0.92030  0.20260  Biso   1.000  H
  H64      1.0000 0.26370  0.89040  0.27520  Biso   1.000  H
  H65      1.0000 0.29930  0.47560  0.80360  Biso   1.000  H
  H66      1.0000 0.33910  0.44960  0.72580  Biso   1.000  H
  H67      1.0000 0.21510  0.58150  0.79130  Biso   1.000  H
  H68      1.0000 0.11230  0.47860  0.71930  Biso   1.000  H
  H69      1.0000 0.03080  0.52460  0.58310  Biso   1.000  H
  H70      1.0000 0.06740  0.61140  0.69310  Biso   1.000  H
  H71      1.0000 0.21420  0.70760  0.70650  Biso   1.000  H
  H72      1.0000 0.16110  0.55460  0.51260  Biso   1.000  H
  H73      1.0000 0.26200  0.65910  0.58440  Biso   1.000  H
  H74      1.0000 0.31500  0.53520  0.62320  Biso   1.000  H
  H75      1.0000 0.33730  0.61770  0.72850  Biso   1.000  H
  H76      1.0000 0.72420  0.93840  0.19380  Biso   1.000  H
  H77      1.0000 0.82240  0.96460  0.18250  Biso   1.000  H
  H78      1.0000 0.90430  0.83350  0.18510  Biso   1.000  H
  H79      1.0000 0.83540  0.82790  0.06920  Biso   1.000  H
  H80      1.0000 0.80710  0.66290  0.11550  Biso   1.000  H
  H81      1.0000 0.85680  0.68020  0.04910  Biso   1.000  H
  H82      1.0000 0.69090  0.65500  0.90500  Biso   1.000  H
  H83      1.0000 0.59580  0.62850  0.02100  Biso   1.000  H
  H84      1.0000 0.53790  0.62960  0.90740  Biso   1.000  H
  H85      1.0000 0.65100  0.80280  0.98980  Biso   1.000  H
  H86      1.0000 0.59270  0.78750  0.04950  Biso   1.000  H
  H87      1.0000 0.72200  0.31700  0.93780  Biso   1.000  H
  H88      1.0000 0.86490  0.31230  0.07680  Biso   1.000  H
  H89      1.0000 0.65810  0.08530  0.05960  Biso   1.000  H
  H90      1.0000 0.51430  0.08420  0.91290  Biso   1.000  H
  H91      1.0000 0.49140  0.46480  0.32880  Biso   1.000  H
  H92      1.0000 0.36890  0.34330  0.32690  Biso   1.000  H
  H93      1.0000 0.27130  0.54240  0.43930  Biso   1.000  H
  H94      1.0000 0.39630  0.66780  0.44730  Biso   1.000  H
  C1       1.0000 0.78880  0.95950  0.74150  Biso   1.000  C
  C2       1.0000 0.59500  0.88170  0.66810  Biso   1.000  C
  C3       1.0000 0.48270  0.87730  0.59650  Biso   1.000  C
  C4       1.0000 0.47900  0.97780  0.63830  Biso   1.000  C
  C5       1.0000 0.57250  0.06090  0.65540  Biso   1.000  C
  C6       1.0000 0.68170  0.06060  0.72290  Biso   1.000  C
  C7       1.0000 0.36920  0.97530  0.56680  Biso   1.000  C
  C8       1.0000 0.72480  0.55940  0.27210  Biso   1.000  C
  C9       1.0000 0.84060  0.46920  0.28320  Biso   1.000  C
  C10      1.0000 0.90650  0.42240  0.34680  Biso   1.000  C
  C11      1.0000 0.84280  0.34880  0.36560  Biso   1.000  C
  C12      1.0000 0.78550  0.39280  0.41320  Biso   1.000  C
  C13      1.0000 0.71940  0.43580  0.34420  Biso   1.000  C
  C14      1.0000 0.91000  0.30530  0.43420  Biso   1.000  C
  C15      1.0000 0.21210  0.07360  0.79270  Biso   1.000  C
  C16      1.0000 0.16710  0.20020  0.88260  Biso   1.000  C
  C17      1.0000 0.19590  0.31010  0.93500  Biso   1.000  C
  C18      1.0000 0.31110  0.36770  0.04230  Biso   1.000  C
  C19      1.0000 0.39320  0.34190  0.02300  Biso   1.000  C
  C20      1.0000 0.35470  0.22660  0.96400  Biso   1.000  C
  C21      1.0000 0.33940  0.47970  0.08970  Biso   1.000  C
  C22      1.0000 0.49070  0.79240  0.17620  Biso   1.000  C
  C23      1.0000 0.39700  0.79340  0.08450  Biso   1.000  C
  C24      1.0000 0.29170  0.73000  0.03780  Biso   1.000  C
  C25      1.0000 0.20550  0.73390  0.95590  Biso   1.000  C
  C26      1.0000 0.22350  0.80590  0.92240  Biso   1.000  C
  C27      1.0000 0.32880  0.86980  0.96730  Biso   1.000  C
  C28      1.0000 0.41570  0.86780  0.05210  Biso   1.000  C
  C29      1.0000 0.12900  0.81050  0.83100  Biso   1.000  C
  C30      1.0000 0.45890  0.33700  0.60020  Biso   1.000  C
  C31      1.0000 0.53820  0.41790  0.60490  Biso   1.000  C
  C32      1.0000 0.55070  0.51860  0.64640  Biso   1.000  C
  C33      1.0000 0.62620  0.59180  0.64960  Biso   1.000  C
  C34      1.0000 0.69380  0.57210  0.61950  Biso   1.000  C
  C35      1.0000 0.68370  0.47270  0.58190  Biso   1.000  C
  C36      1.0000 0.60790  0.39700  0.57600  Biso   1.000  C
  C37      1.0000 0.77380  0.64980  0.62230  Biso   1.000  C
  C38      1.0000 0.21120  0.04050  0.25850  Biso   1.000  C
  C39      1.0000 0.40500  0.11830  0.33190  Biso   1.000  C
  C40      1.0000 0.51730  0.12270  0.40350  Biso   1.000  C
  C41      1.0000 0.52100  0.02220  0.36170  Biso   1.000  C
  C42      1.0000 0.42750  0.93910  0.34460  Biso   1.000  C
  C43      1.0000 0.31830  0.93940  0.27710  Biso   1.000  C
  C44      1.0000 0.63080  0.02470  0.43320  Biso   1.000  C
  C45      1.0000 0.27520  0.44060  0.72790  Biso   1.000  C
  C46      1.0000 0.15940  0.53080  0.71680  Biso   1.000  C
  C47      1.0000 0.09350  0.57760  0.65320  Biso   1.000  C
  C48      1.0000 0.15720  0.65120  0.63440  Biso   1.000  C
  C49      1.0000 0.21450  0.60720  0.58680  Biso   1.000  C
  C50      1.0000 0.28060  0.56420  0.65580  Biso   1.000  C
  C51      1.0000 0.09000  0.69470  0.56580  Biso   1.000  C
  C52      1.0000 0.78790  0.92640  0.20730  Biso   1.000  C
  C53      1.0000 0.83290  0.79980  0.11740  Biso   1.000  C
  C54      1.0000 0.80410  0.68990  0.06500  Biso   1.000  C
  C55      1.0000 0.68890  0.63230  0.95770  Biso   1.000  C
  C56      1.0000 0.60680  0.65810  0.97700  Biso   1.000  C
  C57      1.0000 0.64530  0.77340  0.03600  Biso   1.000  C
  C58      1.0000 0.66060  0.52030  0.91030  Biso   1.000  C
  C59      1.0000 0.50930  0.20760  0.82380  Biso   1.000  C
  C60      1.0000 0.60300  0.20660  0.91550  Biso   1.000  C
  C61      1.0000 0.70830  0.27000  0.96220  Biso   1.000  C
  C62      1.0000 0.79450  0.26610  0.04410  Biso   1.000  C
  C63      1.0000 0.77650  0.19410  0.07760  Biso   1.000  C
  C64      1.0000 0.67120  0.13020  0.03270  Biso   1.000  C
  C65      1.0000 0.58430  0.13220  0.94790  Biso   1.000  C
  C66      1.0000 0.87100  0.18950  0.16900  Biso   1.000  C
  C67      1.0000 0.54110  0.66300  0.39980  Biso   1.000  C
  C68      1.0000 0.46180  0.58210  0.39510  Biso   1.000  C
  C69      1.0000 0.44930  0.48140  0.35360  Biso   1.000  C
  C70      1.0000 0.37380  0.40820  0.35040  Biso   1.000  C
  C71      1.0000 0.30620  0.42790  0.38050  Biso   1.000  C
  C72      1.0000 0.31630  0.52730  0.41810  Biso   1.000  C
  C73      1.0000 0.39210  0.60300  0.42400  Biso   1.000  C
  C74      1.0000 0.22620  0.35020  0.37770  Biso   1.000  C
  N1       1.0000 0.67900  0.95970  0.67670  Biso   1.000  N
  N2       1.0000 0.78840  0.51350  0.33620  Biso   1.000  N
  N3       1.0000 0.24800  0.18170  0.85920  Biso   1.000  N
  N4       1.0000 0.32100  0.04030  0.32330  Biso   1.000  N
  N5       1.0000 0.21160  0.48650  0.66380  Biso   1.000  N
  N6       1.0000 0.75200  0.81830  0.14080  Biso   1.000  N
  O1       1.0000 0.97640  0.97470  0.76620  Biso   1.000  O
  O2       1.0000 0.81330  0.89170  0.57850  Biso   1.000  O
  O3       1.0000 0.88620  0.08100  0.68500  Biso   1.000  O
  O4       1.0000 0.28750  0.90330  0.53880  Biso   1.000  O
  O5       1.0000 0.36470  0.04470  0.53920  Biso   1.000  O
  O6       1.0000 0.72080  0.72230  0.25020  Biso   1.000  O
  O7       1.0000 0.82470  0.74400  0.43760  Biso   1.000  O
  O8       1.0000 0.90310  0.70740  0.32280  Biso   1.000  O
  O9       1.0000 0.86960  0.25680  0.46890  Biso   1.000  O
  O10      1.0000 0.00340  0.32190  0.45050  Biso   1.000  O
  O11      1.0000 0.05710  0.91110  0.59740  Biso   1.000  O
  O12      1.0000 0.04690  0.08030  0.62880  Biso   1.000  O
  O13      1.0000 0.18220  0.03910  0.59280  Biso   1.000  O
  O14      1.0000 0.27660  0.50720  0.11170  Biso   1.000  O
  O15      1.0000 0.41980  0.53190  0.10300  Biso   1.000  O
  O16      1.0000 0.47490  0.72790  0.20800  Biso   1.000  O
  O17      1.0000 0.58340  0.85930  0.22450  Biso   1.000  O
  O18      1.0000 0.03610  0.76550  0.80440  Biso   1.000  O
  O19      1.0000 0.14840  0.85920  0.78340  Biso   1.000  O
  O20      1.0000 0.40700  0.36120  0.64070  Biso   1.000  O
  O21      1.0000 0.44390  0.24930  0.55580  Biso   1.000  O
  O22      1.0000 0.79800  0.74120  0.67570  Biso   1.000  O
  O23      1.0000 0.81610  0.62460  0.57220  Biso   1.000  O
  O24      1.0000 0.90320  0.28210  0.69540  Biso   1.000  O
  O25      1.0000 0.02360  0.02530  0.23380  Biso   1.000  O
  O26      1.0000 0.18670  0.10830  0.42150  Biso   1.000  O
  O27      1.0000 0.11380  0.91900  0.31500  Biso   1.000  O
  O28      1.0000 0.71250  0.09670  0.46120  Biso   1.000  O
  O29      1.0000 0.63530  0.95530  0.46080  Biso   1.000  O
  O30      1.0000 0.27920  0.27770  0.74980  Biso   1.000  O
  O31      1.0000 0.17530  0.25600  0.56240  Biso   1.000  O
  O32      1.0000 0.09690  0.29260  0.67720  Biso   1.000  O
  O33      1.0000 0.13040  0.74320  0.53110  Biso   1.000  O
  O34      1.0000 0.99660  0.67810  0.54950  Biso   1.000  O
  O35      1.0000 0.94290  0.08890  0.40260  Biso   1.000  O
  O36      1.0000 0.95310  0.91970  0.37120  Biso   1.000  O
  O37      1.0000 0.81780  0.96090  0.40720  Biso   1.000  O
  O38      1.0000 0.72340  0.49280  0.88830  Biso   1.000  O
  O39      1.0000 0.58020  0.46810  0.89700  Biso   1.000  O
  O40      1.0000 0.52510  0.27210  0.79200  Biso   1.000  O
  O41      1.0000 0.41660  0.14070  0.77550  Biso   1.000  O
  O42      1.0000 0.96390  0.23450  0.19560  Biso   1.000  O
  O43      1.0000 0.85160  0.14080  0.21660  Biso   1.000  O
  O44      1.0000 0.59300  0.63880  0.35930  Biso   1.000  O
  O45      1.0000 0.55610  0.75070  0.44420  Biso   1.000  O
  O46      1.0000 0.20200  0.25880  0.32430  Biso   1.000  O
  O47      1.0000 0.18390  0.37540  0.42780  Biso   1.000  O
  O48      1.0000 0.09680  0.71790  0.30460  Biso   1.000  O
