data_image0
_cell_length_a       8.6605
_cell_length_b       17.162
_cell_length_c       12.1745
_cell_angle_alpha    90
_cell_angle_beta     92.034
_cell_angle_gamma    90

_symmetry_space_group_name_H-M    "P 1"
_symmetry_int_tables_number       1

loop_
  _symmetry_equiv_pos_as_xyz
  'x, y, z'

loop_
  _atom_site_label
  _atom_site_occupancy
  _atom_site_fract_x
  _atom_site_fract_y
  _atom_site_fract_z
  _atom_site_thermal_displace_type
  _atom_site_B_iso_or_equiv
  _atom_site_type_symbol
  C1       1.0000 0.82590  0.26420  0.57610  Biso   1.000  C
  C2       1.0000 0.34190  0.18790  0.42320  Biso   1.000  C
  C3       1.0000 0.02920  0.07310  0.76150  Biso   1.000  C
  C4       1.0000 0.86870  0.13450  0.24600  Biso   1.000  C
  N1       1.0000 0.88440  0.21050  0.54100  Biso   1.000  N
  N2       1.0000 0.22900  0.16320  0.45640  Biso   1.000  N
  N3       1.0000 0.05400  0.09050  0.67360  Biso   1.000  N
  N4       1.0000 0.92720  0.11400  0.32610  Biso   1.000  N
  O1       1.0000 0.84170  0.00980  0.51140  Biso   1.000  O
  S1       1.0000 0.74530  0.34179  0.63208  Biso   1.000  S
  S2       1.0000 0.50240  0.22395  0.37626  Biso   1.000  S
  S3       1.0000 0.99150  0.03929  0.88531  Biso   1.000  S
  S4       1.0000 0.77700  0.16636  0.13267  Biso   1.000  S
  Mn1      1.0000 0.01482  0.10850  0.49682  Biso   1.000  Mn
  Hg1      1.0000 0.50509  0.33953  0.50594  Biso   1.000  Hg
  H1       1.0000 0.77600  0.01600  0.47000  Biso   1.000  H
  H2       1.0000 0.78300  0.00300  0.55900  Biso   1.000  H
  C5       1.0000 0.67410  0.76420  0.92390  Biso   1.000  C
  C6       1.0000 0.15810  0.68790  0.07680  Biso   1.000  C
  C7       1.0000 0.47080  0.57310  0.73850  Biso   1.000  C
  C8       1.0000 0.63130  0.63450  0.25400  Biso   1.000  C
  N5       1.0000 0.61560  0.71050  0.95900  Biso   1.000  N
  N6       1.0000 0.27100  0.66320  0.04360  Biso   1.000  N
  N7       1.0000 0.44600  0.59050  0.82640  Biso   1.000  N
  N8       1.0000 0.57280  0.61400  0.17390  Biso   1.000  N
  O2       1.0000 0.65830  0.50980  0.98860  Biso   1.000  O
  S5       1.0000 0.75470  0.84179  0.86792  Biso   1.000  S
  S6       1.0000 0.99760  0.72395  0.12374  Biso   1.000  S
  S7       1.0000 0.50850  0.53929  0.61469  Biso   1.000  S
  S8       1.0000 0.72300  0.66636  0.36733  Biso   1.000  S
  Mn2      1.0000 0.48518  0.60850  0.00318  Biso   1.000  Mn
  Hg2      1.0000 0.99491  0.83953  0.99406  Biso   1.000  Hg
  H3       1.0000 0.72400  0.51600  0.03000  Biso   1.000  H
  H4       1.0000 0.71700  0.50300  0.94100  Biso   1.000  H
  C9       1.0000 0.17410  0.73580  0.42390  Biso   1.000  C
  C10      1.0000 0.65810  0.81210  0.57680  Biso   1.000  C
  C11      1.0000 0.97080  0.92690  0.23850  Biso   1.000  C
  C12      1.0000 0.13130  0.86550  0.75400  Biso   1.000  C
  N9       1.0000 0.11560  0.78950  0.45900  Biso   1.000  N
  N10      1.0000 0.77100  0.83680  0.54360  Biso   1.000  N
  N11      1.0000 0.94600  0.90950  0.32640  Biso   1.000  N
  N12      1.0000 0.07280  0.88600  0.67390  Biso   1.000  N
  O3       1.0000 0.15830  0.99020  0.48860  Biso   1.000  O
  S9       1.0000 0.25470  0.65821  0.36792  Biso   1.000  S
  S10      1.0000 0.49760  0.77605  0.62374  Biso   1.000  S
  S11      1.0000 0.00850  0.96071  0.11469  Biso   1.000  S
  S12      1.0000 0.22300  0.83364  0.86733  Biso   1.000  S
  Mn3      1.0000 0.98518  0.89150  0.50318  Biso   1.000  Mn
  Hg3      1.0000 0.49491  0.66047  0.49406  Biso   1.000  Hg
  H5       1.0000 0.22400  0.98400  0.53000  Biso   1.000  H
  H6       1.0000 0.21700  0.99700  0.44100  Biso   1.000  H
  C13      1.0000 0.32590  0.23580  0.07610  Biso   1.000  C
  C14      1.0000 0.84190  0.31210  0.92320  Biso   1.000  C
  C15      1.0000 0.52920  0.42690  0.26150  Biso   1.000  C
  C16      1.0000 0.36870  0.36550  0.74600  Biso   1.000  C
  N13      1.0000 0.38440  0.28950  0.04100  Biso   1.000  N
  N14      1.0000 0.72900  0.33680  0.95640  Biso   1.000  N
  N15      1.0000 0.55400  0.40950  0.17360  Biso   1.000  N
  N16      1.0000 0.42720  0.38600  0.82610  Biso   1.000  N
  O4       1.0000 0.34170  0.49020  0.01140  Biso   1.000  O
  S13      1.0000 0.24530  0.15821  0.13208  Biso   1.000  S
  S14      1.0000 0.00240  0.27605  0.87626  Biso   1.000  S
  S15      1.0000 0.49150  0.46071  0.38531  Biso   1.000  S
  S16      1.0000 0.27700  0.33364  0.63267  Biso   1.000  S
  Mn4      1.0000 0.51482  0.39150  0.99682  Biso   1.000  Mn
  Hg4      1.0000 0.00509  0.16047  0.00594  Biso   1.000  Hg
  H7       1.0000 0.27600  0.48400  0.97000  Biso   1.000  H
  H8       1.0000 0.28300  0.49700  0.05900  Biso   1.000  H
