data_image0
_cell_length_a       17.3504
_cell_length_b       17.3504
_cell_length_c       17.3504
_cell_angle_alpha    64.973
_cell_angle_beta     81.1464
_cell_angle_gamma    115.027

_symmetry_space_group_name_H-M    P 1
_symmetry_int_tables_number       1

loop_
  _symmetry_equiv_pos_as_xyz
  'x, y, z'

loop_
  _atom_site_label
  _atom_site_occupancy
  _atom_site_fract_x
  _atom_site_fract_y
  _atom_site_fract_z
  _atom_site_thermal_displace_type
  _atom_site_B_iso_or_equiv
  _atom_site_type_symbol
  Cd1      1.0000 0.33432  0.53852  0.05196  Biso   1.000  Cd
  Cd2      1.0000 0.09048  0.03852  0.79580  Biso   1.000  Cd
  H1       1.0000 0.20460  0.39600  0.28720  Biso   1.000  H
  H2       1.0000 0.40780  0.39200  0.16200  Biso   1.000  H
  H3       1.0000 0.17770  0.28140  0.46690  Biso   1.000  H
  H4       1.0000 0.27480  0.18940  0.48560  Biso   1.000  H
  H5       1.0000 0.16400  0.34580  0.04020  Biso   1.000  H
  H6       1.0000 0.42790  0.54600  0.87570  Biso   1.000  H
  H7       1.0000 0.12230  0.23510  0.95420  Biso   1.000  H
  H8       1.0000 0.28250  0.30150  0.82260  Biso   1.000  H
  H9       1.0000 0.36300  0.29190  0.32290  Biso   1.000  H
  H10      1.0000 0.36630  0.43550  0.82480  Biso   1.000  H
  H11      1.0000 0.18320  0.89600  0.80860  Biso   1.000  H
  H12      1.0000 0.05400  0.89200  0.01580  Biso   1.000  H
  H13      1.0000 0.24830  0.78140  0.89630  Biso   1.000  H
  H14      1.0000 0.17500  0.68940  0.08540  Biso   1.000  H
  H15      1.0000 0.88600  0.84580  0.81820  Biso   1.000  H
  H16      1.0000 0.92170  0.04600  0.88190  Biso   1.000  H
  H17      1.0000 0.68930  0.73510  0.88720  Biso   1.000  H
  H18      1.0000 0.62410  0.80150  0.98100  Biso   1.000  H
  H19      1.0000 0.11480  0.79190  0.07110  Biso   1.000  H
  H20      1.0000 0.76030  0.93550  0.93080  Biso   1.000  H
  C1       1.0000 0.26580  0.32260  0.34500  Biso   1.000  C
  C2       1.0000 0.24920  0.38120  0.27680  Biso   1.000  C
  C3       1.0000 0.36010  0.37920  0.20810  Biso   1.000  C
  C4       1.0000 0.21980  0.26850  0.44410  Biso   1.000  C
  C5       1.0000 0.23160  0.20240  0.50580  Biso   1.000  C
  C6       1.0000 0.17780  0.14850  0.60610  Biso   1.000  C
  C7       1.0000 0.24130  0.35810  0.92920  Biso   1.000  C
  C8       1.0000 0.22210  0.38080  0.99290  Biso   1.000  C
  C9       1.0000 0.36680  0.49090  0.90290  Biso   1.000  C
  C10      1.0000 0.18590  0.27710  0.91740  Biso   1.000  C
  C11      1.0000 0.21880  0.25950  0.85930  Biso   1.000  C
  C12      1.0000 0.16130  0.17600  0.84690  Biso   1.000  C
  C13      1.0000 0.16760  0.82260  0.94320  Biso   1.000  C
  C14      1.0000 0.15800  0.88120  0.86800  Biso   1.000  C
  C15      1.0000 0.08730  0.87920  0.98090  Biso   1.000  C
  C16      1.0000 0.21260  0.76850  0.95130  Biso   1.000  C
  C17      1.0000 0.20820  0.70240  0.02920  Biso   1.000  C
  C18      1.0000 0.25460  0.64850  0.02930  Biso   1.000  C
  C19      1.0000 0.78730  0.85810  0.88320  Biso   1.000  C
  C20      1.0000 0.87370  0.88080  0.84130  Biso   1.000  C
  C21      1.0000 0.89380  0.99090  0.87590  Biso   1.000  C
  C22      1.0000 0.69450  0.77710  0.90880  Biso   1.000  C
  C23      1.0000 0.61880  0.75950  0.95930  Biso   1.000  C
  C24      1.0000 0.52290  0.67600  0.98530  Biso   1.000  C
  N1       1.0000 0.30680  0.41510  0.19150  Biso   1.000  N
  N2       1.0000 0.33740  0.32300  0.29800  Biso   1.000  N
  N3       1.0000 0.30090  0.46260  0.97690  Biso   1.000  N
  N4       1.0000 0.33470  0.43050  0.87200  Biso   1.000  N
  N5       1.0000 0.10660  0.91510  0.89170  Biso   1.000  N
  N6       1.0000 0.12100  0.82300  0.01440  Biso   1.000  N
  N7       1.0000 0.93950  0.96260  0.83830  Biso   1.000  N
  N8       1.0000 0.80250  0.93050  0.90420  Biso   1.000  N
  O1       1.0000 0.07600  0.12570  0.88330  Biso   1.000  O
  O2       1.0000 0.20690  0.16020  0.79790  Biso   1.000  O
  O3       1.0000 0.13470  0.17740  0.63890  Biso   1.000  O
  O4       1.0000 0.17460  0.06700  0.66080  Biso   1.000  O
  O5       1.0000 0.50900  0.62570  0.95030  Biso   1.000  O
  O6       1.0000 0.45810  0.66020  0.04670  Biso   1.000  O
  O7       1.0000 0.31630  0.67740  0.95730  Biso   1.000  O
  O8       1.0000 0.22780  0.56700  0.10760  Biso   1.000  O
  Cd3      1.0000 0.90952  0.96148  0.20420  Biso   1.000  Cd
  Cd4      1.0000 0.66568  0.46148  0.94804  Biso   1.000  Cd
  H21      1.0000 0.81680  0.10400  0.19140  Biso   1.000  H
  H22      1.0000 0.94600  0.10800  0.98420  Biso   1.000  H
  H23      1.0000 0.75170  0.21860  0.10370  Biso   1.000  H
  H24      1.0000 0.82500  0.31060  0.91460  Biso   1.000  H
  H25      1.0000 0.11400  0.15420  0.18180  Biso   1.000  H
  H26      1.0000 0.07830  0.95400  0.11810  Biso   1.000  H
  H27      1.0000 0.31070  0.26490  0.11280  Biso   1.000  H
  H28      1.0000 0.37590  0.19850  0.01900  Biso   1.000  H
  H29      1.0000 0.88520  0.20810  0.92890  Biso   1.000  H
  H30      1.0000 0.23970  0.06450  0.06920  Biso   1.000  H
  H31      1.0000 0.79540  0.60400  0.71280  Biso   1.000  H
  H32      1.0000 0.59220  0.60800  0.83800  Biso   1.000  H
  H33      1.0000 0.82230  0.71860  0.53310  Biso   1.000  H
  H34      1.0000 0.72520  0.81060  0.51440  Biso   1.000  H
  H35      1.0000 0.83600  0.65420  0.95980  Biso   1.000  H
  H36      1.0000 0.57210  0.45400  0.12430  Biso   1.000  H
  H37      1.0000 0.87770  0.76490  0.04580  Biso   1.000  H
  H38      1.0000 0.71750  0.69850  0.17740  Biso   1.000  H
  H39      1.0000 0.63700  0.70810  0.67710  Biso   1.000  H
  H40      1.0000 0.63370  0.56450  0.17520  Biso   1.000  H
  C25      1.0000 0.83240  0.17740  0.05680  Biso   1.000  C
  C26      1.0000 0.84200  0.11880  0.13200  Biso   1.000  C
  C27      1.0000 0.91270  0.12080  0.01910  Biso   1.000  C
  C28      1.0000 0.78740  0.23150  0.04870  Biso   1.000  C
  C29      1.0000 0.79180  0.29760  0.97080  Biso   1.000  C
  C30      1.0000 0.74540  0.35150  0.97070  Biso   1.000  C
  C31      1.0000 0.21270  0.14190  0.11680  Biso   1.000  C
  C32      1.0000 0.12630  0.11920  0.15870  Biso   1.000  C
  C33      1.0000 0.10620  0.00910  0.12410  Biso   1.000  C
  C34      1.0000 0.30550  0.22290  0.09120  Biso   1.000  C
  C35      1.0000 0.38120  0.24050  0.04070  Biso   1.000  C
  C36      1.0000 0.47710  0.32400  0.01470  Biso   1.000  C
  C37      1.0000 0.73420  0.67740  0.65500  Biso   1.000  C
  C38      1.0000 0.75080  0.61880  0.72320  Biso   1.000  C
  C39      1.0000 0.63990  0.62080  0.79190  Biso   1.000  C
  C40      1.0000 0.78020  0.73150  0.55590  Biso   1.000  C
  C41      1.0000 0.76840  0.79760  0.49420  Biso   1.000  C
  C42      1.0000 0.82220  0.85150  0.39390  Biso   1.000  C
  C43      1.0000 0.75870  0.64190  0.07080  Biso   1.000  C
  C44      1.0000 0.77790  0.61920  0.00710  Biso   1.000  C
  C45      1.0000 0.63320  0.50910  0.09710  Biso   1.000  C
  C46      1.0000 0.81410  0.72290  0.08260  Biso   1.000  C
  C47      1.0000 0.78120  0.74050  0.14070  Biso   1.000  C
  C48      1.0000 0.83870  0.82400  0.15310  Biso   1.000  C
  N9       1.0000 0.89340  0.08490  0.10830  Biso   1.000  N
  N10      1.0000 0.87900  0.17700  0.98560  Biso   1.000  N
  N11      1.0000 0.06050  0.03740  0.16170  Biso   1.000  N
  N12      1.0000 0.19750  0.06950  0.09580  Biso   1.000  N
  N13      1.0000 0.69320  0.58490  0.80850  Biso   1.000  N
  N14      1.0000 0.66260  0.67700  0.70200  Biso   1.000  N
  N15      1.0000 0.69910  0.53740  0.02310  Biso   1.000  N
  N16      1.0000 0.66530  0.56950  0.12800  Biso   1.000  N
  O9       1.0000 0.49100  0.37430  0.04970  Biso   1.000  O
  O10      1.0000 0.54190  0.33980  0.95330  Biso   1.000  O
  O11      1.0000 0.68370  0.32260  0.04270  Biso   1.000  O
  O12      1.0000 0.77220  0.43300  0.89240  Biso   1.000  O
  O13      1.0000 0.92400  0.87430  0.11670  Biso   1.000  O
  O14      1.0000 0.79310  0.83980  0.20210  Biso   1.000  O
  O15      1.0000 0.86530  0.82260  0.36110  Biso   1.000  O
  O16      1.0000 0.82540  0.93300  0.33920  Biso   1.000  O
  Cd5      1.0000 0.29580  0.88628  0.16568  Biso   1.000  Cd
  Cd6      1.0000 0.55196  0.38628  0.40952  Biso   1.000  Cd
  H41      1.0000 0.30860  0.99180  0.29540  Biso   1.000  H
  H42      1.0000 0.51580  0.06980  0.09220  Biso   1.000  H
  H43      1.0000 0.39630  0.14460  0.32230  Biso   1.000  H
  H44      1.0000 0.58540  0.26040  0.22520  Biso   1.000  H
  H45      1.0000 0.31820  0.70420  0.33600  Biso   1.000  H
  H46      1.0000 0.38190  0.80360  0.07210  Biso   1.000  H
  H47      1.0000 0.38720  0.57650  0.37770  Biso   1.000  H
  H48      1.0000 0.48100  0.60510  0.21750  Biso   1.000  H
  H49      1.0000 0.57110  0.18590  0.13700  Biso   1.000  H
  H50      1.0000 0.43080  0.69110  0.13370  Biso   1.000  H
  H51      1.0000 0.78720  0.49180  0.31680  Biso   1.000  H
  H52      1.0000 0.66200  0.56980  0.44600  Biso   1.000  H
  H53      1.0000 0.96690  0.64460  0.25170  Biso   1.000  H
  H54      1.0000 0.98560  0.76040  0.32500  Biso   1.000  H
  H55      1.0000 0.54020  0.20420  0.61400  Biso   1.000  H
  H56      1.0000 0.37570  0.30360  0.57830  Biso   1.000  H
  H57      1.0000 0.45420  0.07650  0.81070  Biso   1.000  H
  H58      1.0000 0.32260  0.10510  0.87590  Biso   1.000  H
  H59      1.0000 0.82290  0.68590  0.38520  Biso   1.000  H
  H60      1.0000 0.32480  0.19110  0.73970  Biso   1.000  H
  C49      1.0000 0.44320  0.11080  0.23420  Biso   1.000  C
  C50      1.0000 0.36800  0.02600  0.25080  Biso   1.000  C
  C51      1.0000 0.48090  0.06820  0.13990  Biso   1.000  C
  C52      1.0000 0.45130  0.16390  0.28020  Biso   1.000  C
  C53      1.0000 0.52920  0.23740  0.26840  Biso   1.000  C
  C54      1.0000 0.52930  0.28390  0.32220  Biso   1.000  C
  C55      1.0000 0.38320  0.67050  0.25870  Biso   1.000  C
  C56      1.0000 0.34130  0.71500  0.27790  Biso   1.000  C
  C57      1.0000 0.37590  0.76970  0.13320  Biso   1.000  C
  C58      1.0000 0.40880  0.60330  0.31410  Biso   1.000  C
  C59      1.0000 0.45930  0.57810  0.28120  Biso   1.000  C
  C60      1.0000 0.48530  0.50820  0.33870  Biso   1.000  C
  C61      1.0000 0.84500  0.61080  0.33240  Biso   1.000  C
  C62      1.0000 0.77680  0.52600  0.34200  Biso   1.000  C
  C63      1.0000 0.70810  0.56820  0.41270  Biso   1.000  C
  C64      1.0000 0.94410  0.66390  0.28740  Biso   1.000  C
  C65      1.0000 0.00580  0.73740  0.29180  Biso   1.000  C
  C66      1.0000 0.10610  0.78390  0.24540  Biso   1.000  C
  C67      1.0000 0.42920  0.17050  0.71270  Biso   1.000  C
  C68      1.0000 0.49290  0.21500  0.62630  Biso   1.000  C
  C69      1.0000 0.40290  0.26970  0.60620  Biso   1.000  C
  C70      1.0000 0.41740  0.10330  0.80550  Biso   1.000  C
  C71      1.0000 0.35930  0.07810  0.88120  Biso   1.000  C
  C72      1.0000 0.34690  0.00820  0.97710  Biso   1.000  C
  N17      1.0000 0.39170  0.99830  0.19320  Biso   1.000  N
  N18      1.0000 0.51440  0.13540  0.16260  Biso   1.000  N
  N19      1.0000 0.33830  0.77780  0.19910  Biso   1.000  N
  N20      1.0000 0.40420  0.70670  0.16530  Biso   1.000  N
  N21      1.0000 0.69150  0.49830  0.39340  Biso   1.000  N
  N22      1.0000 0.79800  0.63540  0.37900  Biso   1.000  N
  N23      1.0000 0.47690  0.27780  0.56050  Biso   1.000  N
  N24      1.0000 0.37200  0.20670  0.69750  Biso   1.000  N
  O17      1.0000 0.45030  0.45930  0.42400  Biso   1.000  O
  O18      1.0000 0.54670  0.50480  0.29310  Biso   1.000  O
  O19      1.0000 0.45730  0.27360  0.36530  Biso   1.000  O
  O20      1.0000 0.60760  0.33540  0.32540  Biso   1.000  O
  O21      1.0000 0.38330  0.95930  0.99100  Biso   1.000  O
  O22      1.0000 0.29790  0.00480  0.04190  Biso   1.000  O
  O23      1.0000 0.13890  0.77360  0.18370  Biso   1.000  O
  O24      1.0000 0.16080  0.83540  0.27220  Biso   1.000  O
  Cd7      1.0000 0.44804  0.61372  0.59048  Biso   1.000  Cd
  Cd8      1.0000 0.70420  0.11372  0.83432  Biso   1.000  Cd
  H61      1.0000 0.21280  0.50820  0.68320  Biso   1.000  H
  H62      1.0000 0.33800  0.43020  0.55400  Biso   1.000  H
  H63      1.0000 0.03310  0.35540  0.74830  Biso   1.000  H
  H64      1.0000 0.01440  0.23960  0.67500  Biso   1.000  H
  H65      1.0000 0.45980  0.79580  0.38600  Biso   1.000  H
  H66      1.0000 0.62430  0.69640  0.42170  Biso   1.000  H
  H67      1.0000 0.54580  0.92350  0.18930  Biso   1.000  H
  H68      1.0000 0.67740  0.89490  0.12410  Biso   1.000  H
  H69      1.0000 0.17710  0.31410  0.61480  Biso   1.000  H
  H70      1.0000 0.67520  0.80890  0.26030  Biso   1.000  H
  H71      1.0000 0.69140  0.00820  0.70460  Biso   1.000  H
  H72      1.0000 0.48420  0.93020  0.90780  Biso   1.000  H
  H73      1.0000 0.60370  0.85540  0.67770  Biso   1.000  H
  H74      1.0000 0.41460  0.73960  0.77480  Biso   1.000  H
  H75      1.0000 0.68180  0.29580  0.66400  Biso   1.000  H
  H76      1.0000 0.61810  0.19640  0.92790  Biso   1.000  H
  H77      1.0000 0.61280  0.42350  0.62230  Biso   1.000  H
  H78      1.0000 0.51900  0.39490  0.78250  Biso   1.000  H
  H79      1.0000 0.42890  0.81410  0.86300  Biso   1.000  H
  H80      1.0000 0.56920  0.30890  0.86630  Biso   1.000  H
  C73      1.0000 0.15500  0.38920  0.66760  Biso   1.000  C
  C74      1.0000 0.22320  0.47400  0.65800  Biso   1.000  C
  C75      1.0000 0.29190  0.43180  0.58730  Biso   1.000  C
  C76      1.0000 0.05590  0.33610  0.71260  Biso   1.000  C
  C77      1.0000 0.99420  0.26260  0.70820  Biso   1.000  C
  C78      1.0000 0.89390  0.21610  0.75460  Biso   1.000  C
  C79      1.0000 0.57080  0.82950  0.28730  Biso   1.000  C
  C80      1.0000 0.50710  0.78500  0.37370  Biso   1.000  C
  C81      1.0000 0.59710  0.73030  0.39380  Biso   1.000  C
  C82      1.0000 0.58260  0.89670  0.19450  Biso   1.000  C
  C83      1.0000 0.64070  0.92190  0.11880  Biso   1.000  C
  C84      1.0000 0.65310  0.99180  0.02290  Biso   1.000  C
  C85      1.0000 0.55680  0.88920  0.76580  Biso   1.000  C
  C86      1.0000 0.63200  0.97400  0.74920  Biso   1.000  C
  C87      1.0000 0.51910  0.93180  0.86010  Biso   1.000  C
  C88      1.0000 0.54870  0.83610  0.71980  Biso   1.000  C
  C89      1.0000 0.47080  0.76260  0.73160  Biso   1.000  C
  C90      1.0000 0.47070  0.71610  0.67780  Biso   1.000  C
  C91      1.0000 0.61680  0.32950  0.74130  Biso   1.000  C
  C92      1.0000 0.65870  0.28500  0.72210  Biso   1.000  C
  C93      1.0000 0.62410  0.23030  0.86680  Biso   1.000  C
  C94      1.0000 0.59120  0.39670  0.68590  Biso   1.000  C
  C95      1.0000 0.54070  0.42190  0.71880  Biso   1.000  C
  C96      1.0000 0.51470  0.49180  0.66130  Biso   1.000  C
  N25      1.0000 0.30850  0.50170  0.60660  Biso   1.000  N
  N26      1.0000 0.20200  0.36460  0.62100  Biso   1.000  N
  N27      1.0000 0.52310  0.72220  0.43950  Biso   1.000  N
  N28      1.0000 0.62800  0.79330  0.30250  Biso   1.000  N
  N29      1.0000 0.60830  0.00170  0.80680  Biso   1.000  N
  N30      1.0000 0.48560  0.86460  0.83740  Biso   1.000  N
  N31      1.0000 0.66170  0.22220  0.80090  Biso   1.000  N
  N32      1.0000 0.59580  0.29330  0.83470  Biso   1.000  N
  O25      1.0000 0.61670  0.04070  0.00900  Biso   1.000  O
  O26      1.0000 0.70210  0.99520  0.95810  Biso   1.000  O
  O27      1.0000 0.86110  0.22640  0.81630  Biso   1.000  O
  O28      1.0000 0.83920  0.16460  0.72780  Biso   1.000  O
  O29      1.0000 0.54970  0.54070  0.57600  Biso   1.000  O
  O30      1.0000 0.45330  0.49520  0.70690  Biso   1.000  O
  O31      1.0000 0.54270  0.72640  0.63470  Biso   1.000  O
  O32      1.0000 0.39240  0.66460  0.67460  Biso   1.000  O
