data_image0
_cell_length_a       10.374
_cell_length_b       18.443
_cell_length_c       18.443
_cell_angle_alpha    90
_cell_angle_beta     90
_cell_angle_gamma    90

_symmetry_space_group_name_H-M    P 1
_symmetry_int_tables_number       1

loop_
  _symmetry_equiv_pos_as_xyz
  'x, y, z'

loop_
  _atom_site_label
  _atom_site_occupancy
  _atom_site_fract_x
  _atom_site_fract_y
  _atom_site_fract_z
  _atom_site_thermal_displace_type
  _atom_site_B_iso_or_equiv
  _atom_site_type_symbol
  Tm1      1.0000 0.65225  0.97368  0.25457  Biso   1.000  Tm
  Tm2      1.0000 0.65225  0.52632  0.24543  Biso   1.000  Tm
  Tm3      1.0000 0.65225  0.24543  0.97368  Biso   1.000  Tm
  Tm4      1.0000 0.65225  0.25457  0.52632  Biso   1.000  Tm
  Tm5      1.0000 0.84775  0.02632  0.75457  Biso   1.000  Tm
  Tm6      1.0000 0.84775  0.47368  0.74543  Biso   1.000  Tm
  Tm7      1.0000 0.84775  0.75457  0.47368  Biso   1.000  Tm
  Tm8      1.0000 0.84775  0.74543  0.02632  Biso   1.000  Tm
  Tm9      1.0000 0.34775  0.02632  0.74543  Biso   1.000  Tm
  Tm10     1.0000 0.34775  0.47368  0.75457  Biso   1.000  Tm
  Tm11     1.0000 0.34775  0.75457  0.02632  Biso   1.000  Tm
  Tm12     1.0000 0.34775  0.74543  0.47368  Biso   1.000  Tm
  Tm13     1.0000 0.15225  0.97368  0.24543  Biso   1.000  Tm
  Tm14     1.0000 0.15225  0.52632  0.25457  Biso   1.000  Tm
  Tm15     1.0000 0.15225  0.24543  0.52632  Biso   1.000  Tm
  Tm16     1.0000 0.15225  0.25457  0.97368  Biso   1.000  Tm
  H1       1.0000 0.73820  0.82510  0.26290  Biso   1.000  H
  H2       1.0000 0.80760  0.85360  0.20510  Biso   1.000  H
  H3       1.0000 0.67920  0.09500  0.17110  Biso   1.000  H
  H4       1.0000 0.56290  0.10490  0.20800  Biso   1.000  H
  H5       1.0000 0.73820  0.67490  0.23710  Biso   1.000  H
  H6       1.0000 0.80760  0.64640  0.29490  Biso   1.000  H
  H7       1.0000 0.67920  0.40500  0.32890  Biso   1.000  H
  H8       1.0000 0.56290  0.39510  0.29200  Biso   1.000  H
  H9       1.0000 0.73820  0.23710  0.82510  Biso   1.000  H
  H10      1.0000 0.80760  0.29490  0.85360  Biso   1.000  H
  H11      1.0000 0.67920  0.32890  0.09500  Biso   1.000  H
  H12      1.0000 0.56290  0.29200  0.10490  Biso   1.000  H
  H13      1.0000 0.73820  0.26290  0.67490  Biso   1.000  H
  H14      1.0000 0.80760  0.20510  0.64640  Biso   1.000  H
  H15      1.0000 0.67920  0.17110  0.40500  Biso   1.000  H
  H16      1.0000 0.56290  0.20800  0.39510  Biso   1.000  H
  H17      1.0000 0.76180  0.17490  0.76290  Biso   1.000  H
  H18      1.0000 0.69240  0.14640  0.70510  Biso   1.000  H
  H19      1.0000 0.82080  0.90500  0.67110  Biso   1.000  H
  H20      1.0000 0.93710  0.89510  0.70800  Biso   1.000  H
  H21      1.0000 0.76180  0.32510  0.73710  Biso   1.000  H
  H22      1.0000 0.69240  0.35360  0.79490  Biso   1.000  H
  H23      1.0000 0.82080  0.59500  0.82890  Biso   1.000  H
  H24      1.0000 0.93710  0.60490  0.79200  Biso   1.000  H
  H25      1.0000 0.76180  0.76290  0.32510  Biso   1.000  H
  H26      1.0000 0.69240  0.70510  0.35360  Biso   1.000  H
  H27      1.0000 0.82080  0.67110  0.59500  Biso   1.000  H
  H28      1.0000 0.93710  0.70800  0.60490  Biso   1.000  H
  H29      1.0000 0.76180  0.73710  0.17490  Biso   1.000  H
  H30      1.0000 0.69240  0.79490  0.14640  Biso   1.000  H
  H31      1.0000 0.82080  0.82890  0.90500  Biso   1.000  H
  H32      1.0000 0.93710  0.79200  0.89510  Biso   1.000  H
  H33      1.0000 0.26180  0.17490  0.73710  Biso   1.000  H
  H34      1.0000 0.19240  0.14640  0.79490  Biso   1.000  H
  H35      1.0000 0.32080  0.90500  0.82890  Biso   1.000  H
  H36      1.0000 0.43710  0.89510  0.79200  Biso   1.000  H
  H37      1.0000 0.26180  0.32510  0.76290  Biso   1.000  H
  H38      1.0000 0.19240  0.35360  0.70510  Biso   1.000  H
  H39      1.0000 0.32080  0.59500  0.67110  Biso   1.000  H
  H40      1.0000 0.43710  0.60490  0.70800  Biso   1.000  H
  H41      1.0000 0.26180  0.76290  0.17490  Biso   1.000  H
  H42      1.0000 0.19240  0.70510  0.14640  Biso   1.000  H
  H43      1.0000 0.32080  0.67110  0.90500  Biso   1.000  H
  H44      1.0000 0.43710  0.70800  0.89510  Biso   1.000  H
  H45      1.0000 0.26180  0.73710  0.32510  Biso   1.000  H
  H46      1.0000 0.19240  0.79490  0.35360  Biso   1.000  H
  H47      1.0000 0.32080  0.82890  0.59500  Biso   1.000  H
  H48      1.0000 0.43710  0.79200  0.60490  Biso   1.000  H
  H49      1.0000 0.23820  0.82510  0.23710  Biso   1.000  H
  H50      1.0000 0.30760  0.85360  0.29490  Biso   1.000  H
  H51      1.0000 0.17920  0.09500  0.32890  Biso   1.000  H
  H52      1.0000 0.06290  0.10490  0.29200  Biso   1.000  H
  H53      1.0000 0.23820  0.67490  0.26290  Biso   1.000  H
  H54      1.0000 0.30760  0.64640  0.20510  Biso   1.000  H
  H55      1.0000 0.17920  0.40500  0.17110  Biso   1.000  H
  H56      1.0000 0.06290  0.39510  0.20800  Biso   1.000  H
  H57      1.0000 0.23820  0.23710  0.67490  Biso   1.000  H
  H58      1.0000 0.30760  0.29490  0.64640  Biso   1.000  H
  H59      1.0000 0.17920  0.32890  0.40500  Biso   1.000  H
  H60      1.0000 0.06290  0.29200  0.39510  Biso   1.000  H
  H61      1.0000 0.23820  0.26290  0.82510  Biso   1.000  H
  H62      1.0000 0.30760  0.20510  0.85360  Biso   1.000  H
  H63      1.0000 0.17920  0.17110  0.09500  Biso   1.000  H
  H64      1.0000 0.06290  0.20800  0.10490  Biso   1.000  H
  C1       1.0000 0.92820  0.02140  0.43910  Biso   1.000  C
  C2       1.0000 0.97970  0.95160  0.44250  Biso   1.000  C
  C3       1.0000 0.95070  0.07010  0.49590  Biso   1.000  C
  C4       1.0000 0.84010  0.04500  0.37840  Biso   1.000  C
  C5       1.0000 0.97220  0.89850  0.37970  Biso   1.000  C
  C6       1.0000 0.89870  0.14700  0.49540  Biso   1.000  C
  C7       1.0000 0.92820  0.47860  0.06090  Biso   1.000  C
  C8       1.0000 0.97970  0.54840  0.05750  Biso   1.000  C
  C9       1.0000 0.95070  0.42990  0.00410  Biso   1.000  C
  C10      1.0000 0.84010  0.45500  0.12160  Biso   1.000  C
  C11      1.0000 0.97220  0.60150  0.12030  Biso   1.000  C
  C12      1.0000 0.89870  0.35300  0.00460  Biso   1.000  C
  C13      1.0000 0.92820  0.06090  0.02140  Biso   1.000  C
  C14      1.0000 0.97970  0.05750  0.95160  Biso   1.000  C
  C15      1.0000 0.95070  0.00410  0.07010  Biso   1.000  C
  C16      1.0000 0.84010  0.12160  0.04500  Biso   1.000  C
  C17      1.0000 0.97220  0.12030  0.89850  Biso   1.000  C
  C18      1.0000 0.89870  0.00460  0.14700  Biso   1.000  C
  C19      1.0000 0.92820  0.43910  0.47860  Biso   1.000  C
  C20      1.0000 0.97970  0.44250  0.54840  Biso   1.000  C
  C21      1.0000 0.95070  0.49590  0.42990  Biso   1.000  C
  C22      1.0000 0.84010  0.37840  0.45500  Biso   1.000  C
  C23      1.0000 0.97220  0.37970  0.60150  Biso   1.000  C
  C24      1.0000 0.89870  0.49540  0.35300  Biso   1.000  C
  C25      1.0000 0.57180  0.97860  0.93910  Biso   1.000  C
  C26      1.0000 0.52030  0.04840  0.94250  Biso   1.000  C
  C27      1.0000 0.54930  0.92990  0.99590  Biso   1.000  C
  C28      1.0000 0.65990  0.95500  0.87840  Biso   1.000  C
  C29      1.0000 0.52780  0.10150  0.87970  Biso   1.000  C
  C30      1.0000 0.60130  0.85300  0.99540  Biso   1.000  C
  C31      1.0000 0.57180  0.52140  0.56090  Biso   1.000  C
  C32      1.0000 0.52030  0.45160  0.55750  Biso   1.000  C
  C33      1.0000 0.54930  0.57010  0.50410  Biso   1.000  C
  C34      1.0000 0.65990  0.54500  0.62160  Biso   1.000  C
  C35      1.0000 0.52780  0.39850  0.62030  Biso   1.000  C
  C36      1.0000 0.60130  0.64700  0.50460  Biso   1.000  C
  C37      1.0000 0.57180  0.93910  0.52140  Biso   1.000  C
  C38      1.0000 0.52030  0.94250  0.45160  Biso   1.000  C
  C39      1.0000 0.54930  0.99590  0.57010  Biso   1.000  C
  C40      1.0000 0.65990  0.87840  0.54500  Biso   1.000  C
  C41      1.0000 0.52780  0.87970  0.39850  Biso   1.000  C
  C42      1.0000 0.60130  0.99540  0.64700  Biso   1.000  C
  C43      1.0000 0.57180  0.56090  0.97860  Biso   1.000  C
  C44      1.0000 0.52030  0.55750  0.04840  Biso   1.000  C
  C45      1.0000 0.54930  0.50410  0.92990  Biso   1.000  C
  C46      1.0000 0.65990  0.62160  0.95500  Biso   1.000  C
  C47      1.0000 0.52780  0.62030  0.10150  Biso   1.000  C
  C48      1.0000 0.60130  0.50460  0.85300  Biso   1.000  C
  C49      1.0000 0.07180  0.97860  0.56090  Biso   1.000  C
  C50      1.0000 0.02030  0.04840  0.55750  Biso   1.000  C
  C51      1.0000 0.04930  0.92990  0.50410  Biso   1.000  C
  C52      1.0000 0.15990  0.95500  0.62160  Biso   1.000  C
  C53      1.0000 0.02780  0.10150  0.62030  Biso   1.000  C
  C54      1.0000 0.10130  0.85300  0.50460  Biso   1.000  C
  C55      1.0000 0.07180  0.52140  0.93910  Biso   1.000  C
  C56      1.0000 0.02030  0.45160  0.94250  Biso   1.000  C
  C57      1.0000 0.04930  0.57010  0.99590  Biso   1.000  C
  C58      1.0000 0.15990  0.54500  0.87840  Biso   1.000  C
  C59      1.0000 0.02780  0.39850  0.87970  Biso   1.000  C
  C60      1.0000 0.10130  0.64700  0.99540  Biso   1.000  C
  C61      1.0000 0.07180  0.93910  0.97860  Biso   1.000  C
  C62      1.0000 0.02030  0.94250  0.04840  Biso   1.000  C
  C63      1.0000 0.04930  0.99590  0.92990  Biso   1.000  C
  C64      1.0000 0.15990  0.87840  0.95500  Biso   1.000  C
  C65      1.0000 0.02780  0.87970  0.10150  Biso   1.000  C
  C66      1.0000 0.10130  0.99540  0.85300  Biso   1.000  C
  C67      1.0000 0.07180  0.56090  0.52140  Biso   1.000  C
  C68      1.0000 0.02030  0.55750  0.45160  Biso   1.000  C
  C69      1.0000 0.04930  0.50410  0.57010  Biso   1.000  C
  C70      1.0000 0.15990  0.62160  0.54500  Biso   1.000  C
  C71      1.0000 0.02780  0.62030  0.39850  Biso   1.000  C
  C72      1.0000 0.10130  0.50460  0.64700  Biso   1.000  C
  C73      1.0000 0.42820  0.02140  0.06090  Biso   1.000  C
  C74      1.0000 0.47970  0.95160  0.05750  Biso   1.000  C
  C75      1.0000 0.45070  0.07010  0.00410  Biso   1.000  C
  C76      1.0000 0.34010  0.04500  0.12160  Biso   1.000  C
  C77      1.0000 0.47220  0.89850  0.12030  Biso   1.000  C
  C78      1.0000 0.39870  0.14700  0.00460  Biso   1.000  C
  C79      1.0000 0.42820  0.47860  0.43910  Biso   1.000  C
  C80      1.0000 0.47970  0.54840  0.44250  Biso   1.000  C
  C81      1.0000 0.45070  0.42990  0.49590  Biso   1.000  C
  C82      1.0000 0.34010  0.45500  0.37840  Biso   1.000  C
  C83      1.0000 0.47220  0.60150  0.37970  Biso   1.000  C
  C84      1.0000 0.39870  0.35300  0.49540  Biso   1.000  C
  C85      1.0000 0.42820  0.06090  0.47860  Biso   1.000  C
  C86      1.0000 0.47970  0.05750  0.54840  Biso   1.000  C
  C87      1.0000 0.45070  0.00410  0.42990  Biso   1.000  C
  C88      1.0000 0.34010  0.12160  0.45500  Biso   1.000  C
  C89      1.0000 0.47220  0.12030  0.60150  Biso   1.000  C
  C90      1.0000 0.39870  0.00460  0.35300  Biso   1.000  C
  C91      1.0000 0.42820  0.43910  0.02140  Biso   1.000  C
  C92      1.0000 0.47970  0.44250  0.95160  Biso   1.000  C
  C93      1.0000 0.45070  0.49590  0.07010  Biso   1.000  C
  C94      1.0000 0.34010  0.37840  0.04500  Biso   1.000  C
  C95      1.0000 0.47220  0.37970  0.89850  Biso   1.000  C
  C96      1.0000 0.39870  0.49540  0.14700  Biso   1.000  C
  O1       1.0000 0.78030  0.86160  0.24785  Biso   1.000  O
  O2       1.0000 0.64000  0.08950  0.21120  Biso   1.000  O
  O3       1.0000 0.82360  0.11100  0.36650  Biso   1.000  O
  O4       1.0000 0.78450  0.99440  0.34400  Biso   1.000  O
  O5       1.0000 0.92680  0.83701  0.38995  Biso   1.000  O
  O6       1.0000 0.01980  0.91720  0.32039  Biso   1.000  O
  O7       1.0000 0.97420  0.19659  0.47560  Biso   1.000  O
  O8       1.0000 0.78620  0.15700  0.51750  Biso   1.000  O
  O9       1.0000 0.78030  0.63840  0.25215  Biso   1.000  O
  O10      1.0000 0.64000  0.41050  0.28880  Biso   1.000  O
  O11      1.0000 0.82360  0.38900  0.13350  Biso   1.000  O
  O12      1.0000 0.78450  0.50560  0.15600  Biso   1.000  O
  O13      1.0000 0.92680  0.66299  0.11005  Biso   1.000  O
  O14      1.0000 0.01980  0.58280  0.17961  Biso   1.000  O
  O15      1.0000 0.97420  0.30341  0.02440  Biso   1.000  O
  O16      1.0000 0.78620  0.34300  0.98250  Biso   1.000  O
  O17      1.0000 0.78030  0.25215  0.86160  Biso   1.000  O
  O18      1.0000 0.64000  0.28880  0.08950  Biso   1.000  O
  O19      1.0000 0.82360  0.13350  0.11100  Biso   1.000  O
  O20      1.0000 0.78450  0.15600  0.99440  Biso   1.000  O
  O21      1.0000 0.92680  0.11005  0.83701  Biso   1.000  O
  O22      1.0000 0.01980  0.17961  0.91720  Biso   1.000  O
  O23      1.0000 0.97420  0.02440  0.19659  Biso   1.000  O
  O24      1.0000 0.78620  0.98250  0.15700  Biso   1.000  O
  O25      1.0000 0.78030  0.24785  0.63840  Biso   1.000  O
  O26      1.0000 0.64000  0.21120  0.41050  Biso   1.000  O
  O27      1.0000 0.82360  0.36650  0.38900  Biso   1.000  O
  O28      1.0000 0.78450  0.34400  0.50560  Biso   1.000  O
  O29      1.0000 0.92680  0.38995  0.66299  Biso   1.000  O
  O30      1.0000 0.01980  0.32039  0.58280  Biso   1.000  O
  O31      1.0000 0.97420  0.47560  0.30341  Biso   1.000  O
  O32      1.0000 0.78620  0.51750  0.34300  Biso   1.000  O
  O33      1.0000 0.71970  0.13840  0.74785  Biso   1.000  O
  O34      1.0000 0.86000  0.91050  0.71120  Biso   1.000  O
  O35      1.0000 0.67640  0.88900  0.86650  Biso   1.000  O
  O36      1.0000 0.71550  0.00560  0.84400  Biso   1.000  O
  O37      1.0000 0.57320  0.16299  0.88995  Biso   1.000  O
  O38      1.0000 0.48020  0.08280  0.82039  Biso   1.000  O
  O39      1.0000 0.52580  0.80341  0.97560  Biso   1.000  O
  O40      1.0000 0.71380  0.84300  0.01750  Biso   1.000  O
  O41      1.0000 0.71970  0.36160  0.75215  Biso   1.000  O
  O42      1.0000 0.86000  0.58950  0.78880  Biso   1.000  O
  O43      1.0000 0.67640  0.61100  0.63350  Biso   1.000  O
  O44      1.0000 0.71550  0.49440  0.65600  Biso   1.000  O
  O45      1.0000 0.57320  0.33701  0.61005  Biso   1.000  O
  O46      1.0000 0.48020  0.41720  0.67961  Biso   1.000  O
  O47      1.0000 0.52580  0.69659  0.52440  Biso   1.000  O
  O48      1.0000 0.71380  0.65700  0.48250  Biso   1.000  O
  O49      1.0000 0.71970  0.74785  0.36160  Biso   1.000  O
  O50      1.0000 0.86000  0.71120  0.58950  Biso   1.000  O
  O51      1.0000 0.67640  0.86650  0.61100  Biso   1.000  O
  O52      1.0000 0.71550  0.84400  0.49440  Biso   1.000  O
  O53      1.0000 0.57320  0.88995  0.33701  Biso   1.000  O
  O54      1.0000 0.48020  0.82039  0.41720  Biso   1.000  O
  O55      1.0000 0.52580  0.97560  0.69659  Biso   1.000  O
  O56      1.0000 0.71380  0.01750  0.65700  Biso   1.000  O
  O57      1.0000 0.71970  0.75215  0.13840  Biso   1.000  O
  O58      1.0000 0.86000  0.78880  0.91050  Biso   1.000  O
  O59      1.0000 0.67640  0.63350  0.88900  Biso   1.000  O
  O60      1.0000 0.71550  0.65600  0.00560  Biso   1.000  O
  O61      1.0000 0.57320  0.61005  0.16299  Biso   1.000  O
  O62      1.0000 0.48020  0.67961  0.08280  Biso   1.000  O
  O63      1.0000 0.52580  0.52440  0.80341  Biso   1.000  O
  O64      1.0000 0.71380  0.48250  0.84300  Biso   1.000  O
  O65      1.0000 0.21970  0.13840  0.75215  Biso   1.000  O
  O66      1.0000 0.36000  0.91050  0.78880  Biso   1.000  O
  O67      1.0000 0.17640  0.88900  0.63350  Biso   1.000  O
  O68      1.0000 0.21550  0.00560  0.65600  Biso   1.000  O
  O69      1.0000 0.07320  0.16299  0.61005  Biso   1.000  O
  O70      1.0000 0.98020  0.08280  0.67961  Biso   1.000  O
  O71      1.0000 0.02580  0.80341  0.52440  Biso   1.000  O
  O72      1.0000 0.21380  0.84300  0.48250  Biso   1.000  O
  O73      1.0000 0.21970  0.36160  0.74785  Biso   1.000  O
  O74      1.0000 0.36000  0.58950  0.71120  Biso   1.000  O
  O75      1.0000 0.17640  0.61100  0.86650  Biso   1.000  O
  O76      1.0000 0.21550  0.49440  0.84400  Biso   1.000  O
  O77      1.0000 0.07320  0.33701  0.88995  Biso   1.000  O
  O78      1.0000 0.98020  0.41720  0.82039  Biso   1.000  O
  O79      1.0000 0.02580  0.69659  0.97560  Biso   1.000  O
  O80      1.0000 0.21380  0.65700  0.01750  Biso   1.000  O
  O81      1.0000 0.21970  0.74785  0.13840  Biso   1.000  O
  O82      1.0000 0.36000  0.71120  0.91050  Biso   1.000  O
  O83      1.0000 0.17640  0.86650  0.88900  Biso   1.000  O
  O84      1.0000 0.21550  0.84400  0.00560  Biso   1.000  O
  O85      1.0000 0.07320  0.88995  0.16299  Biso   1.000  O
  O86      1.0000 0.98020  0.82039  0.08280  Biso   1.000  O
  O87      1.0000 0.02580  0.97560  0.80341  Biso   1.000  O
  O88      1.0000 0.21380  0.01750  0.84300  Biso   1.000  O
  O89      1.0000 0.21970  0.75215  0.36160  Biso   1.000  O
  O90      1.0000 0.36000  0.78880  0.58950  Biso   1.000  O
  O91      1.0000 0.17640  0.63350  0.61100  Biso   1.000  O
  O92      1.0000 0.21550  0.65600  0.49440  Biso   1.000  O
  O93      1.0000 0.07320  0.61005  0.33701  Biso   1.000  O
  O94      1.0000 0.98020  0.67961  0.41720  Biso   1.000  O
  O95      1.0000 0.02580  0.52440  0.69659  Biso   1.000  O
  O96      1.0000 0.21380  0.48250  0.65700  Biso   1.000  O
  O97      1.0000 0.28030  0.86160  0.25215  Biso   1.000  O
  O98      1.0000 0.14000  0.08950  0.28880  Biso   1.000  O
  O99      1.0000 0.32360  0.11100  0.13350  Biso   1.000  O
  O100     1.0000 0.28450  0.99440  0.15600  Biso   1.000  O
  O101     1.0000 0.42680  0.83701  0.11005  Biso   1.000  O
  O102     1.0000 0.51980  0.91720  0.17961  Biso   1.000  O
  O103     1.0000 0.47420  0.19659  0.02440  Biso   1.000  O
  O104     1.0000 0.28620  0.15700  0.98250  Biso   1.000  O
  O105     1.0000 0.28030  0.63840  0.24785  Biso   1.000  O
  O106     1.0000 0.14000  0.41050  0.21120  Biso   1.000  O
  O107     1.0000 0.32360  0.38900  0.36650  Biso   1.000  O
  O108     1.0000 0.28450  0.50560  0.34400  Biso   1.000  O
  O109     1.0000 0.42680  0.66299  0.38995  Biso   1.000  O
  O110     1.0000 0.51980  0.58280  0.32039  Biso   1.000  O
  O111     1.0000 0.47420  0.30341  0.47560  Biso   1.000  O
  O112     1.0000 0.28620  0.34300  0.51750  Biso   1.000  O
  O113     1.0000 0.28030  0.25215  0.63840  Biso   1.000  O
  O114     1.0000 0.14000  0.28880  0.41050  Biso   1.000  O
  O115     1.0000 0.32360  0.13350  0.38900  Biso   1.000  O
  O116     1.0000 0.28450  0.15600  0.50560  Biso   1.000  O
  O117     1.0000 0.42680  0.11005  0.66299  Biso   1.000  O
  O118     1.0000 0.51980  0.17961  0.58280  Biso   1.000  O
  O119     1.0000 0.47420  0.02440  0.30341  Biso   1.000  O
  O120     1.0000 0.28620  0.98250  0.34300  Biso   1.000  O
  O121     1.0000 0.28030  0.24785  0.86160  Biso   1.000  O
  O122     1.0000 0.14000  0.21120  0.08950  Biso   1.000  O
  O123     1.0000 0.32360  0.36650  0.11100  Biso   1.000  O
  O124     1.0000 0.28450  0.34400  0.99440  Biso   1.000  O
  O125     1.0000 0.42680  0.38995  0.83701  Biso   1.000  O
  O126     1.0000 0.51980  0.32039  0.91720  Biso   1.000  O
  O127     1.0000 0.47420  0.47560  0.19659  Biso   1.000  O
  O128     1.0000 0.28620  0.51750  0.15700  Biso   1.000  O
