data_image0
_cell_length_a       8.4408
_cell_length_b       9.263
_cell_length_c       13.843
_cell_angle_alpha    81.119
_cell_angle_beta     83.643
_cell_angle_gamma    72.647

_symmetry_space_group_name_H-M    "P 1"
_symmetry_int_tables_number       1

loop_
  _symmetry_equiv_pos_as_xyz
  'x, y, z'

loop_
  _atom_site_label
  _atom_site_occupancy
  _atom_site_fract_x
  _atom_site_fract_y
  _atom_site_fract_z
  _atom_site_thermal_displace_type
  _atom_site_B_iso_or_equiv
  _atom_site_type_symbol
  Zn1      1.0000 0.74556  0.49370  0.47314  Biso   1.000  Zn
  Zn2      1.0000 0.70629  0.08149  0.98055  Biso   1.000  Zn
  Zn3      1.0000 0.36247  0.11199  0.37406  Biso   1.000  Zn
  P1       1.0000 0.90455  0.56646  0.64875  Biso   1.000  P
  P2       1.0000 0.41496  0.13549  0.13603  Biso   1.000  P
  P3       1.0000 0.98318  0.79185  0.07714  Biso   1.000  P
  P4       1.0000 0.58102  0.21723  0.52006  Biso   1.000  P
  O1       1.0000 0.81340  0.47670  0.60320  Biso   1.000  O
  O2       1.0000 0.09210  0.49790  0.63540  Biso   1.000  O
  O3       1.0000 0.71030  0.29650  0.47005  Biso   1.000  O
  O4       1.0000 0.43480  0.33000  0.56970  Biso   1.000  O
  O5       1.0000 0.52780  0.20160  0.06043  Biso   1.000  O
  O6       1.0000 0.83300  0.93020  0.07650  Biso   1.000  O
  O7       1.0000 0.40270  0.98180  0.11617  Biso   1.000  O
  O8       1.0000 0.13990  0.82110  0.10273  Biso   1.000  O
  O9       1.0000 0.53060  0.14380  0.44218  Biso   1.000  O
  O10      1.0000 0.84930  0.73620  0.61290  Biso   1.000  O
  O11      1.0000 0.66510  0.09150  0.60147  Biso   1.000  O
  O12      1.0000 0.46990  0.12420  0.23929  Biso   1.000  O
  O13      1.0000 0.85700  0.54360  0.76211  Biso   1.000  O
  H1       1.0000 0.92810  0.47170  0.78850  Biso   1.000  H
  O14      1.0000 0.23170  0.24690  0.13010  Biso   1.000  O
  H2       1.0000 0.21710  0.31060  0.16770  Biso   1.000  H
  O15      1.0000 0.94130  0.66690  0.15120  Biso   1.000  O
  O16      1.0000 0.02330  0.73960  0.97200  Biso   1.000  O
  H3       1.0000 0.93610  0.74870  0.94750  Biso   1.000  H
  Zn4      1.0000 0.25444  0.50630  0.52686  Biso   1.000  Zn
  Zn5      1.0000 0.29371  0.91851  0.01945  Biso   1.000  Zn
  Zn6      1.0000 0.63753  0.88801  0.62594  Biso   1.000  Zn
  P5       1.0000 0.09545  0.43354  0.35125  Biso   1.000  P
  P6       1.0000 0.58504  0.86451  0.86397  Biso   1.000  P
  P7       1.0000 0.01682  0.20815  0.92286  Biso   1.000  P
  P8       1.0000 0.41898  0.78277  0.47994  Biso   1.000  P
  O17      1.0000 0.18660  0.52330  0.39680  Biso   1.000  O
  O18      1.0000 0.90790  0.50210  0.36460  Biso   1.000  O
  O19      1.0000 0.28970  0.70350  0.52995  Biso   1.000  O
  O20      1.0000 0.56520  0.67000  0.43030  Biso   1.000  O
  O21      1.0000 0.47220  0.79840  0.93957  Biso   1.000  O
  O22      1.0000 0.16700  0.06980  0.92350  Biso   1.000  O
  O23      1.0000 0.59730  0.01820  0.88383  Biso   1.000  O
  O24      1.0000 0.86010  0.17890  0.89727  Biso   1.000  O
  O25      1.0000 0.46940  0.85620  0.55782  Biso   1.000  O
  O26      1.0000 0.15070  0.26380  0.38710  Biso   1.000  O
  O27      1.0000 0.33490  0.90850  0.39853  Biso   1.000  O
  O28      1.0000 0.53010  0.87580  0.76071  Biso   1.000  O
  O29      1.0000 0.14300  0.45640  0.23789  Biso   1.000  O
  H4       1.0000 0.07190  0.52830  0.21150  Biso   1.000  H
  O30      1.0000 0.76830  0.75310  0.86990  Biso   1.000  O
  H5       1.0000 0.78290  0.68940  0.83230  Biso   1.000  H
  O31      1.0000 0.05870  0.33310  0.84880  Biso   1.000  O
  O32      1.0000 0.97670  0.26040  0.02800  Biso   1.000  O
  H6       1.0000 0.06390  0.25130  0.05250  Biso   1.000  H
