data_image0
_cell_length_a       13.0366
_cell_length_b       13.0366
_cell_length_c       16.24
_cell_angle_alpha    109.539
_cell_angle_beta     109.539
_cell_angle_gamma    95.4748

_symmetry_space_group_name_H-M    P 1
_symmetry_int_tables_number       1

loop_
  _symmetry_equiv_pos_as_xyz
  'x, y, z'

loop_
  _atom_site_label
  _atom_site_occupancy
  _atom_site_fract_x
  _atom_site_fract_y
  _atom_site_fract_z
  _atom_site_thermal_displace_type
  _atom_site_B_iso_or_equiv
  _atom_site_type_symbol
  Cd1      1.0000 0.62115  0.37885  0.25000  Biso   1.000  Cd
  Cd2      1.0000 0.37885  0.62115  0.75000  Biso   1.000  Cd
  H1       1.0000 0.43140  0.44440  0.32790  Biso   1.000  H
  H2       1.0000 0.73010  0.63210  0.41660  Biso   1.000  H
  H3       1.0000 0.37940  0.58760  0.42340  Biso   1.000  H
  H4       1.0000 0.68440  0.78200  0.51230  Biso   1.000  H
  H5       1.0000 0.54450  0.21730  0.02900  Biso   1.000  H
  H6       1.0000 0.84300  0.31280  0.22280  Biso   1.000  H
  H7       1.0000 0.61260  0.12400  0.92000  Biso   1.000  H
  H8       1.0000 0.91860  0.22260  0.12200  Biso   1.000  H
  H9       1.0000 0.75550  0.04250  0.87780  Biso   1.000  H
  H10      1.0000 0.84110  0.15430  0.90850  Biso   1.000  H
  H11      1.0000 0.41540  0.76840  0.53430  Biso   1.000  H
  H12      1.0000 0.54410  0.81590  0.60900  Biso   1.000  H
  H13      1.0000 0.55560  0.56860  0.17210  Biso   1.000  H
  H14      1.0000 0.36790  0.26990  0.08340  Biso   1.000  H
  H15      1.0000 0.41240  0.62060  0.07660  Biso   1.000  H
  H16      1.0000 0.21800  0.31560  0.98770  Biso   1.000  H
  H17      1.0000 0.78270  0.45550  0.47100  Biso   1.000  H
  H18      1.0000 0.68720  0.15700  0.27720  Biso   1.000  H
  H19      1.0000 0.87600  0.38740  0.58000  Biso   1.000  H
  H20      1.0000 0.77740  0.08140  0.37800  Biso   1.000  H
  H21      1.0000 0.95750  0.24450  0.62220  Biso   1.000  H
  H22      1.0000 0.84570  0.15890  0.59150  Biso   1.000  H
  H23      1.0000 0.23160  0.58460  0.96570  Biso   1.000  H
  H24      1.0000 0.18410  0.45590  0.89100  Biso   1.000  H
  H25      1.0000 0.56860  0.55560  0.67210  Biso   1.000  H
  H26      1.0000 0.26990  0.36790  0.58340  Biso   1.000  H
  H27      1.0000 0.62060  0.41240  0.57660  Biso   1.000  H
  H28      1.0000 0.31560  0.21800  0.48770  Biso   1.000  H
  H29      1.0000 0.45550  0.78270  0.97100  Biso   1.000  H
  H30      1.0000 0.15700  0.68720  0.77720  Biso   1.000  H
  H31      1.0000 0.38740  0.87600  0.08000  Biso   1.000  H
  H32      1.0000 0.08140  0.77740  0.87800  Biso   1.000  H
  H33      1.0000 0.24450  0.95750  0.12220  Biso   1.000  H
  H34      1.0000 0.15890  0.84570  0.09150  Biso   1.000  H
  H35      1.0000 0.58460  0.23160  0.46570  Biso   1.000  H
  H36      1.0000 0.45590  0.18410  0.39100  Biso   1.000  H
  H37      1.0000 0.44440  0.43140  0.82790  Biso   1.000  H
  H38      1.0000 0.63210  0.73010  0.91660  Biso   1.000  H
  H39      1.0000 0.58760  0.37940  0.92340  Biso   1.000  H
  H40      1.0000 0.78200  0.68440  0.01230  Biso   1.000  H
  H41      1.0000 0.21730  0.54450  0.52900  Biso   1.000  H
  H42      1.0000 0.31280  0.84300  0.72280  Biso   1.000  H
  H43      1.0000 0.12400  0.61260  0.42000  Biso   1.000  H
  H44      1.0000 0.22260  0.91860  0.62200  Biso   1.000  H
  H45      1.0000 0.04250  0.75550  0.37780  Biso   1.000  H
  H46      1.0000 0.15430  0.84110  0.40850  Biso   1.000  H
  H47      1.0000 0.76840  0.41540  0.03430  Biso   1.000  H
  H48      1.0000 0.81590  0.54410  0.10900  Biso   1.000  H
  C1       1.0000 0.62284  0.22014  0.04733  Biso   1.000  C
  C2       1.0000 0.79791  0.27511  0.16365  Biso   1.000  C
  C3       1.0000 0.66100  0.16280  0.97976  Biso   1.000  C
  C4       1.0000 0.84262  0.21970  0.10023  Biso   1.000  C
  C5       1.0000 0.77336  0.16192  0.00538  Biso   1.000  C
  C6       1.0000 0.81521  0.10067  0.93027  Biso   1.000  C
  C7       1.0000 0.91044  0.04954  0.96633  Biso   1.000  C
  C8       1.0000 0.89203  0.94637  0.97252  Biso   1.000  C
  C9       1.0000 0.97860  0.89836  0.00426  Biso   1.000  C
  C10      1.0000 0.48440  0.51400  0.36650  Biso   1.000  C
  C11      1.0000 0.65730  0.62250  0.41740  Biso   1.000  C
  C12      1.0000 0.45200  0.59960  0.42280  Biso   1.000  C
  C13      1.0000 0.63040  0.71300  0.47500  Biso   1.000  C
  C14      1.0000 0.52619  0.70227  0.47782  Biso   1.000  C
  C15      1.0000 0.49484  0.79722  0.54211  Biso   1.000  C
  C16      1.0000 0.49953  0.90123  0.52006  Biso   1.000  C
  C17      1.0000 0.41575  0.90749  0.44398  Biso   1.000  C
  C18      1.0000 0.41484  0.00292  0.42453  Biso   1.000  C
  C19      1.0000 0.77986  0.37716  0.45267  Biso   1.000  C
  C20      1.0000 0.72489  0.20209  0.33635  Biso   1.000  C
  C21      1.0000 0.83720  0.33900  0.52024  Biso   1.000  C
  C22      1.0000 0.78030  0.15738  0.39977  Biso   1.000  C
  C23      1.0000 0.83808  0.22664  0.49462  Biso   1.000  C
  C24      1.0000 0.89933  0.18479  0.56973  Biso   1.000  C
  C25      1.0000 0.95046  0.08956  0.53367  Biso   1.000  C
  C26      1.0000 0.05363  0.10797  0.52748  Biso   1.000  C
  C27      1.0000 0.10164  0.02140  0.49574  Biso   1.000  C
  C28      1.0000 0.48600  0.51560  0.13350  Biso   1.000  C
  C29      1.0000 0.37750  0.34270  0.08260  Biso   1.000  C
  C30      1.0000 0.40040  0.54800  0.07720  Biso   1.000  C
  C31      1.0000 0.28700  0.36960  0.02500  Biso   1.000  C
  C32      1.0000 0.29773  0.47381  0.02218  Biso   1.000  C
  C33      1.0000 0.20278  0.50516  0.95789  Biso   1.000  C
  C34      1.0000 0.09877  0.50047  0.97994  Biso   1.000  C
  C35      1.0000 0.09251  0.58425  0.05602  Biso   1.000  C
  C36      1.0000 0.99708  0.58516  0.07547  Biso   1.000  C
  C37      1.0000 0.37716  0.77986  0.95267  Biso   1.000  C
  C38      1.0000 0.20209  0.72489  0.83635  Biso   1.000  C
  C39      1.0000 0.33900  0.83720  0.02024  Biso   1.000  C
  C40      1.0000 0.15738  0.78030  0.89977  Biso   1.000  C
  C41      1.0000 0.22664  0.83808  0.99462  Biso   1.000  C
  C42      1.0000 0.18479  0.89933  0.06973  Biso   1.000  C
  C43      1.0000 0.08956  0.95046  0.03367  Biso   1.000  C
  C44      1.0000 0.10797  0.05363  0.02748  Biso   1.000  C
  C45      1.0000 0.02140  0.10164  0.99574  Biso   1.000  C
  C46      1.0000 0.51560  0.48600  0.63350  Biso   1.000  C
  C47      1.0000 0.34270  0.37750  0.58260  Biso   1.000  C
  C48      1.0000 0.54800  0.40040  0.57720  Biso   1.000  C
  C49      1.0000 0.36960  0.28700  0.52500  Biso   1.000  C
  C50      1.0000 0.47381  0.29773  0.52218  Biso   1.000  C
  C51      1.0000 0.50516  0.20278  0.45789  Biso   1.000  C
  C52      1.0000 0.50047  0.09877  0.47994  Biso   1.000  C
  C53      1.0000 0.58425  0.09251  0.55602  Biso   1.000  C
  C54      1.0000 0.58516  0.99708  0.57547  Biso   1.000  C
  C55      1.0000 0.22014  0.62284  0.54733  Biso   1.000  C
  C56      1.0000 0.27511  0.79791  0.66365  Biso   1.000  C
  C57      1.0000 0.16280  0.66100  0.47976  Biso   1.000  C
  C58      1.0000 0.21970  0.84262  0.60023  Biso   1.000  C
  C59      1.0000 0.16192  0.77336  0.50538  Biso   1.000  C
  C60      1.0000 0.10067  0.81521  0.43027  Biso   1.000  C
  C61      1.0000 0.04954  0.91044  0.46633  Biso   1.000  C
  C62      1.0000 0.94637  0.89203  0.47252  Biso   1.000  C
  C63      1.0000 0.89836  0.97860  0.50426  Biso   1.000  C
  C64      1.0000 0.51400  0.48440  0.86650  Biso   1.000  C
  C65      1.0000 0.62250  0.65730  0.91740  Biso   1.000  C
  C66      1.0000 0.59960  0.45200  0.92280  Biso   1.000  C
  C67      1.0000 0.71300  0.63040  0.97500  Biso   1.000  C
  C68      1.0000 0.70227  0.52619  0.97782  Biso   1.000  C
  C69      1.0000 0.79722  0.49484  0.04211  Biso   1.000  C
  C70      1.0000 0.90123  0.49953  0.02006  Biso   1.000  C
  C71      1.0000 0.90749  0.41575  0.94398  Biso   1.000  C
  C72      1.0000 0.00292  0.41484  0.92453  Biso   1.000  C
  N1       1.0000 0.68972  0.27696  0.13901  Biso   1.000  N
  N2       1.0000 0.58616  0.52406  0.36378  Biso   1.000  N
  N3       1.0000 0.72304  0.31028  0.36099  Biso   1.000  N
  N4       1.0000 0.47594  0.41384  0.13622  Biso   1.000  N
  N5       1.0000 0.31028  0.72304  0.86099  Biso   1.000  N
  N6       1.0000 0.41384  0.47594  0.63622  Biso   1.000  N
  N7       1.0000 0.27696  0.68972  0.63901  Biso   1.000  N
  N8       1.0000 0.52406  0.58616  0.86378  Biso   1.000  N
  F1       1.0000 0.78621  0.89091  0.94602  Biso   1.000  F
  F2       1.0000 0.95403  0.79687  0.00722  Biso   1.000  F
  F3       1.0000 0.33061  0.81667  0.38616  Biso   1.000  F
  F4       1.0000 0.32894  0.00142  0.34966  Biso   1.000  F
  F5       1.0000 0.10909  0.21379  0.55398  Biso   1.000  F
  F6       1.0000 0.20313  0.04597  0.49278  Biso   1.000  F
  F7       1.0000 0.18333  0.66939  0.11384  Biso   1.000  F
  F8       1.0000 0.99858  0.67106  0.15034  Biso   1.000  F
  F9       1.0000 0.21379  0.10909  0.05398  Biso   1.000  F
  F10      1.0000 0.04597  0.20313  0.99278  Biso   1.000  F
  F11      1.0000 0.66939  0.18333  0.61384  Biso   1.000  F
  F12      1.0000 0.67106  0.99858  0.65034  Biso   1.000  F
  F13      1.0000 0.89091  0.78621  0.44602  Biso   1.000  F
  F14      1.0000 0.79687  0.95403  0.50722  Biso   1.000  F
  F15      1.0000 0.81667  0.33061  0.88616  Biso   1.000  F
  F16      1.0000 0.00142  0.32894  0.84966  Biso   1.000  F
