data_image0
_cell_length_a       13.4588
_cell_length_b       13.4588
_cell_length_c       17.1188
_cell_angle_alpha    111.335
_cell_angle_beta     111.335
_cell_angle_gamma    90.4967

_symmetry_space_group_name_H-M    P 1
_symmetry_int_tables_number       1

loop_
  _symmetry_equiv_pos_as_xyz
  'x, y, z'

loop_
  _atom_site_label
  _atom_site_occupancy
  _atom_site_fract_x
  _atom_site_fract_y
  _atom_site_fract_z
  _atom_site_thermal_displace_type
  _atom_site_B_iso_or_equiv
  _atom_site_type_symbol
  Cd1      1.0000 0.62538  0.37462  0.25000  Biso   1.000  Cd
  Cd2      1.0000 0.37462  0.62538  0.75000  Biso   1.000  Cd
  H1       1.0000 0.51640  0.15420  0.05640  Biso   1.000  H
  H2       1.0000 0.82150  0.32230  0.18680  Biso   1.000  H
  H3       1.0000 0.57640  0.01620  0.95390  Biso   1.000  H
  H4       1.0000 0.88060  0.19380  0.08740  Biso   1.000  H
  H5       1.0000 0.72960  0.93800  0.93200  Biso   1.000  H
  H6       1.0000 0.73240  0.00340  0.88700  Biso   1.000  H
  H7       1.0000 0.62690  0.48890  0.45230  Biso   1.000  H
  H8       1.0000 0.58850  0.61110  0.27520  Biso   1.000  H
  H9       1.0000 0.64020  0.66280  0.56290  Biso   1.000  H
  H10      1.0000 0.60640  0.78320  0.38100  Biso   1.000  H
  H11      1.0000 0.62740  0.84640  0.60680  Biso   1.000  H
  H12      1.0000 0.71300  0.88940  0.58020  Biso   1.000  H
  H13      1.0000 0.84580  0.48360  0.44360  Biso   1.000  H
  H14      1.0000 0.67770  0.17850  0.31320  Biso   1.000  H
  H15      1.0000 0.98380  0.42360  0.54610  Biso   1.000  H
  H16      1.0000 0.80620  0.11940  0.41260  Biso   1.000  H
  H17      1.0000 0.06200  0.27040  0.56800  Biso   1.000  H
  H18      1.0000 0.99660  0.26760  0.61300  Biso   1.000  H
  H19      1.0000 0.51110  0.37310  0.04770  Biso   1.000  H
  H20      1.0000 0.38890  0.41150  0.22480  Biso   1.000  H
  H21      1.0000 0.33720  0.35980  0.93710  Biso   1.000  H
  H22      1.0000 0.21680  0.39360  0.11900  Biso   1.000  H
  H23      1.0000 0.15360  0.37260  0.89320  Biso   1.000  H
  H24      1.0000 0.11060  0.28700  0.91980  Biso   1.000  H
  H25      1.0000 0.48360  0.84580  0.94360  Biso   1.000  H
  H26      1.0000 0.17850  0.67770  0.81320  Biso   1.000  H
  H27      1.0000 0.42360  0.98380  0.04610  Biso   1.000  H
  H28      1.0000 0.11940  0.80620  0.91260  Biso   1.000  H
  H29      1.0000 0.27040  0.06200  0.06800  Biso   1.000  H
  H30      1.0000 0.26760  0.99660  0.11300  Biso   1.000  H
  H31      1.0000 0.37310  0.51110  0.54770  Biso   1.000  H
  H32      1.0000 0.41150  0.38890  0.72480  Biso   1.000  H
  H33      1.0000 0.35980  0.33720  0.43710  Biso   1.000  H
  H34      1.0000 0.39360  0.21680  0.61900  Biso   1.000  H
  H35      1.0000 0.37260  0.15360  0.39320  Biso   1.000  H
  H36      1.0000 0.28700  0.11060  0.41980  Biso   1.000  H
  H37      1.0000 0.15420  0.51640  0.55640  Biso   1.000  H
  H38      1.0000 0.32230  0.82150  0.68680  Biso   1.000  H
  H39      1.0000 0.01620  0.57640  0.45390  Biso   1.000  H
  H40      1.0000 0.19380  0.88060  0.58740  Biso   1.000  H
  H41      1.0000 0.93800  0.72960  0.43200  Biso   1.000  H
  H42      1.0000 0.00340  0.73240  0.38700  Biso   1.000  H
  H43      1.0000 0.48890  0.62690  0.95230  Biso   1.000  H
  H44      1.0000 0.61110  0.58850  0.77520  Biso   1.000  H
  H45      1.0000 0.66280  0.64020  0.06290  Biso   1.000  H
  H46      1.0000 0.78320  0.60640  0.88100  Biso   1.000  H
  H47      1.0000 0.84640  0.62740  0.10680  Biso   1.000  H
  H48      1.0000 0.88940  0.71300  0.08020  Biso   1.000  H
  C1       1.0000 0.60125  0.16221  0.06583  Biso   1.000  C
  C2       1.0000 0.76999  0.25865  0.13673  Biso   1.000  C
  C3       1.0000 0.63008  0.08204  0.00407  Biso   1.000  C
  C4       1.0000 0.80544  0.18178  0.07788  Biso   1.000  C
  C5       1.0000 0.73482  0.08966  0.01063  Biso   1.000  C
  C6       1.0000 0.76631  0.00009  0.94363  Biso   1.000  C
  C7       1.0000 0.88685  0.00081  0.97255  Biso   1.000  C
  C8       1.0000 0.94274  0.95482  0.03262  Biso   1.000  C
  C9       1.0000 0.05232  0.95426  0.05887  Biso   1.000  C
  C10      1.0000 0.62130  0.55274  0.43983  Biso   1.000  C
  C11      1.0000 0.60047  0.62525  0.33516  Biso   1.000  C
  C12      1.0000 0.62860  0.65272  0.50549  Biso   1.000  C
  C13      1.0000 0.60773  0.72709  0.39701  Biso   1.000  C
  C14      1.0000 0.62520  0.74340  0.48573  Biso   1.000  C
  C15      1.0000 0.64107  0.85417  0.55932  Biso   1.000  C
  C16      1.0000 0.56849  0.92849  0.52766  Biso   1.000  C
  C17      1.0000 0.46711  0.93107  0.53067  Biso   1.000  C
  C18      1.0000 0.40174  0.00116  0.50471  Biso   1.000  C
  C19      1.0000 0.83779  0.39875  0.43417  Biso   1.000  C
  C20      1.0000 0.74135  0.23001  0.36327  Biso   1.000  C
  C21      1.0000 0.91796  0.36992  0.49593  Biso   1.000  C
  C22      1.0000 0.81822  0.19456  0.42212  Biso   1.000  C
  C23      1.0000 0.91034  0.26518  0.48937  Biso   1.000  C
  C24      1.0000 0.99991  0.23369  0.55637  Biso   1.000  C
  C25      1.0000 0.99919  0.11315  0.52745  Biso   1.000  C
  C26      1.0000 0.04518  0.05726  0.46738  Biso   1.000  C
  C27      1.0000 0.04574  0.94768  0.44113  Biso   1.000  C
  C28      1.0000 0.44726  0.37870  0.06017  Biso   1.000  C
  C29      1.0000 0.37475  0.39953  0.16484  Biso   1.000  C
  C30      1.0000 0.34728  0.37140  0.99451  Biso   1.000  C
  C31      1.0000 0.27291  0.39227  0.10299  Biso   1.000  C
  C32      1.0000 0.25660  0.37480  0.01427  Biso   1.000  C
  C33      1.0000 0.14583  0.35893  0.94068  Biso   1.000  C
  C34      1.0000 0.07151  0.43151  0.97234  Biso   1.000  C
  C35      1.0000 0.06893  0.53289  0.96933  Biso   1.000  C
  C36      1.0000 0.99884  0.59826  0.99529  Biso   1.000  C
  C37      1.0000 0.39875  0.83779  0.93417  Biso   1.000  C
  C38      1.0000 0.23001  0.74135  0.86327  Biso   1.000  C
  C39      1.0000 0.36992  0.91796  0.99593  Biso   1.000  C
  C40      1.0000 0.19456  0.81822  0.92212  Biso   1.000  C
  C41      1.0000 0.26518  0.91034  0.98937  Biso   1.000  C
  C42      1.0000 0.23369  0.99991  0.05637  Biso   1.000  C
  C43      1.0000 0.11315  0.99919  0.02745  Biso   1.000  C
  C44      1.0000 0.05726  0.04518  0.96738  Biso   1.000  C
  C45      1.0000 0.94768  0.04574  0.94113  Biso   1.000  C
  C46      1.0000 0.37870  0.44726  0.56017  Biso   1.000  C
  C47      1.0000 0.39953  0.37475  0.66484  Biso   1.000  C
  C48      1.0000 0.37140  0.34728  0.49451  Biso   1.000  C
  C49      1.0000 0.39227  0.27291  0.60299  Biso   1.000  C
  C50      1.0000 0.37480  0.25660  0.51427  Biso   1.000  C
  C51      1.0000 0.35893  0.14583  0.44068  Biso   1.000  C
  C52      1.0000 0.43151  0.07151  0.47234  Biso   1.000  C
  C53      1.0000 0.53289  0.06893  0.46933  Biso   1.000  C
  C54      1.0000 0.59826  0.99884  0.49529  Biso   1.000  C
  C55      1.0000 0.16221  0.60125  0.56583  Biso   1.000  C
  C56      1.0000 0.25865  0.76999  0.63673  Biso   1.000  C
  C57      1.0000 0.08204  0.63008  0.50407  Biso   1.000  C
  C58      1.0000 0.18178  0.80544  0.57788  Biso   1.000  C
  C59      1.0000 0.08966  0.73482  0.51063  Biso   1.000  C
  C60      1.0000 0.00009  0.76631  0.44363  Biso   1.000  C
  C61      1.0000 0.00081  0.88685  0.47255  Biso   1.000  C
  C62      1.0000 0.95482  0.94274  0.53262  Biso   1.000  C
  C63      1.0000 0.95426  0.05232  0.55887  Biso   1.000  C
  C64      1.0000 0.55274  0.62130  0.93983  Biso   1.000  C
  C65      1.0000 0.62525  0.60047  0.83516  Biso   1.000  C
  C66      1.0000 0.65272  0.62860  0.00549  Biso   1.000  C
  C67      1.0000 0.72709  0.60773  0.89701  Biso   1.000  C
  C68      1.0000 0.74340  0.62520  0.98573  Biso   1.000  C
  C69      1.0000 0.85417  0.64107  0.05932  Biso   1.000  C
  C70      1.0000 0.92849  0.56849  0.02766  Biso   1.000  C
  C71      1.0000 0.93107  0.46711  0.03067  Biso   1.000  C
  C72      1.0000 0.00116  0.40174  0.00471  Biso   1.000  C
  N1       1.0000 0.66946  0.24880  0.13252  Biso   1.000  N
  N2       1.0000 0.60914  0.53766  0.35542  Biso   1.000  N
  N3       1.0000 0.75120  0.33054  0.36748  Biso   1.000  N
  N4       1.0000 0.46234  0.39086  0.14458  Biso   1.000  N
  N5       1.0000 0.33054  0.75120  0.86748  Biso   1.000  N
  N6       1.0000 0.39086  0.46234  0.64458  Biso   1.000  N
  N7       1.0000 0.24880  0.66946  0.63252  Biso   1.000  N
  N8       1.0000 0.53766  0.60914  0.85542  Biso   1.000  N
  F1       1.0000 0.88852  0.90946  0.06675  Biso   1.000  F
  F2       1.0000 0.10069  0.91049  0.12002  Biso   1.000  F
  F3       1.0000 0.43151  0.86471  0.56110  Biso   1.000  F
  F4       1.0000 0.30496  0.00034  0.51157  Biso   1.000  F
  F5       1.0000 0.09054  0.11148  0.43325  Biso   1.000  F
  F6       1.0000 0.08951  0.89931  0.37998  Biso   1.000  F
  F7       1.0000 0.13529  0.56849  0.93890  Biso   1.000  F
  F8       1.0000 0.99966  0.69504  0.98843  Biso   1.000  F
  F9       1.0000 0.11148  0.09054  0.93325  Biso   1.000  F
  F10      1.0000 0.89931  0.08951  0.87998  Biso   1.000  F
  F11      1.0000 0.56849  0.13529  0.43890  Biso   1.000  F
  F12      1.0000 0.69504  0.99966  0.48843  Biso   1.000  F
  F13      1.0000 0.90946  0.88852  0.56675  Biso   1.000  F
  F14      1.0000 0.91049  0.10069  0.62002  Biso   1.000  F
  F15      1.0000 0.86471  0.43151  0.06110  Biso   1.000  F
  F16      1.0000 0.00034  0.30496  0.01157  Biso   1.000  F
