data_image0
_cell_length_a       12.8267
_cell_length_b       12.8267
_cell_length_c       16.69
_cell_angle_alpha    108.682
_cell_angle_beta     108.682
_cell_angle_gamma    95.9725

_symmetry_space_group_name_H-M    P 1
_symmetry_int_tables_number       1

loop_
  _symmetry_equiv_pos_as_xyz
  'x, y, z'

loop_
  _atom_site_label
  _atom_site_occupancy
  _atom_site_fract_x
  _atom_site_fract_y
  _atom_site_fract_z
  _atom_site_thermal_displace_type
  _atom_site_B_iso_or_equiv
  _atom_site_type_symbol
  Cd1      1.0000 0.62074  0.37926  0.25000  Biso   1.000  Cd
  Cd2      1.0000 0.37926  0.62074  0.75000  Biso   1.000  Cd
  H1       1.0000 0.84900  0.31060  0.22660  Biso   1.000  H
  H2       1.0000 0.54610  0.22930  0.03700  Biso   1.000  H
  H3       1.0000 0.92180  0.21880  0.12090  Biso   1.000  H
  H4       1.0000 0.60960  0.13320  0.92620  Biso   1.000  H
  H5       1.0000 0.84010  0.16010  0.91190  Biso   1.000  H
  H6       1.0000 0.75040  0.04620  0.88520  Biso   1.000  H
  H7       1.0000 0.73040  0.63180  0.40670  Biso   1.000  H
  H8       1.0000 0.43320  0.44060  0.33840  Biso   1.000  H
  H9       1.0000 0.69100  0.78000  0.50600  Biso   1.000  H
  H10      1.0000 0.38560  0.58400  0.43440  Biso   1.000  H
  H11      1.0000 0.56260  0.81680  0.60810  Biso   1.000  H
  H12      1.0000 0.43090  0.76990  0.54620  Biso   1.000  H
  H13      1.0000 0.68940  0.15100  0.27340  Biso   1.000  H
  H14      1.0000 0.77070  0.45390  0.46300  Biso   1.000  H
  H15      1.0000 0.78120  0.07820  0.37910  Biso   1.000  H
  H16      1.0000 0.86680  0.39040  0.57380  Biso   1.000  H
  H17      1.0000 0.83990  0.15990  0.58810  Biso   1.000  H
  H18      1.0000 0.95380  0.24960  0.61480  Biso   1.000  H
  H19      1.0000 0.36820  0.26960  0.09330  Biso   1.000  H
  H20      1.0000 0.55940  0.56680  0.16160  Biso   1.000  H
  H21      1.0000 0.22000  0.30900  0.99400  Biso   1.000  H
  H22      1.0000 0.41600  0.61440  0.06560  Biso   1.000  H
  H23      1.0000 0.18320  0.43740  0.89190  Biso   1.000  H
  H24      1.0000 0.23010  0.56910  0.95380  Biso   1.000  H
  H25      1.0000 0.15100  0.68940  0.77340  Biso   1.000  H
  H26      1.0000 0.45390  0.77070  0.96300  Biso   1.000  H
  H27      1.0000 0.07820  0.78120  0.87910  Biso   1.000  H
  H28      1.0000 0.39040  0.86680  0.07380  Biso   1.000  H
  H29      1.0000 0.15990  0.83990  0.08810  Biso   1.000  H
  H30      1.0000 0.24960  0.95380  0.11480  Biso   1.000  H
  H31      1.0000 0.26960  0.36820  0.59330  Biso   1.000  H
  H32      1.0000 0.56680  0.55940  0.66160  Biso   1.000  H
  H33      1.0000 0.30900  0.22000  0.49400  Biso   1.000  H
  H34      1.0000 0.61440  0.41600  0.56560  Biso   1.000  H
  H35      1.0000 0.43740  0.18320  0.39190  Biso   1.000  H
  H36      1.0000 0.56910  0.23010  0.45380  Biso   1.000  H
  H37      1.0000 0.31060  0.84900  0.72660  Biso   1.000  H
  H38      1.0000 0.22930  0.54610  0.53700  Biso   1.000  H
  H39      1.0000 0.21880  0.92180  0.62090  Biso   1.000  H
  H40      1.0000 0.13320  0.60960  0.42620  Biso   1.000  H
  H41      1.0000 0.16010  0.84010  0.41190  Biso   1.000  H
  H42      1.0000 0.04620  0.75040  0.38520  Biso   1.000  H
  H43      1.0000 0.63180  0.73040  0.90670  Biso   1.000  H
  H44      1.0000 0.44060  0.43320  0.83840  Biso   1.000  H
  H45      1.0000 0.78000  0.69100  0.00600  Biso   1.000  H
  H46      1.0000 0.58400  0.38560  0.93440  Biso   1.000  H
  H47      1.0000 0.81680  0.56260  0.10810  Biso   1.000  H
  H48      1.0000 0.76990  0.43090  0.04620  Biso   1.000  H
  C1       1.0000 0.79961  0.27445  0.16440  Biso   1.000  C
  C2       1.0000 0.62375  0.22699  0.05441  Biso   1.000  C
  C3       1.0000 0.84388  0.21964  0.10166  Biso   1.000  C
  C4       1.0000 0.66111  0.16983  0.98765  Biso   1.000  C
  C5       1.0000 0.77380  0.16584  0.01041  Biso   1.000  C
  C6       1.0000 0.81458  0.10522  0.93595  Biso   1.000  C
  C7       1.0000 0.90999  0.05083  0.96822  Biso   1.000  C
  C8       1.0000 0.02209  0.10817  0.00477  Biso   1.000  C
  C9       1.0000 0.10929  0.05891  0.03529  Biso   1.000  C
  C10      1.0000 0.65867  0.62177  0.41179  Biso   1.000  C
  C11      1.0000 0.48638  0.51134  0.37223  Biso   1.000  C
  C12      1.0000 0.63550  0.71098  0.47123  Biso   1.000  C
  C13      1.0000 0.45728  0.59652  0.42961  Biso   1.000  C
  C14      1.0000 0.53264  0.70030  0.48023  Biso   1.000  C
  C15      1.0000 0.50588  0.79642  0.54581  Biso   1.000  C
  C16      1.0000 0.50521  0.90109  0.52241  Biso   1.000  C
  C17      1.0000 0.41824  0.90376  0.44824  Biso   1.000  C
  C18      1.0000 0.41289  0.99953  0.42718  Biso   1.000  C
  C19      1.0000 0.72555  0.20039  0.33560  Biso   1.000  C
  C20      1.0000 0.77301  0.37625  0.44559  Biso   1.000  C
  C21      1.0000 0.78036  0.15612  0.39834  Biso   1.000  C
  C22      1.0000 0.83017  0.33889  0.51235  Biso   1.000  C
  C23      1.0000 0.83416  0.22620  0.48959  Biso   1.000  C
  C24      1.0000 0.89478  0.18542  0.56405  Biso   1.000  C
  C25      1.0000 0.94917  0.09001  0.53178  Biso   1.000  C
  C26      1.0000 0.89183  0.97791  0.49523  Biso   1.000  C
  C27      1.0000 0.94109  0.89071  0.46471  Biso   1.000  C
  C28      1.0000 0.37823  0.34133  0.08821  Biso   1.000  C
  C29      1.0000 0.48866  0.51362  0.12777  Biso   1.000  C
  C30      1.0000 0.28902  0.36450  0.02877  Biso   1.000  C
  C31      1.0000 0.40348  0.54272  0.07039  Biso   1.000  C
  C32      1.0000 0.29970  0.46736  0.01977  Biso   1.000  C
  C33      1.0000 0.20358  0.49412  0.95419  Biso   1.000  C
  C34      1.0000 0.09891  0.49479  0.97759  Biso   1.000  C
  C35      1.0000 0.09624  0.58176  0.05176  Biso   1.000  C
  C36      1.0000 0.00047  0.58711  0.07282  Biso   1.000  C
  C37      1.0000 0.20039  0.72555  0.83560  Biso   1.000  C
  C38      1.0000 0.37625  0.77301  0.94559  Biso   1.000  C
  C39      1.0000 0.15612  0.78036  0.89834  Biso   1.000  C
  C40      1.0000 0.33889  0.83017  0.01235  Biso   1.000  C
  C41      1.0000 0.22620  0.83416  0.98959  Biso   1.000  C
  C42      1.0000 0.18542  0.89478  0.06405  Biso   1.000  C
  C43      1.0000 0.09001  0.94917  0.03178  Biso   1.000  C
  C44      1.0000 0.97791  0.89183  0.99523  Biso   1.000  C
  C45      1.0000 0.89071  0.94109  0.96471  Biso   1.000  C
  C46      1.0000 0.34133  0.37823  0.58821  Biso   1.000  C
  C47      1.0000 0.51362  0.48866  0.62777  Biso   1.000  C
  C48      1.0000 0.36450  0.28902  0.52877  Biso   1.000  C
  C49      1.0000 0.54272  0.40348  0.57039  Biso   1.000  C
  C50      1.0000 0.46736  0.29970  0.51977  Biso   1.000  C
  C51      1.0000 0.49412  0.20358  0.45419  Biso   1.000  C
  C52      1.0000 0.49479  0.09891  0.47759  Biso   1.000  C
  C53      1.0000 0.58176  0.09624  0.55176  Biso   1.000  C
  C54      1.0000 0.58711  0.00047  0.57282  Biso   1.000  C
  C55      1.0000 0.27445  0.79961  0.66440  Biso   1.000  C
  C56      1.0000 0.22699  0.62375  0.55441  Biso   1.000  C
  C57      1.0000 0.21964  0.84388  0.60166  Biso   1.000  C
  C58      1.0000 0.16983  0.66111  0.48765  Biso   1.000  C
  C59      1.0000 0.16584  0.77380  0.51041  Biso   1.000  C
  C60      1.0000 0.10522  0.81458  0.43595  Biso   1.000  C
  C61      1.0000 0.05083  0.90999  0.46822  Biso   1.000  C
  C62      1.0000 0.10817  0.02209  0.50477  Biso   1.000  C
  C63      1.0000 0.05891  0.10929  0.53529  Biso   1.000  C
  C64      1.0000 0.62177  0.65867  0.91179  Biso   1.000  C
  C65      1.0000 0.51134  0.48638  0.87223  Biso   1.000  C
  C66      1.0000 0.71098  0.63550  0.97123  Biso   1.000  C
  C67      1.0000 0.59652  0.45728  0.92961  Biso   1.000  C
  C68      1.0000 0.70030  0.53264  0.98023  Biso   1.000  C
  C69      1.0000 0.79642  0.50588  0.04581  Biso   1.000  C
  C70      1.0000 0.90109  0.50521  0.02241  Biso   1.000  C
  C71      1.0000 0.90376  0.41824  0.94824  Biso   1.000  C
  C72      1.0000 0.99953  0.41289  0.92718  Biso   1.000  C
  N1       1.0000 0.69102  0.27924  0.14229  Biso   1.000  N
  N2       1.0000 0.58534  0.52248  0.36134  Biso   1.000  N
  N3       1.0000 0.72076  0.30898  0.35771  Biso   1.000  N
  N4       1.0000 0.47752  0.41466  0.13866  Biso   1.000  N
  N5       1.0000 0.30898  0.72076  0.85771  Biso   1.000  N
  N6       1.0000 0.41466  0.47752  0.63866  Biso   1.000  N
  N7       1.0000 0.27924  0.69102  0.64229  Biso   1.000  N
  N8       1.0000 0.52248  0.58534  0.86134  Biso   1.000  N
  F1       1.0000 0.04719  0.21601  0.01111  Biso   1.000  F
  F2       1.0000 0.21686  0.11996  0.06975  Biso   1.000  F
  F3       1.0000 0.33596  0.80914  0.39440  Biso   1.000  F
  F4       1.0000 0.32404  0.99300  0.35384  Biso   1.000  F
  F5       1.0000 0.78399  0.95281  0.48889  Biso   1.000  F
  F6       1.0000 0.88004  0.78314  0.43025  Biso   1.000  F
  F7       1.0000 0.19086  0.66404  0.10560  Biso   1.000  F
  F8       1.0000 0.00700  0.67596  0.14616  Biso   1.000  F
  F9       1.0000 0.95281  0.78399  0.98889  Biso   1.000  F
  F10      1.0000 0.78314  0.88004  0.93025  Biso   1.000  F
  F11      1.0000 0.66404  0.19086  0.60560  Biso   1.000  F
  F12      1.0000 0.67596  0.00700  0.64616  Biso   1.000  F
  F13      1.0000 0.21601  0.04719  0.51111  Biso   1.000  F
  F14      1.0000 0.11996  0.21686  0.56975  Biso   1.000  F
  F15      1.0000 0.80914  0.33596  0.89440  Biso   1.000  F
  F16      1.0000 0.99300  0.32404  0.85384  Biso   1.000  F
