data_image0
_cell_length_a       11.5312
_cell_length_b       14.8219
_cell_length_c       14.8219
_cell_angle_alpha    90
_cell_angle_beta     90
_cell_angle_gamma    90

_symmetry_space_group_name_H-M    P 1
_symmetry_int_tables_number       1

loop_
  _symmetry_equiv_pos_as_xyz
  'x, y, z'

loop_
  _atom_site_label
  _atom_site_occupancy
  _atom_site_fract_x
  _atom_site_fract_y
  _atom_site_fract_z
  _atom_site_thermal_displace_type
  _atom_site_B_iso_or_equiv
  _atom_site_type_symbol
  Zn1      1.0000 0.75000  0.88747  0.11253  Biso   1.000  Zn
  Zn2      1.0000 0.25000  0.11253  0.88747  Biso   1.000  Zn
  Zn3      1.0000 0.50000  0.38747  0.38747  Biso   1.000  Zn
  Zn4      1.0000 0.00000  0.61253  0.61253  Biso   1.000  Zn
  H1       1.0000 0.43860  0.36650  0.08940  Biso   1.000  H
  H2       1.0000 0.55840  0.40770  0.05370  Biso   1.000  H
  H3       1.0000 0.54630  0.30130  0.06980  Biso   1.000  H
  H4       1.0000 0.88850  0.31130  0.29100  Biso   1.000  H
  H5       1.0000 0.90210  0.41650  0.26910  Biso   1.000  H
  H6       1.0000 0.88180  0.38380  0.37080  Biso   1.000  H
  H7       1.0000 0.65230  0.20000  0.21840  Biso   1.000  H
  H8       1.0000 0.65380  0.04470  0.21240  Biso   1.000  H
  H9       1.0000 0.89180  0.04510  0.02270  Biso   1.000  H
  H10      1.0000 0.89960  0.20080  0.02340  Biso   1.000  H
  H11      1.0000 0.93860  0.63350  0.91060  Biso   1.000  H
  H12      1.0000 0.05840  0.59230  0.94630  Biso   1.000  H
  H13      1.0000 0.04630  0.69870  0.93020  Biso   1.000  H
  H14      1.0000 0.38850  0.68870  0.70900  Biso   1.000  H
  H15      1.0000 0.40210  0.58350  0.73090  Biso   1.000  H
  H16      1.0000 0.38180  0.61620  0.62920  Biso   1.000  H
  H17      1.0000 0.15230  0.80000  0.78160  Biso   1.000  H
  H18      1.0000 0.15380  0.95530  0.78760  Biso   1.000  H
  H19      1.0000 0.39180  0.95490  0.97730  Biso   1.000  H
  H20      1.0000 0.39960  0.79920  0.97660  Biso   1.000  H
  H21      1.0000 0.18860  0.41060  0.86650  Biso   1.000  H
  H22      1.0000 0.30840  0.44630  0.90770  Biso   1.000  H
  H23      1.0000 0.29630  0.43020  0.80130  Biso   1.000  H
  H24      1.0000 0.63850  0.20900  0.81130  Biso   1.000  H
  H25      1.0000 0.65210  0.23090  0.91650  Biso   1.000  H
  H26      1.0000 0.63180  0.12920  0.88380  Biso   1.000  H
  H27      1.0000 0.40230  0.28160  0.70000  Biso   1.000  H
  H28      1.0000 0.40380  0.28760  0.54470  Biso   1.000  H
  H29      1.0000 0.64180  0.47730  0.54510  Biso   1.000  H
  H30      1.0000 0.64960  0.47660  0.70080  Biso   1.000  H
  H31      1.0000 0.68860  0.58940  0.13350  Biso   1.000  H
  H32      1.0000 0.80840  0.55370  0.09230  Biso   1.000  H
  H33      1.0000 0.79630  0.56980  0.19870  Biso   1.000  H
  H34      1.0000 0.13850  0.79100  0.18870  Biso   1.000  H
  H35      1.0000 0.15210  0.76910  0.08350  Biso   1.000  H
  H36      1.0000 0.13180  0.87080  0.11620  Biso   1.000  H
  H37      1.0000 0.90230  0.71840  0.30000  Biso   1.000  H
  H38      1.0000 0.90380  0.71240  0.45530  Biso   1.000  H
  H39      1.0000 0.14180  0.52270  0.45490  Biso   1.000  H
  H40      1.0000 0.14960  0.52340  0.29920  Biso   1.000  H
  H41      1.0000 0.31140  0.13350  0.58940  Biso   1.000  H
  H42      1.0000 0.19160  0.09230  0.55370  Biso   1.000  H
  H43      1.0000 0.20370  0.19870  0.56980  Biso   1.000  H
  H44      1.0000 0.86150  0.18870  0.79100  Biso   1.000  H
  H45      1.0000 0.84790  0.08350  0.76910  Biso   1.000  H
  H46      1.0000 0.86820  0.11620  0.87080  Biso   1.000  H
  H47      1.0000 0.09770  0.30000  0.71840  Biso   1.000  H
  H48      1.0000 0.09620  0.45530  0.71240  Biso   1.000  H
  H49      1.0000 0.85820  0.45490  0.52270  Biso   1.000  H
  H50      1.0000 0.85040  0.29920  0.52340  Biso   1.000  H
  H51      1.0000 0.81140  0.86650  0.41060  Biso   1.000  H
  H52      1.0000 0.69160  0.90770  0.44630  Biso   1.000  H
  H53      1.0000 0.70370  0.80130  0.43020  Biso   1.000  H
  H54      1.0000 0.36150  0.81130  0.20900  Biso   1.000  H
  H55      1.0000 0.34790  0.91650  0.23090  Biso   1.000  H
  H56      1.0000 0.36820  0.88380  0.12920  Biso   1.000  H
  H57      1.0000 0.59770  0.70000  0.28160  Biso   1.000  H
  H58      1.0000 0.59620  0.54470  0.28760  Biso   1.000  H
  H59      1.0000 0.35820  0.54510  0.47730  Biso   1.000  H
  H60      1.0000 0.35040  0.70080  0.47660  Biso   1.000  H
  H61      1.0000 0.56140  0.08940  0.36650  Biso   1.000  H
  H62      1.0000 0.44160  0.05370  0.40770  Biso   1.000  H
  H63      1.0000 0.45370  0.06980  0.30130  Biso   1.000  H
  H64      1.0000 0.11150  0.29100  0.31130  Biso   1.000  H
  H65      1.0000 0.09790  0.26910  0.41650  Biso   1.000  H
  H66      1.0000 0.11820  0.37080  0.38380  Biso   1.000  H
  H67      1.0000 0.34770  0.21840  0.20000  Biso   1.000  H
  H68      1.0000 0.34620  0.21240  0.04470  Biso   1.000  H
  H69      1.0000 0.10820  0.02270  0.04510  Biso   1.000  H
  H70      1.0000 0.10040  0.02340  0.20080  Biso   1.000  H
  H71      1.0000 0.06140  0.91060  0.63350  Biso   1.000  H
  H72      1.0000 0.94160  0.94630  0.59230  Biso   1.000  H
  H73      1.0000 0.95370  0.93020  0.69870  Biso   1.000  H
  H74      1.0000 0.61150  0.70900  0.68870  Biso   1.000  H
  H75      1.0000 0.59790  0.73090  0.58350  Biso   1.000  H
  H76      1.0000 0.61820  0.62920  0.61620  Biso   1.000  H
  H77      1.0000 0.84770  0.78160  0.80000  Biso   1.000  H
  H78      1.0000 0.84620  0.78760  0.95530  Biso   1.000  H
  H79      1.0000 0.60820  0.97730  0.95490  Biso   1.000  H
  H80      1.0000 0.60040  0.97660  0.79920  Biso   1.000  H
  C1       1.0000 0.52320  0.36110  0.09177  Biso   1.000  C
  C2       1.0000 0.56380  0.37273  0.18785  Biso   1.000  C
  C3       1.0000 0.68530  0.36623  0.20717  Biso   1.000  C
  C4       1.0000 0.73420  0.37948  0.29427  Biso   1.000  C
  C5       1.0000 0.86280  0.37210  0.30740  Biso   1.000  C
  C6       1.0000 0.77660  0.21838  0.12105  Biso   1.000  C
  C7       1.0000 0.70230  0.16966  0.17752  Biso   1.000  C
  C8       1.0000 0.70310  0.07722  0.17270  Biso   1.000  C
  C9       1.0000 0.84200  0.07732  0.06228  Biso   1.000  C
  C10      1.0000 0.84770  0.17008  0.06263  Biso   1.000  C
  C11      1.0000 0.02320  0.63890  0.90823  Biso   1.000  C
  C12      1.0000 0.06380  0.62727  0.81215  Biso   1.000  C
  C13      1.0000 0.18530  0.63377  0.79283  Biso   1.000  C
  C14      1.0000 0.23420  0.62052  0.70573  Biso   1.000  C
  C15      1.0000 0.36280  0.62790  0.69260  Biso   1.000  C
  C16      1.0000 0.27660  0.78162  0.87895  Biso   1.000  C
  C17      1.0000 0.20230  0.83034  0.82248  Biso   1.000  C
  C18      1.0000 0.20310  0.92278  0.82730  Biso   1.000  C
  C19      1.0000 0.34200  0.92268  0.93772  Biso   1.000  C
  C20      1.0000 0.34770  0.82992  0.93737  Biso   1.000  C
  C21      1.0000 0.27320  0.40823  0.86110  Biso   1.000  C
  C22      1.0000 0.31380  0.31215  0.87273  Biso   1.000  C
  C23      1.0000 0.43530  0.29283  0.86623  Biso   1.000  C
  C24      1.0000 0.48420  0.20573  0.87948  Biso   1.000  C
  C25      1.0000 0.61280  0.19260  0.87210  Biso   1.000  C
  C26      1.0000 0.52660  0.37895  0.71838  Biso   1.000  C
  C27      1.0000 0.45230  0.32248  0.66966  Biso   1.000  C
  C28      1.0000 0.45310  0.32730  0.57722  Biso   1.000  C
  C29      1.0000 0.59200  0.43772  0.57732  Biso   1.000  C
  C30      1.0000 0.59770  0.43737  0.67008  Biso   1.000  C
  C31      1.0000 0.77320  0.59177  0.13890  Biso   1.000  C
  C32      1.0000 0.81380  0.68785  0.12727  Biso   1.000  C
  C33      1.0000 0.93530  0.70717  0.13377  Biso   1.000  C
  C34      1.0000 0.98420  0.79427  0.12052  Biso   1.000  C
  C35      1.0000 0.11280  0.80740  0.12790  Biso   1.000  C
  C36      1.0000 0.02660  0.62105  0.28162  Biso   1.000  C
  C37      1.0000 0.95230  0.67752  0.33034  Biso   1.000  C
  C38      1.0000 0.95310  0.67270  0.42278  Biso   1.000  C
  C39      1.0000 0.09200  0.56228  0.42268  Biso   1.000  C
  C40      1.0000 0.09770  0.56263  0.32992  Biso   1.000  C
  C41      1.0000 0.22680  0.13890  0.59177  Biso   1.000  C
  C42      1.0000 0.18620  0.12727  0.68785  Biso   1.000  C
  C43      1.0000 0.06470  0.13377  0.70717  Biso   1.000  C
  C44      1.0000 0.01580  0.12052  0.79427  Biso   1.000  C
  C45      1.0000 0.88720  0.12790  0.80740  Biso   1.000  C
  C46      1.0000 0.97340  0.28162  0.62105  Biso   1.000  C
  C47      1.0000 0.04770  0.33034  0.67752  Biso   1.000  C
  C48      1.0000 0.04690  0.42278  0.67270  Biso   1.000  C
  C49      1.0000 0.90800  0.42268  0.56228  Biso   1.000  C
  C50      1.0000 0.90230  0.32992  0.56263  Biso   1.000  C
  C51      1.0000 0.72680  0.86110  0.40823  Biso   1.000  C
  C52      1.0000 0.68620  0.87273  0.31215  Biso   1.000  C
  C53      1.0000 0.56470  0.86623  0.29283  Biso   1.000  C
  C54      1.0000 0.51580  0.87948  0.20573  Biso   1.000  C
  C55      1.0000 0.38720  0.87210  0.19260  Biso   1.000  C
  C56      1.0000 0.47340  0.71838  0.37895  Biso   1.000  C
  C57      1.0000 0.54770  0.66966  0.32248  Biso   1.000  C
  C58      1.0000 0.54690  0.57722  0.32730  Biso   1.000  C
  C59      1.0000 0.40800  0.57732  0.43772  Biso   1.000  C
  C60      1.0000 0.40230  0.67008  0.43737  Biso   1.000  C
  C61      1.0000 0.47680  0.09177  0.36110  Biso   1.000  C
  C62      1.0000 0.43620  0.18785  0.37273  Biso   1.000  C
  C63      1.0000 0.31470  0.20717  0.36623  Biso   1.000  C
  C64      1.0000 0.26580  0.29427  0.37948  Biso   1.000  C
  C65      1.0000 0.13720  0.30740  0.37210  Biso   1.000  C
  C66      1.0000 0.22340  0.12105  0.21838  Biso   1.000  C
  C67      1.0000 0.29770  0.17752  0.16966  Biso   1.000  C
  C68      1.0000 0.29690  0.17270  0.07722  Biso   1.000  C
  C69      1.0000 0.15800  0.06228  0.07732  Biso   1.000  C
  C70      1.0000 0.15230  0.06263  0.17008  Biso   1.000  C
  C71      1.0000 0.97680  0.90823  0.63890  Biso   1.000  C
  C72      1.0000 0.93620  0.81215  0.62727  Biso   1.000  C
  C73      1.0000 0.81470  0.79283  0.63377  Biso   1.000  C
  C74      1.0000 0.76580  0.70573  0.62052  Biso   1.000  C
  C75      1.0000 0.63720  0.69260  0.62790  Biso   1.000  C
  C76      1.0000 0.72340  0.87895  0.78162  Biso   1.000  C
  C77      1.0000 0.79770  0.82248  0.83034  Biso   1.000  C
  C78      1.0000 0.79690  0.82730  0.92278  Biso   1.000  C
  C79      1.0000 0.65800  0.93772  0.92268  Biso   1.000  C
  C80      1.0000 0.65230  0.93737  0.82992  Biso   1.000  C
  S1       1.0000 0.77979  0.33706  0.11858  Biso   1.000  S
  S2       1.0000 0.27979  0.66294  0.88142  Biso   1.000  S
  S3       1.0000 0.52979  0.38142  0.83706  Biso   1.000  S
  S4       1.0000 0.02979  0.61858  0.16294  Biso   1.000  S
  S5       1.0000 0.97021  0.16294  0.61858  Biso   1.000  S
  S6       1.0000 0.47021  0.83706  0.38142  Biso   1.000  S
  S7       1.0000 0.22021  0.11858  0.33706  Biso   1.000  S
  S8       1.0000 0.72021  0.88142  0.66294  Biso   1.000  S
  N1       1.0000 0.76940  0.03001  0.11523  Biso   1.000  N
  N2       1.0000 0.26940  0.96999  0.88477  Biso   1.000  N
  N3       1.0000 0.51940  0.38477  0.53001  Biso   1.000  N
  N4       1.0000 0.01940  0.61523  0.46999  Biso   1.000  N
  N5       1.0000 0.98060  0.46999  0.61523  Biso   1.000  N
  N6       1.0000 0.48060  0.53001  0.38477  Biso   1.000  N
  N7       1.0000 0.23060  0.11523  0.03001  Biso   1.000  N
  N8       1.0000 0.73060  0.88477  0.96999  Biso   1.000  N
  O1       1.0000 0.48713  0.38701  0.24605  Biso   1.000  O
  O2       1.0000 0.67603  0.39733  0.36487  Biso   1.000  O
  O3       1.0000 0.98713  0.61299  0.75395  Biso   1.000  O
  O4       1.0000 0.17603  0.60267  0.63513  Biso   1.000  O
  O5       1.0000 0.23713  0.25395  0.88701  Biso   1.000  O
  O6       1.0000 0.42603  0.13513  0.89733  Biso   1.000  O
  O7       1.0000 0.73713  0.74605  0.11299  Biso   1.000  O
  O8       1.0000 0.92603  0.86487  0.10267  Biso   1.000  O
  O9       1.0000 0.26287  0.11299  0.74605  Biso   1.000  O
  O10      1.0000 0.07397  0.10267  0.86487  Biso   1.000  O
  O11      1.0000 0.76287  0.88701  0.25395  Biso   1.000  O
  O12      1.0000 0.57397  0.89733  0.13513  Biso   1.000  O
  O13      1.0000 0.51287  0.24605  0.38701  Biso   1.000  O
  O14      1.0000 0.32397  0.36487  0.39733  Biso   1.000  O
  O15      1.0000 0.01287  0.75395  0.61299  Biso   1.000  O
  O16      1.0000 0.82397  0.63513  0.60267  Biso   1.000  O
