data_image0
_cell_length_a       12.0239
_cell_length_b       13.482
_cell_length_c       14.0414
_cell_angle_alpha    70.491
_cell_angle_beta     77.141
_cell_angle_gamma    89.312

_symmetry_space_group_name_H-M    P 1
_symmetry_int_tables_number       1

loop_
  _symmetry_equiv_pos_as_xyz
  'x, y, z'

loop_
  _atom_site_label
  _atom_site_occupancy
  _atom_site_fract_x
  _atom_site_fract_y
  _atom_site_fract_z
  _atom_site_thermal_displace_type
  _atom_site_B_iso_or_equiv
  _atom_site_type_symbol
  Zn1      1.0000 0.07234  0.35811  0.98387  Biso   1.000  Zn
  Zn2      1.0000 0.92766  0.64189  0.01613  Biso   1.000  Zn
  H1       1.0000 0.06670  0.30870  0.69110  Biso   1.000  H
  H2       1.0000 0.05290  0.23800  0.56360  Biso   1.000  H
  H3       1.0000 0.96660  0.95110  0.78490  Biso   1.000  H
  H4       1.0000 0.97740  0.02360  0.91120  Biso   1.000  H
  H5       1.0000 0.09460  0.91870  0.63080  Biso   1.000  H
  H6       1.0000 0.77510  0.10320  0.64810  Biso   1.000  H
  H7       1.0000 0.65580  0.23500  0.65900  Biso   1.000  H
  H8       1.0000 0.80970  0.41240  0.35380  Biso   1.000  H
  H9       1.0000 0.93370  0.26920  0.35230  Biso   1.000  H
  H10      1.0000 0.74780  0.07670  0.27230  Biso   1.000  H
  H11      1.0000 0.86200  0.21370  0.13570  Biso   1.000  H
  H12      1.0000 0.64780  0.42230  0.21720  Biso   1.000  H
  H13      1.0000 0.52940  0.28450  0.34230  Biso   1.000  H
  H14      1.0000 0.69510  0.03220  0.47320  Biso   1.000  H
  H15      1.0000 0.49100  0.10020  0.21970  Biso   1.000  H
  H16      1.0000 0.38220  0.17960  0.10090  Biso   1.000  H
  H17      1.0000 0.14160  0.22720  0.31790  Biso   1.000  H
  H18      1.0000 0.24310  0.14780  0.44450  Biso   1.000  H
  H19      1.0000 0.93330  0.69130  0.30890  Biso   1.000  H
  H20      1.0000 0.94710  0.76200  0.43640  Biso   1.000  H
  H21      1.0000 0.03340  0.04890  0.21510  Biso   1.000  H
  H22      1.0000 0.02260  0.97640  0.08880  Biso   1.000  H
  H23      1.0000 0.90540  0.08130  0.36920  Biso   1.000  H
  H24      1.0000 0.22490  0.89680  0.35190  Biso   1.000  H
  H25      1.0000 0.34420  0.76500  0.34100  Biso   1.000  H
  H26      1.0000 0.19030  0.58760  0.64620  Biso   1.000  H
  H27      1.0000 0.06630  0.73080  0.64770  Biso   1.000  H
  H28      1.0000 0.25220  0.92330  0.72770  Biso   1.000  H
  H29      1.0000 0.13800  0.78630  0.86430  Biso   1.000  H
  H30      1.0000 0.35220  0.57770  0.78280  Biso   1.000  H
  H31      1.0000 0.47060  0.71550  0.65770  Biso   1.000  H
  H32      1.0000 0.30490  0.96780  0.52680  Biso   1.000  H
  H33      1.0000 0.50900  0.89980  0.78030  Biso   1.000  H
  H34      1.0000 0.61780  0.82040  0.89910  Biso   1.000  H
  H35      1.0000 0.85840  0.77280  0.68210  Biso   1.000  H
  H36      1.0000 0.75690  0.85220  0.55550  Biso   1.000  H
  C1       1.0000 0.02370  0.17350  0.81260  Biso   1.000  C
  C2       1.0000 0.04550  0.23570  0.71040  Biso   1.000  C
  C3       1.0000 0.03700  0.19360  0.63440  Biso   1.000  C
  C4       1.0000 0.00600  0.08920  0.65990  Biso   1.000  C
  C5       1.0000 0.98560  0.02450  0.76550  Biso   1.000  C
  C6       1.0000 0.99320  0.06720  0.84020  Biso   1.000  C
  C7       1.0000 0.02960  0.21960  0.89530  Biso   1.000  C
  C8       1.0000 0.99840  0.04060  0.57970  Biso   1.000  C
  C9       1.0000 0.05600  0.95250  0.57760  Biso   1.000  C
  C10      1.0000 0.94180  0.08710  0.50130  Biso   1.000  C
  C11      1.0000 0.86730  0.17950  0.50070  Biso   1.000  C
  C12      1.0000 0.78200  0.16650  0.59040  Biso   1.000  C
  C13      1.0000 0.71010  0.24150  0.59630  Biso   1.000  C
  C14      1.0000 0.71680  0.32290  0.51420  Biso   1.000  C
  C15      1.0000 0.80460  0.34900  0.41110  Biso   1.000  C
  C16      1.0000 0.87730  0.26540  0.41300  Biso   1.000  C
  C17      1.0000 0.62940  0.16740  0.32100  Biso   1.000  C
  C18      1.0000 0.72710  0.14730  0.25970  Biso   1.000  C
  C19      1.0000 0.79640  0.22880  0.17930  Biso   1.000  C
  C20      1.0000 0.76800  0.33240  0.16410  Biso   1.000  C
  C21      1.0000 0.66780  0.35180  0.22710  Biso   1.000  C
  C22      1.0000 0.59870  0.27040  0.30250  Biso   1.000  C
  C23      1.0000 0.84360  0.42210  0.08470  Biso   1.000  C
  C24      1.0000 0.56090  0.07990  0.40930  Biso   1.000  C
  C25      1.0000 0.61490  0.01960  0.48420  Biso   1.000  C
  C26      1.0000 0.44300  0.05980  0.42390  Biso   1.000  C
  C27      1.0000 0.37750  0.11470  0.34520  Biso   1.000  C
  C28      1.0000 0.41910  0.12520  0.24200  Biso   1.000  C
  C29      1.0000 0.35280  0.17330  0.17150  Biso   1.000  C
  C30      1.0000 0.25490  0.20990  0.19470  Biso   1.000  C
  C31      1.0000 0.21340  0.20050  0.29830  Biso   1.000  C
  C32      1.0000 0.27320  0.15330  0.37430  Biso   1.000  C
  C33      1.0000 0.19620  0.25720  0.09350  Biso   1.000  C
  C34      1.0000 0.97630  0.82650  0.18740  Biso   1.000  C
  C35      1.0000 0.95450  0.76430  0.28960  Biso   1.000  C
  C36      1.0000 0.96300  0.80640  0.36560  Biso   1.000  C
  C37      1.0000 0.99400  0.91080  0.34010  Biso   1.000  C
  C38      1.0000 0.01440  0.97550  0.23450  Biso   1.000  C
  C39      1.0000 0.00680  0.93280  0.15980  Biso   1.000  C
  C40      1.0000 0.97040  0.78040  0.10470  Biso   1.000  C
  C41      1.0000 0.00160  0.95940  0.42030  Biso   1.000  C
  C42      1.0000 0.94400  0.04750  0.42240  Biso   1.000  C
  C43      1.0000 0.05820  0.91290  0.49870  Biso   1.000  C
  C44      1.0000 0.13270  0.82050  0.49930  Biso   1.000  C
  C45      1.0000 0.21800  0.83350  0.40960  Biso   1.000  C
  C46      1.0000 0.28990  0.75850  0.40370  Biso   1.000  C
  C47      1.0000 0.28320  0.67710  0.48580  Biso   1.000  C
  C48      1.0000 0.19540  0.65100  0.58890  Biso   1.000  C
  C49      1.0000 0.12270  0.73460  0.58700  Biso   1.000  C
  C50      1.0000 0.37060  0.83260  0.67900  Biso   1.000  C
  C51      1.0000 0.27290  0.85270  0.74030  Biso   1.000  C
  C52      1.0000 0.20360  0.77120  0.82070  Biso   1.000  C
  C53      1.0000 0.23200  0.66760  0.83590  Biso   1.000  C
  C54      1.0000 0.33220  0.64820  0.77290  Biso   1.000  C
  C55      1.0000 0.40130  0.72960  0.69750  Biso   1.000  C
  C56      1.0000 0.15640  0.57790  0.91530  Biso   1.000  C
  C57      1.0000 0.43910  0.92010  0.59070  Biso   1.000  C
  C58      1.0000 0.38510  0.98040  0.51580  Biso   1.000  C
  C59      1.0000 0.55700  0.94020  0.57610  Biso   1.000  C
  C60      1.0000 0.62250  0.88530  0.65480  Biso   1.000  C
  C61      1.0000 0.58090  0.87480  0.75800  Biso   1.000  C
  C62      1.0000 0.64720  0.82670  0.82850  Biso   1.000  C
  C63      1.0000 0.74510  0.79010  0.80530  Biso   1.000  C
  C64      1.0000 0.78660  0.79950  0.70170  Biso   1.000  C
  C65      1.0000 0.72680  0.84670  0.62570  Biso   1.000  C
  C66      1.0000 0.80380  0.74280  0.90650  Biso   1.000  C
  O1       1.0000 0.99190  0.16870  0.98760  Biso   1.000  O
  O2       1.0000 0.07210  0.31370  0.86380  Biso   1.000  O
  O3       1.0000 0.91720  0.40526  0.01349  Biso   1.000  O
  O4       1.0000 0.82740  0.51216  0.09130  Biso   1.000  O
  O5       1.0000 0.24970  0.25750  0.00790  Biso   1.000  O
  O6       1.0000 0.11860  0.28810  0.11970  Biso   1.000  O
  O7       1.0000 0.00810  0.83130  0.01240  Biso   1.000  O
  O8       1.0000 0.92790  0.68630  0.13620  Biso   1.000  O
  O9       1.0000 0.08280  0.59474  0.98651  Biso   1.000  O
  O10      1.0000 0.17260  0.48784  0.90870  Biso   1.000  O
  O11      1.0000 0.75030  0.74250  0.99210  Biso   1.000  O
  O12      1.0000 0.88140  0.71190  0.88030  Biso   1.000  O
