data_image0
_cell_length_a       13.846
_cell_length_b       16.954
_cell_length_c       16.954
_cell_angle_alpha    120
_cell_angle_beta     90
_cell_angle_gamma    90

_symmetry_space_group_name_H-M    P 1
_symmetry_int_tables_number       1

loop_
  _symmetry_equiv_pos_as_xyz
  'x, y, z'

loop_
  _atom_site_label
  _atom_site_occupancy
  _atom_site_fract_x
  _atom_site_fract_y
  _atom_site_fract_z
  _atom_site_thermal_displace_type
  _atom_site_B_iso_or_equiv
  _atom_site_type_symbol
  Ni1      1.0000 0.39827  0.33333  0.66666  Biso   1.000  Ni
  Ni2      1.0000 0.10173  0.33333  0.66666  Biso   1.000  Ni
  Ni3      1.0000 0.60173  0.66667  0.33334  Biso   1.000  Ni
  Ni4      1.0000 0.89827  0.66667  0.33334  Biso   1.000  Ni
  H1       1.0000 0.11200  0.06680  0.49470  Biso   1.000  H
  H2       1.0000 0.08760  0.78330  0.41870  Biso   1.000  H
  H3       1.0000 0.84740  0.77720  0.21430  Biso   1.000  H
  H4       1.0000 0.83640  0.89580  0.18350  Biso   1.000  H
  H5       1.0000 0.94470  0.01550  0.24510  Biso   1.000  H
  H6       1.0000 0.06390  0.02510  0.34640  Biso   1.000  H
  H7       1.0000 0.11200  0.42790  0.93320  Biso   1.000  H
  H8       1.0000 0.08760  0.63540  0.21670  Biso   1.000  H
  H9       1.0000 0.84740  0.43710  0.22280  Biso   1.000  H
  H10      1.0000 0.83640  0.28770  0.10420  Biso   1.000  H
  H11      1.0000 0.94470  0.22960  0.98450  Biso   1.000  H
  H12      1.0000 0.06390  0.32130  0.97490  Biso   1.000  H
  H13      1.0000 0.11200  0.50530  0.57210  Biso   1.000  H
  H14      1.0000 0.08760  0.58130  0.36460  Biso   1.000  H
  H15      1.0000 0.84740  0.78570  0.56290  Biso   1.000  H
  H16      1.0000 0.83640  0.81650  0.71230  Biso   1.000  H
  H17      1.0000 0.94470  0.75490  0.77040  Biso   1.000  H
  H18      1.0000 0.06390  0.65360  0.67870  Biso   1.000  H
  H19      1.0000 0.38800  0.42790  0.49470  Biso   1.000  H
  H20      1.0000 0.41240  0.63540  0.41870  Biso   1.000  H
  H21      1.0000 0.65260  0.43710  0.21430  Biso   1.000  H
  H22      1.0000 0.66360  0.28770  0.18350  Biso   1.000  H
  H23      1.0000 0.55530  0.22960  0.24510  Biso   1.000  H
  H24      1.0000 0.43610  0.32130  0.34640  Biso   1.000  H
  H25      1.0000 0.38800  0.50530  0.93320  Biso   1.000  H
  H26      1.0000 0.41240  0.58130  0.21670  Biso   1.000  H
  H27      1.0000 0.65260  0.78570  0.22280  Biso   1.000  H
  H28      1.0000 0.66360  0.81650  0.10420  Biso   1.000  H
  H29      1.0000 0.55530  0.75490  0.98450  Biso   1.000  H
  H30      1.0000 0.43610  0.65360  0.97490  Biso   1.000  H
  H31      1.0000 0.38800  0.06680  0.57210  Biso   1.000  H
  H32      1.0000 0.41240  0.78330  0.36460  Biso   1.000  H
  H33      1.0000 0.65260  0.77720  0.56290  Biso   1.000  H
  H34      1.0000 0.66360  0.89580  0.71230  Biso   1.000  H
  H35      1.0000 0.55530  0.01550  0.77040  Biso   1.000  H
  H36      1.0000 0.43610  0.02510  0.67870  Biso   1.000  H
  H37      1.0000 0.88800  0.93320  0.50530  Biso   1.000  H
  H38      1.0000 0.91240  0.21670  0.58130  Biso   1.000  H
  H39      1.0000 0.15260  0.22280  0.78570  Biso   1.000  H
  H40      1.0000 0.16360  0.10420  0.81650  Biso   1.000  H
  H41      1.0000 0.05530  0.98450  0.75490  Biso   1.000  H
  H42      1.0000 0.93610  0.97490  0.65360  Biso   1.000  H
  H43      1.0000 0.88800  0.57210  0.06680  Biso   1.000  H
  H44      1.0000 0.91240  0.36460  0.78330  Biso   1.000  H
  H45      1.0000 0.15260  0.56290  0.77720  Biso   1.000  H
  H46      1.0000 0.16360  0.71230  0.89580  Biso   1.000  H
  H47      1.0000 0.05530  0.77040  0.01550  Biso   1.000  H
  H48      1.0000 0.93610  0.67870  0.02510  Biso   1.000  H
  H49      1.0000 0.88800  0.49470  0.42790  Biso   1.000  H
  H50      1.0000 0.91240  0.41870  0.63540  Biso   1.000  H
  H51      1.0000 0.15260  0.21430  0.43710  Biso   1.000  H
  H52      1.0000 0.16360  0.18350  0.28770  Biso   1.000  H
  H53      1.0000 0.05530  0.24510  0.22960  Biso   1.000  H
  H54      1.0000 0.93610  0.34640  0.32130  Biso   1.000  H
  H55      1.0000 0.61200  0.57210  0.50530  Biso   1.000  H
  H56      1.0000 0.58760  0.36460  0.58130  Biso   1.000  H
  H57      1.0000 0.34740  0.56290  0.78570  Biso   1.000  H
  H58      1.0000 0.33640  0.71230  0.81650  Biso   1.000  H
  H59      1.0000 0.44470  0.77040  0.75490  Biso   1.000  H
  H60      1.0000 0.56390  0.67870  0.65360  Biso   1.000  H
  H61      1.0000 0.61200  0.49470  0.06680  Biso   1.000  H
  H62      1.0000 0.58760  0.41870  0.78330  Biso   1.000  H
  H63      1.0000 0.34740  0.21430  0.77720  Biso   1.000  H
  H64      1.0000 0.33640  0.18350  0.89580  Biso   1.000  H
  H65      1.0000 0.44470  0.24510  0.01550  Biso   1.000  H
  H66      1.0000 0.56390  0.34640  0.02510  Biso   1.000  H
  H67      1.0000 0.61200  0.93320  0.42790  Biso   1.000  H
  H68      1.0000 0.58760  0.21670  0.63540  Biso   1.000  H
  H69      1.0000 0.34740  0.22280  0.43710  Biso   1.000  H
  H70      1.0000 0.33640  0.10420  0.28770  Biso   1.000  H
  H71      1.0000 0.44470  0.98450  0.22960  Biso   1.000  H
  H72      1.0000 0.56390  0.97490  0.32130  Biso   1.000  H
  H73      1.0000 0.25000  0.82990  0.41495  Biso   1.000  H
  H74      1.0000 0.25000  0.58505  0.17010  Biso   1.000  H
  H75      1.0000 0.25000  0.58505  0.41495  Biso   1.000  H
  H76      1.0000 0.75000  0.17010  0.58505  Biso   1.000  H
  H77      1.0000 0.75000  0.41495  0.82990  Biso   1.000  H
  H78      1.0000 0.75000  0.41495  0.58505  Biso   1.000  H
  C1       1.0000 0.16730  0.03534  0.49398  Biso   1.000  C
  C2       1.0000 0.16885  0.94147  0.44627  Biso   1.000  C
  C3       1.0000 0.05757  0.80940  0.38818  Biso   1.000  C
  C4       1.0000 0.96150  0.83160  0.30136  Biso   1.000  C
  C5       1.0000 0.88980  0.82620  0.24090  Biso   1.000  C
  C6       1.0000 0.88450  0.89690  0.22230  Biso   1.000  C
  C7       1.0000 0.94950  0.97010  0.26050  Biso   1.000  C
  C8       1.0000 0.02100  0.97640  0.32070  Biso   1.000  C
  C9       1.0000 0.02540  0.90660  0.34080  Biso   1.000  C
  C10      1.0000 0.16730  0.45864  0.96466  Biso   1.000  C
  C11      1.0000 0.16885  0.50480  0.05853  Biso   1.000  C
  C12      1.0000 0.05757  0.57878  0.19060  Biso   1.000  C
  C13      1.0000 0.96150  0.46976  0.16840  Biso   1.000  C
  C14      1.0000 0.88980  0.41470  0.17380  Biso   1.000  C
  C15      1.0000 0.88450  0.32540  0.10310  Biso   1.000  C
  C16      1.0000 0.94950  0.29040  0.02990  Biso   1.000  C
  C17      1.0000 0.02100  0.34430  0.02360  Biso   1.000  C
  C18      1.0000 0.02540  0.43420  0.09340  Biso   1.000  C
  C19      1.0000 0.16730  0.50602  0.54136  Biso   1.000  C
  C20      1.0000 0.16885  0.55373  0.49520  Biso   1.000  C
  C21      1.0000 0.05757  0.61182  0.42122  Biso   1.000  C
  C22      1.0000 0.96150  0.69864  0.53024  Biso   1.000  C
  C23      1.0000 0.88980  0.75910  0.58530  Biso   1.000  C
  C24      1.0000 0.88450  0.77770  0.67460  Biso   1.000  C
  C25      1.0000 0.94950  0.73950  0.70960  Biso   1.000  C
  C26      1.0000 0.02100  0.67930  0.65570  Biso   1.000  C
  C27      1.0000 0.02540  0.65920  0.56580  Biso   1.000  C
  C28      1.0000 0.33270  0.45864  0.49398  Biso   1.000  C
  C29      1.0000 0.33115  0.50480  0.44627  Biso   1.000  C
  C30      1.0000 0.44243  0.57878  0.38818  Biso   1.000  C
  C31      1.0000 0.53850  0.46976  0.30136  Biso   1.000  C
  C32      1.0000 0.61020  0.41470  0.24090  Biso   1.000  C
  C33      1.0000 0.61550  0.32540  0.22230  Biso   1.000  C
  C34      1.0000 0.55050  0.29040  0.26050  Biso   1.000  C
  C35      1.0000 0.47900  0.34430  0.32070  Biso   1.000  C
  C36      1.0000 0.47460  0.43420  0.34080  Biso   1.000  C
  C37      1.0000 0.33270  0.50602  0.96466  Biso   1.000  C
  C38      1.0000 0.33115  0.55373  0.05853  Biso   1.000  C
  C39      1.0000 0.44243  0.61182  0.19060  Biso   1.000  C
  C40      1.0000 0.53850  0.69864  0.16840  Biso   1.000  C
  C41      1.0000 0.61020  0.75910  0.17380  Biso   1.000  C
  C42      1.0000 0.61550  0.77770  0.10310  Biso   1.000  C
  C43      1.0000 0.55050  0.73950  0.02990  Biso   1.000  C
  C44      1.0000 0.47900  0.67930  0.02360  Biso   1.000  C
  C45      1.0000 0.47460  0.65920  0.09340  Biso   1.000  C
  C46      1.0000 0.33270  0.03534  0.54136  Biso   1.000  C
  C47      1.0000 0.33115  0.94147  0.49520  Biso   1.000  C
  C48      1.0000 0.44243  0.80940  0.42122  Biso   1.000  C
  C49      1.0000 0.53850  0.83160  0.53024  Biso   1.000  C
  C50      1.0000 0.61020  0.82620  0.58530  Biso   1.000  C
  C51      1.0000 0.61550  0.89690  0.67460  Biso   1.000  C
  C52      1.0000 0.55050  0.97010  0.70960  Biso   1.000  C
  C53      1.0000 0.47900  0.97640  0.65570  Biso   1.000  C
  C54      1.0000 0.47460  0.90660  0.56580  Biso   1.000  C
  C55      1.0000 0.83270  0.96466  0.50602  Biso   1.000  C
  C56      1.0000 0.83115  0.05853  0.55373  Biso   1.000  C
  C57      1.0000 0.94243  0.19060  0.61182  Biso   1.000  C
  C58      1.0000 0.03850  0.16840  0.69864  Biso   1.000  C
  C59      1.0000 0.11020  0.17380  0.75910  Biso   1.000  C
  C60      1.0000 0.11550  0.10310  0.77770  Biso   1.000  C
  C61      1.0000 0.05050  0.02990  0.73950  Biso   1.000  C
  C62      1.0000 0.97900  0.02360  0.67930  Biso   1.000  C
  C63      1.0000 0.97460  0.09340  0.65920  Biso   1.000  C
  C64      1.0000 0.83270  0.54136  0.03534  Biso   1.000  C
  C65      1.0000 0.83115  0.49520  0.94147  Biso   1.000  C
  C66      1.0000 0.94243  0.42122  0.80940  Biso   1.000  C
  C67      1.0000 0.03850  0.53024  0.83160  Biso   1.000  C
  C68      1.0000 0.11020  0.58530  0.82620  Biso   1.000  C
  C69      1.0000 0.11550  0.67460  0.89690  Biso   1.000  C
  C70      1.0000 0.05050  0.70960  0.97010  Biso   1.000  C
  C71      1.0000 0.97900  0.65570  0.97640  Biso   1.000  C
  C72      1.0000 0.97460  0.56580  0.90660  Biso   1.000  C
  C73      1.0000 0.83270  0.49398  0.45864  Biso   1.000  C
  C74      1.0000 0.83115  0.44627  0.50480  Biso   1.000  C
  C75      1.0000 0.94243  0.38818  0.57878  Biso   1.000  C
  C76      1.0000 0.03850  0.30136  0.46976  Biso   1.000  C
  C77      1.0000 0.11020  0.24090  0.41470  Biso   1.000  C
  C78      1.0000 0.11550  0.22230  0.32540  Biso   1.000  C
  C79      1.0000 0.05050  0.26050  0.29040  Biso   1.000  C
  C80      1.0000 0.97900  0.32070  0.34430  Biso   1.000  C
  C81      1.0000 0.97460  0.34080  0.43420  Biso   1.000  C
  C82      1.0000 0.66730  0.54136  0.50602  Biso   1.000  C
  C83      1.0000 0.66885  0.49520  0.55373  Biso   1.000  C
  C84      1.0000 0.55757  0.42122  0.61182  Biso   1.000  C
  C85      1.0000 0.46150  0.53024  0.69864  Biso   1.000  C
  C86      1.0000 0.38980  0.58530  0.75910  Biso   1.000  C
  C87      1.0000 0.38450  0.67460  0.77770  Biso   1.000  C
  C88      1.0000 0.44950  0.70960  0.73950  Biso   1.000  C
  C89      1.0000 0.52100  0.65570  0.67930  Biso   1.000  C
  C90      1.0000 0.52540  0.56580  0.65920  Biso   1.000  C
  C91      1.0000 0.66730  0.49398  0.03534  Biso   1.000  C
  C92      1.0000 0.66885  0.44627  0.94147  Biso   1.000  C
  C93      1.0000 0.55757  0.38818  0.80940  Biso   1.000  C
  C94      1.0000 0.46150  0.30136  0.83160  Biso   1.000  C
  C95      1.0000 0.38980  0.24090  0.82620  Biso   1.000  C
  C96      1.0000 0.38450  0.22230  0.89690  Biso   1.000  C
  C97      1.0000 0.44950  0.26050  0.97010  Biso   1.000  C
  C98      1.0000 0.52100  0.32070  0.97640  Biso   1.000  C
  C99      1.0000 0.52540  0.34080  0.90660  Biso   1.000  C
  C100     1.0000 0.66730  0.96466  0.45864  Biso   1.000  C
  C101     1.0000 0.66885  0.05853  0.50480  Biso   1.000  C
  C102     1.0000 0.55757  0.19060  0.57878  Biso   1.000  C
  C103     1.0000 0.46150  0.16840  0.46976  Biso   1.000  C
  C104     1.0000 0.38980  0.17380  0.41470  Biso   1.000  C
  C105     1.0000 0.38450  0.10310  0.32540  Biso   1.000  C
  C106     1.0000 0.44950  0.02990  0.29040  Biso   1.000  C
  C107     1.0000 0.52100  0.02360  0.34430  Biso   1.000  C
  C108     1.0000 0.52540  0.09340  0.43420  Biso   1.000  C
  C109     1.0000 0.25000  0.18480  0.59240  Biso   1.000  C
  C110     1.0000 0.25000  0.08240  0.54120  Biso   1.000  C
  C111     1.0000 0.25000  0.89320  0.44660  Biso   1.000  C
  C112     1.0000 0.25000  0.40760  0.81520  Biso   1.000  C
  C113     1.0000 0.25000  0.45880  0.91760  Biso   1.000  C
  C114     1.0000 0.25000  0.55340  0.10680  Biso   1.000  C
  C115     1.0000 0.25000  0.40760  0.59240  Biso   1.000  C
  C116     1.0000 0.25000  0.45880  0.54120  Biso   1.000  C
  C117     1.0000 0.25000  0.55340  0.44660  Biso   1.000  C
  C118     1.0000 0.75000  0.81520  0.40760  Biso   1.000  C
  C119     1.0000 0.75000  0.91760  0.45880  Biso   1.000  C
  C120     1.0000 0.75000  0.10680  0.55340  Biso   1.000  C
  C121     1.0000 0.75000  0.59240  0.18480  Biso   1.000  C
  C122     1.0000 0.75000  0.54120  0.08240  Biso   1.000  C
  C123     1.0000 0.75000  0.44660  0.89320  Biso   1.000  C
  C124     1.0000 0.75000  0.59240  0.40760  Biso   1.000  C
  C125     1.0000 0.75000  0.54120  0.45880  Biso   1.000  C
  C126     1.0000 0.75000  0.44660  0.55340  Biso   1.000  C
  N1       1.0000 0.08583  0.89055  0.39654  Biso   1.000  N
  N2       1.0000 0.98406  0.77193  0.33310  Biso   1.000  N
  N3       1.0000 0.08583  0.50599  0.10945  Biso   1.000  N
  N4       1.0000 0.98406  0.56117  0.22807  Biso   1.000  N
  N5       1.0000 0.08583  0.60346  0.49401  Biso   1.000  N
  N6       1.0000 0.98406  0.66690  0.43883  Biso   1.000  N
  N7       1.0000 0.41417  0.50599  0.39654  Biso   1.000  N
  N8       1.0000 0.51594  0.56117  0.33310  Biso   1.000  N
  N9       1.0000 0.41417  0.60346  0.10945  Biso   1.000  N
  N10      1.0000 0.51594  0.66690  0.22807  Biso   1.000  N
  N11      1.0000 0.41417  0.89055  0.49401  Biso   1.000  N
  N12      1.0000 0.51594  0.77193  0.43883  Biso   1.000  N
  N13      1.0000 0.91417  0.10945  0.60346  Biso   1.000  N
  N14      1.0000 0.01594  0.22807  0.66690  Biso   1.000  N
  N15      1.0000 0.91417  0.49401  0.89055  Biso   1.000  N
  N16      1.0000 0.01594  0.43883  0.77193  Biso   1.000  N
  N17      1.0000 0.91417  0.39654  0.50599  Biso   1.000  N
  N18      1.0000 0.01594  0.33310  0.56117  Biso   1.000  N
  N19      1.0000 0.58583  0.49401  0.60346  Biso   1.000  N
  N20      1.0000 0.48406  0.43883  0.66690  Biso   1.000  N
  N21      1.0000 0.58583  0.39654  0.89055  Biso   1.000  N
  N22      1.0000 0.48406  0.33310  0.77193  Biso   1.000  N
  N23      1.0000 0.58583  0.10945  0.50599  Biso   1.000  N
  N24      1.0000 0.48406  0.22807  0.56117  Biso   1.000  N
  O1       1.0000 0.31936  0.22311  0.64669  Biso   1.000  O
  O2       1.0000 0.31936  0.42358  0.77689  Biso   1.000  O
  O3       1.0000 0.31936  0.35331  0.57642  Biso   1.000  O
  O4       1.0000 0.18064  0.42358  0.64669  Biso   1.000  O
  O5       1.0000 0.18064  0.35331  0.77689  Biso   1.000  O
  O6       1.0000 0.18064  0.22311  0.57642  Biso   1.000  O
  O7       1.0000 0.68064  0.77689  0.35331  Biso   1.000  O
  O8       1.0000 0.68064  0.57642  0.22311  Biso   1.000  O
  O9       1.0000 0.68064  0.64669  0.42358  Biso   1.000  O
  O10      1.0000 0.81936  0.57642  0.35331  Biso   1.000  O
  O11      1.0000 0.81936  0.64669  0.22311  Biso   1.000  O
  O12      1.0000 0.81936  0.77689  0.42358  Biso   1.000  O
