data_image0
_cell_length_a       14.107
_cell_length_b       17.275
_cell_length_c       17.275
_cell_angle_alpha    120
_cell_angle_beta     90
_cell_angle_gamma    90

_symmetry_space_group_name_H-M    P 1
_symmetry_int_tables_number       1

loop_
  _symmetry_equiv_pos_as_xyz
  'x, y, z'

loop_
  _atom_site_label
  _atom_site_occupancy
  _atom_site_fract_x
  _atom_site_fract_y
  _atom_site_fract_z
  _atom_site_thermal_displace_type
  _atom_site_B_iso_or_equiv
  _atom_site_type_symbol
  Mn1      1.0000 0.89616  0.33333  0.66666  Biso   1.000  Mn
  Mn2      1.0000 0.60384  0.33333  0.66666  Biso   1.000  Mn
  Mn3      1.0000 0.10384  0.66667  0.33334  Biso   1.000  Mn
  Mn4      1.0000 0.39616  0.66667  0.33334  Biso   1.000  Mn
  H1       1.0000 0.61540  0.06470  0.57090  Biso   1.000  H
  H2       1.0000 0.59140  0.78540  0.36830  Biso   1.000  H
  H3       1.0000 0.35290  0.78490  0.56120  Biso   1.000  H
  H4       1.0000 0.33720  0.90400  0.70520  Biso   1.000  H
  H5       1.0000 0.44520  0.02020  0.76250  Biso   1.000  H
  H6       1.0000 0.56420  0.02710  0.67450  Biso   1.000  H
  H7       1.0000 0.61540  0.50620  0.93530  Biso   1.000  H
  H8       1.0000 0.59140  0.58290  0.21460  Biso   1.000  H
  H9       1.0000 0.35290  0.77630  0.21510  Biso   1.000  H
  H10      1.0000 0.33720  0.80120  0.09600  Biso   1.000  H
  H11      1.0000 0.44520  0.74230  0.97980  Biso   1.000  H
  H12      1.0000 0.56420  0.64740  0.97290  Biso   1.000  H
  H13      1.0000 0.61540  0.42910  0.49380  Biso   1.000  H
  H14      1.0000 0.59140  0.63170  0.41710  Biso   1.000  H
  H15      1.0000 0.35290  0.43880  0.22370  Biso   1.000  H
  H16      1.0000 0.33720  0.29480  0.19880  Biso   1.000  H
  H17      1.0000 0.44520  0.23750  0.25770  Biso   1.000  H
  H18      1.0000 0.56420  0.32550  0.35260  Biso   1.000  H
  H19      1.0000 0.88460  0.50620  0.57090  Biso   1.000  H
  H20      1.0000 0.90860  0.58290  0.36830  Biso   1.000  H
  H21      1.0000 0.14710  0.77630  0.56120  Biso   1.000  H
  H22      1.0000 0.16280  0.80120  0.70520  Biso   1.000  H
  H23      1.0000 0.05480  0.74230  0.76250  Biso   1.000  H
  H24      1.0000 0.93580  0.64740  0.67450  Biso   1.000  H
  H25      1.0000 0.88460  0.42910  0.93530  Biso   1.000  H
  H26      1.0000 0.90860  0.63170  0.21460  Biso   1.000  H
  H27      1.0000 0.14710  0.43880  0.21510  Biso   1.000  H
  H28      1.0000 0.16280  0.29480  0.09600  Biso   1.000  H
  H29      1.0000 0.05480  0.23750  0.97980  Biso   1.000  H
  H30      1.0000 0.93580  0.32550  0.97290  Biso   1.000  H
  H31      1.0000 0.88460  0.06470  0.49380  Biso   1.000  H
  H32      1.0000 0.90860  0.78540  0.41710  Biso   1.000  H
  H33      1.0000 0.14710  0.78490  0.22370  Biso   1.000  H
  H34      1.0000 0.16280  0.90400  0.19880  Biso   1.000  H
  H35      1.0000 0.05480  0.02020  0.25770  Biso   1.000  H
  H36      1.0000 0.93580  0.02710  0.35260  Biso   1.000  H
  H37      1.0000 0.38460  0.93530  0.42910  Biso   1.000  H
  H38      1.0000 0.40860  0.21460  0.63170  Biso   1.000  H
  H39      1.0000 0.64710  0.21510  0.43880  Biso   1.000  H
  H40      1.0000 0.66280  0.09600  0.29480  Biso   1.000  H
  H41      1.0000 0.55480  0.97980  0.23750  Biso   1.000  H
  H42      1.0000 0.43580  0.97290  0.32550  Biso   1.000  H
  H43      1.0000 0.38460  0.49380  0.06470  Biso   1.000  H
  H44      1.0000 0.40860  0.41710  0.78540  Biso   1.000  H
  H45      1.0000 0.64710  0.22370  0.78490  Biso   1.000  H
  H46      1.0000 0.66280  0.19880  0.90400  Biso   1.000  H
  H47      1.0000 0.55480  0.25770  0.02020  Biso   1.000  H
  H48      1.0000 0.43580  0.35260  0.02710  Biso   1.000  H
  H49      1.0000 0.38460  0.57090  0.50620  Biso   1.000  H
  H50      1.0000 0.40860  0.36830  0.58290  Biso   1.000  H
  H51      1.0000 0.64710  0.56120  0.77630  Biso   1.000  H
  H52      1.0000 0.66280  0.70520  0.80120  Biso   1.000  H
  H53      1.0000 0.55480  0.76250  0.74230  Biso   1.000  H
  H54      1.0000 0.43580  0.67450  0.64740  Biso   1.000  H
  H55      1.0000 0.11540  0.49380  0.42910  Biso   1.000  H
  H56      1.0000 0.09140  0.41710  0.63170  Biso   1.000  H
  H57      1.0000 0.85290  0.22370  0.43880  Biso   1.000  H
  H58      1.0000 0.83720  0.19880  0.29480  Biso   1.000  H
  H59      1.0000 0.94520  0.25770  0.23750  Biso   1.000  H
  H60      1.0000 0.06420  0.35260  0.32550  Biso   1.000  H
  H61      1.0000 0.11540  0.57090  0.06470  Biso   1.000  H
  H62      1.0000 0.09140  0.36830  0.78540  Biso   1.000  H
  H63      1.0000 0.85290  0.56120  0.78490  Biso   1.000  H
  H64      1.0000 0.83720  0.70520  0.90400  Biso   1.000  H
  H65      1.0000 0.94520  0.76250  0.02020  Biso   1.000  H
  H66      1.0000 0.06420  0.67450  0.02710  Biso   1.000  H
  H67      1.0000 0.11540  0.93530  0.50620  Biso   1.000  H
  H68      1.0000 0.09140  0.21460  0.58290  Biso   1.000  H
  H69      1.0000 0.85290  0.21510  0.77630  Biso   1.000  H
  H70      1.0000 0.83720  0.09600  0.80120  Biso   1.000  H
  H71      1.0000 0.94520  0.97980  0.74230  Biso   1.000  H
  H72      1.0000 0.06420  0.97290  0.64740  Biso   1.000  H
  H73      1.0000 0.75000  0.83240  0.41620  Biso   1.000  H
  H74      1.0000 0.75000  0.58380  0.16760  Biso   1.000  H
  H75      1.0000 0.75000  0.58380  0.41620  Biso   1.000  H
  H76      1.0000 0.25000  0.16760  0.58380  Biso   1.000  H
  H77      1.0000 0.25000  0.41620  0.83240  Biso   1.000  H
  H78      1.0000 0.25000  0.41620  0.58380  Biso   1.000  H
  C1       1.0000 0.66953  0.03378  0.54029  Biso   1.000  C
  C2       1.0000 0.67082  0.94124  0.49448  Biso   1.000  C
  C3       1.0000 0.56160  0.81180  0.42372  Biso   1.000  C
  C4       1.0000 0.46543  0.83659  0.53018  Biso   1.000  C
  C5       1.0000 0.39430  0.83330  0.58310  Biso   1.000  C
  C6       1.0000 0.38630  0.90360  0.66900  Biso   1.000  C
  C7       1.0000 0.45090  0.97490  0.70330  Biso   1.000  C
  C8       1.0000 0.52200  0.97940  0.65190  Biso   1.000  C
  C9       1.0000 0.52820  0.90959  0.56452  Biso   1.000  C
  C10      1.0000 0.66953  0.50651  0.96622  Biso   1.000  C
  C11      1.0000 0.67082  0.55324  0.05876  Biso   1.000  C
  C12      1.0000 0.56160  0.61192  0.18820  Biso   1.000  C
  C13      1.0000 0.46543  0.69359  0.16341  Biso   1.000  C
  C14      1.0000 0.39430  0.74980  0.16670  Biso   1.000  C
  C15      1.0000 0.38630  0.76540  0.09640  Biso   1.000  C
  C16      1.0000 0.45090  0.72840  0.02510  Biso   1.000  C
  C17      1.0000 0.52200  0.67250  0.02060  Biso   1.000  C
  C18      1.0000 0.52820  0.65493  0.09041  Biso   1.000  C
  C19      1.0000 0.66953  0.45971  0.49349  Biso   1.000  C
  C20      1.0000 0.67082  0.50552  0.44676  Biso   1.000  C
  C21      1.0000 0.56160  0.57628  0.38808  Biso   1.000  C
  C22      1.0000 0.46543  0.46982  0.30641  Biso   1.000  C
  C23      1.0000 0.39430  0.41690  0.25020  Biso   1.000  C
  C24      1.0000 0.38630  0.33100  0.23460  Biso   1.000  C
  C25      1.0000 0.45090  0.29670  0.27160  Biso   1.000  C
  C26      1.0000 0.52200  0.34810  0.32750  Biso   1.000  C
  C27      1.0000 0.52820  0.43548  0.34507  Biso   1.000  C
  C28      1.0000 0.83047  0.50651  0.54029  Biso   1.000  C
  C29      1.0000 0.82918  0.55324  0.49448  Biso   1.000  C
  C30      1.0000 0.93840  0.61192  0.42372  Biso   1.000  C
  C31      1.0000 0.03457  0.69359  0.53018  Biso   1.000  C
  C32      1.0000 0.10570  0.74980  0.58310  Biso   1.000  C
  C33      1.0000 0.11370  0.76540  0.66900  Biso   1.000  C
  C34      1.0000 0.04910  0.72840  0.70330  Biso   1.000  C
  C35      1.0000 0.97800  0.67250  0.65190  Biso   1.000  C
  C36      1.0000 0.97180  0.65493  0.56452  Biso   1.000  C
  C37      1.0000 0.83047  0.45971  0.96622  Biso   1.000  C
  C38      1.0000 0.82918  0.50552  0.05876  Biso   1.000  C
  C39      1.0000 0.93840  0.57628  0.18820  Biso   1.000  C
  C40      1.0000 0.03457  0.46982  0.16341  Biso   1.000  C
  C41      1.0000 0.10570  0.41690  0.16670  Biso   1.000  C
  C42      1.0000 0.11370  0.33100  0.09640  Biso   1.000  C
  C43      1.0000 0.04910  0.29670  0.02510  Biso   1.000  C
  C44      1.0000 0.97800  0.34810  0.02060  Biso   1.000  C
  C45      1.0000 0.97180  0.43548  0.09041  Biso   1.000  C
  C46      1.0000 0.83047  0.03378  0.49349  Biso   1.000  C
  C47      1.0000 0.82918  0.94124  0.44676  Biso   1.000  C
  C48      1.0000 0.93840  0.81180  0.38808  Biso   1.000  C
  C49      1.0000 0.03457  0.83659  0.30641  Biso   1.000  C
  C50      1.0000 0.10570  0.83330  0.25020  Biso   1.000  C
  C51      1.0000 0.11370  0.90360  0.23460  Biso   1.000  C
  C52      1.0000 0.04910  0.97490  0.27160  Biso   1.000  C
  C53      1.0000 0.97800  0.97940  0.32750  Biso   1.000  C
  C54      1.0000 0.97180  0.90959  0.34507  Biso   1.000  C
  C55      1.0000 0.33047  0.96622  0.45971  Biso   1.000  C
  C56      1.0000 0.32918  0.05876  0.50552  Biso   1.000  C
  C57      1.0000 0.43840  0.18820  0.57628  Biso   1.000  C
  C58      1.0000 0.53457  0.16341  0.46982  Biso   1.000  C
  C59      1.0000 0.60570  0.16670  0.41690  Biso   1.000  C
  C60      1.0000 0.61370  0.09640  0.33100  Biso   1.000  C
  C61      1.0000 0.54910  0.02510  0.29670  Biso   1.000  C
  C62      1.0000 0.47800  0.02060  0.34810  Biso   1.000  C
  C63      1.0000 0.47180  0.09041  0.43548  Biso   1.000  C
  C64      1.0000 0.33047  0.49349  0.03378  Biso   1.000  C
  C65      1.0000 0.32918  0.44676  0.94124  Biso   1.000  C
  C66      1.0000 0.43840  0.38808  0.81180  Biso   1.000  C
  C67      1.0000 0.53457  0.30641  0.83659  Biso   1.000  C
  C68      1.0000 0.60570  0.25020  0.83330  Biso   1.000  C
  C69      1.0000 0.61370  0.23460  0.90360  Biso   1.000  C
  C70      1.0000 0.54910  0.27160  0.97490  Biso   1.000  C
  C71      1.0000 0.47800  0.32750  0.97940  Biso   1.000  C
  C72      1.0000 0.47180  0.34507  0.90959  Biso   1.000  C
  C73      1.0000 0.33047  0.54029  0.50651  Biso   1.000  C
  C74      1.0000 0.32918  0.49448  0.55324  Biso   1.000  C
  C75      1.0000 0.43840  0.42372  0.61192  Biso   1.000  C
  C76      1.0000 0.53457  0.53018  0.69359  Biso   1.000  C
  C77      1.0000 0.60570  0.58310  0.74980  Biso   1.000  C
  C78      1.0000 0.61370  0.66900  0.76540  Biso   1.000  C
  C79      1.0000 0.54910  0.70330  0.72840  Biso   1.000  C
  C80      1.0000 0.47800  0.65190  0.67250  Biso   1.000  C
  C81      1.0000 0.47180  0.56452  0.65493  Biso   1.000  C
  C82      1.0000 0.16953  0.49349  0.45971  Biso   1.000  C
  C83      1.0000 0.17082  0.44676  0.50552  Biso   1.000  C
  C84      1.0000 0.06160  0.38808  0.57628  Biso   1.000  C
  C85      1.0000 0.96543  0.30641  0.46982  Biso   1.000  C
  C86      1.0000 0.89430  0.25020  0.41690  Biso   1.000  C
  C87      1.0000 0.88630  0.23460  0.33100  Biso   1.000  C
  C88      1.0000 0.95090  0.27160  0.29670  Biso   1.000  C
  C89      1.0000 0.02200  0.32750  0.34810  Biso   1.000  C
  C90      1.0000 0.02820  0.34507  0.43548  Biso   1.000  C
  C91      1.0000 0.16953  0.54029  0.03378  Biso   1.000  C
  C92      1.0000 0.17082  0.49448  0.94124  Biso   1.000  C
  C93      1.0000 0.06160  0.42372  0.81180  Biso   1.000  C
  C94      1.0000 0.96543  0.53018  0.83659  Biso   1.000  C
  C95      1.0000 0.89430  0.58310  0.83330  Biso   1.000  C
  C96      1.0000 0.88630  0.66900  0.90360  Biso   1.000  C
  C97      1.0000 0.95090  0.70330  0.97490  Biso   1.000  C
  C98      1.0000 0.02200  0.65190  0.97940  Biso   1.000  C
  C99      1.0000 0.02820  0.56452  0.90959  Biso   1.000  C
  C100     1.0000 0.16953  0.96622  0.50651  Biso   1.000  C
  C101     1.0000 0.17082  0.05876  0.55324  Biso   1.000  C
  C102     1.0000 0.06160  0.18820  0.61192  Biso   1.000  C
  C103     1.0000 0.96543  0.16341  0.69359  Biso   1.000  C
  C104     1.0000 0.89430  0.16670  0.74980  Biso   1.000  C
  C105     1.0000 0.88630  0.09640  0.76540  Biso   1.000  C
  C106     1.0000 0.95090  0.02510  0.72840  Biso   1.000  C
  C107     1.0000 0.02200  0.02060  0.67250  Biso   1.000  C
  C108     1.0000 0.02820  0.09041  0.65493  Biso   1.000  C
  C109     1.0000 0.75000  0.18000  0.59000  Biso   1.000  C
  C110     1.0000 0.75000  0.07990  0.53995  Biso   1.000  C
  C111     1.0000 0.75000  0.89460  0.44730  Biso   1.000  C
  C112     1.0000 0.75000  0.41000  0.82000  Biso   1.000  C
  C113     1.0000 0.75000  0.46005  0.92010  Biso   1.000  C
  C114     1.0000 0.75000  0.55270  0.10540  Biso   1.000  C
  C115     1.0000 0.75000  0.41000  0.59000  Biso   1.000  C
  C116     1.0000 0.75000  0.46005  0.53995  Biso   1.000  C
  C117     1.0000 0.75000  0.55270  0.44730  Biso   1.000  C
  C118     1.0000 0.25000  0.82000  0.41000  Biso   1.000  C
  C119     1.0000 0.25000  0.92010  0.46005  Biso   1.000  C
  C120     1.0000 0.25000  0.10540  0.55270  Biso   1.000  C
  C121     1.0000 0.25000  0.59000  0.18000  Biso   1.000  C
  C122     1.0000 0.25000  0.53995  0.07990  Biso   1.000  C
  C123     1.0000 0.25000  0.44730  0.89460  Biso   1.000  C
  C124     1.0000 0.25000  0.59000  0.41000  Biso   1.000  C
  C125     1.0000 0.25000  0.53995  0.46005  Biso   1.000  C
  C126     1.0000 0.25000  0.44730  0.55270  Biso   1.000  C
  N1       1.0000 0.58962  0.89170  0.49425  Biso   1.000  N
  N2       1.0000 0.48872  0.77557  0.44128  Biso   1.000  N
  N3       1.0000 0.58962  0.60255  0.10830  Biso   1.000  N
  N4       1.0000 0.48872  0.66571  0.22443  Biso   1.000  N
  N5       1.0000 0.58962  0.50575  0.39745  Biso   1.000  N
  N6       1.0000 0.48872  0.55872  0.33429  Biso   1.000  N
  N7       1.0000 0.91038  0.60255  0.49425  Biso   1.000  N
  N8       1.0000 0.01128  0.66571  0.44128  Biso   1.000  N
  N9       1.0000 0.91038  0.50575  0.10830  Biso   1.000  N
  N10      1.0000 0.01128  0.55872  0.22443  Biso   1.000  N
  N11      1.0000 0.91038  0.89170  0.39745  Biso   1.000  N
  N12      1.0000 0.01128  0.77557  0.33429  Biso   1.000  N
  N13      1.0000 0.41038  0.10830  0.50575  Biso   1.000  N
  N14      1.0000 0.51128  0.22443  0.55872  Biso   1.000  N
  N15      1.0000 0.41038  0.39745  0.89170  Biso   1.000  N
  N16      1.0000 0.51128  0.33429  0.77557  Biso   1.000  N
  N17      1.0000 0.41038  0.49425  0.60255  Biso   1.000  N
  N18      1.0000 0.51128  0.44128  0.66571  Biso   1.000  N
  N19      1.0000 0.08962  0.39745  0.50575  Biso   1.000  N
  N20      1.0000 0.98872  0.33429  0.55872  Biso   1.000  N
  N21      1.0000 0.08962  0.49425  0.89170  Biso   1.000  N
  N22      1.0000 0.98872  0.44128  0.77557  Biso   1.000  N
  N23      1.0000 0.08962  0.10830  0.60255  Biso   1.000  N
  N24      1.0000 0.98872  0.22443  0.66571  Biso   1.000  N
  O1       1.0000 0.81787  0.21800  0.57493  Biso   1.000  O
  O2       1.0000 0.81787  0.35693  0.78200  Biso   1.000  O
  O3       1.0000 0.81787  0.42507  0.64307  Biso   1.000  O
  O4       1.0000 0.68213  0.35693  0.57493  Biso   1.000  O
  O5       1.0000 0.68213  0.42507  0.78200  Biso   1.000  O
  O6       1.0000 0.68213  0.21800  0.64307  Biso   1.000  O
  O7       1.0000 0.18213  0.78200  0.42507  Biso   1.000  O
  O8       1.0000 0.18213  0.64307  0.21800  Biso   1.000  O
  O9       1.0000 0.18213  0.57493  0.35693  Biso   1.000  O
  O10      1.0000 0.31787  0.64307  0.42507  Biso   1.000  O
  O11      1.0000 0.31787  0.57493  0.21800  Biso   1.000  O
  O12      1.0000 0.31787  0.78200  0.35693  Biso   1.000  O
