data_image0
_cell_length_a       13.699
_cell_length_b       21.594
_cell_length_c       22.22
_cell_angle_alpha    90
_cell_angle_beta     90
_cell_angle_gamma    90

_symmetry_space_group_name_H-M    P 1
_symmetry_int_tables_number       1

loop_
  _symmetry_equiv_pos_as_xyz
  'x, y, z'

loop_
  _atom_site_label
  _atom_site_occupancy
  _atom_site_fract_x
  _atom_site_fract_y
  _atom_site_fract_z
  _atom_site_thermal_displace_type
  _atom_site_B_iso_or_equiv
  _atom_site_type_symbol
  Co1      1.0000 0.22567  0.15281  0.86502  Biso   1.000  Co
  Co2      1.0000 0.26815  0.34595  0.63188  Biso   1.000  Co
  Co3      1.0000 0.27433  0.84719  0.36502  Biso   1.000  Co
  Co4      1.0000 0.23185  0.65405  0.13188  Biso   1.000  Co
  Co5      1.0000 0.77433  0.65281  0.63498  Biso   1.000  Co
  Co6      1.0000 0.73185  0.84595  0.86812  Biso   1.000  Co
  Co7      1.0000 0.72567  0.34719  0.13498  Biso   1.000  Co
  Co8      1.0000 0.76815  0.15405  0.36812  Biso   1.000  Co
  H1       1.0000 0.42570  0.21100  0.83550  Biso   1.000  H
  H2       1.0000 0.71150  0.20760  0.10480  Biso   1.000  H
  H3       1.0000 0.03540  0.18180  0.79070  Biso   1.000  H
  H4       1.0000 0.77750  0.89900  0.74280  Biso   1.000  H
  H5       1.0000 0.07030  0.28820  0.66980  Biso   1.000  H
  H6       1.0000 0.80140  0.29540  0.39340  Biso   1.000  H
  H7       1.0000 0.54600  0.82110  0.79270  Biso   1.000  H
  H8       1.0000 0.29420  0.10490  0.73860  Biso   1.000  H
  H9       1.0000 0.59630  0.24090  0.83520  Biso   1.000  H
  H10      1.0000 0.61950  0.28440  0.88980  Biso   1.000  H
  H11      1.0000 0.65230  0.21480  0.89130  Biso   1.000  H
  H12      1.0000 0.25120  0.18520  0.00560  Biso   1.000  H
  H13      1.0000 0.34110  0.16350  0.04390  Biso   1.000  H
  H14      1.0000 0.31240  0.23370  0.04220  Biso   1.000  H
  H15      1.0000 0.50570  0.36890  0.08580  Biso   1.000  H
  H16      1.0000 0.48680  0.35940  0.01690  Biso   1.000  H
  H17      1.0000 0.41890  0.32720  0.06420  Biso   1.000  H
  H18      1.0000 0.70330  0.11610  0.04150  Biso   1.000  H
  H19      1.0000 0.59620  0.10200  0.02080  Biso   1.000  H
  H20      1.0000 0.66970  0.13340  0.97620  Biso   1.000  H
  H21      1.0000 0.21010  0.01160  0.83720  Biso   1.000  H
  H22      1.0000 0.12040  0.97350  0.86060  Biso   1.000  H
  H23      1.0000 0.15070  0.96970  0.79270  Biso   1.000  H
  H24      1.0000 0.86810  0.17940  0.76310  Biso   1.000  H
  H25      1.0000 0.83970  0.11830  0.72920  Biso   1.000  H
  H26      1.0000 0.81170  0.12680  0.79710  Biso   1.000  H
  H27      1.0000 0.91050  0.91770  0.92660  Biso   1.000  H
  H28      1.0000 0.00740  0.94710  0.90230  Biso   1.000  H
  H29      1.0000 0.92110  0.98990  0.92280  Biso   1.000  H
  H30      1.0000 0.80800  0.96740  0.66160  Biso   1.000  H
  H31      1.0000 0.82580  0.03520  0.68420  Biso   1.000  H
  H32      1.0000 0.91420  0.99450  0.66320  Biso   1.000  H
  H33      1.0000 0.90070  0.26610  0.67190  Biso   1.000  H
  H34      1.0000 0.84780  0.29410  0.61550  Biso   1.000  H
  H35      1.0000 0.86750  0.22260  0.61920  Biso   1.000  H
  H36      1.0000 0.24670  0.29470  0.50010  Biso   1.000  H
  H37      1.0000 0.18020  0.24620  0.46740  Biso   1.000  H
  H38      1.0000 0.15930  0.31720  0.46020  Biso   1.000  H
  H39      1.0000 0.97550  0.12110  0.42700  Biso   1.000  H
  H40      1.0000 0.06500  0.15790  0.45260  Biso   1.000  H
  H41      1.0000 0.98450  0.13270  0.49650  Biso   1.000  H
  H42      1.0000 0.82060  0.38790  0.45390  Biso   1.000  H
  H43      1.0000 0.84530  0.37180  0.52090  Biso   1.000  H
  H44      1.0000 0.92800  0.39440  0.47740  Biso   1.000  H
  H45      1.0000 0.70610  0.98920  0.86020  Biso   1.000  H
  H46      1.0000 0.65240  0.03460  0.81630  Biso   1.000  H
  H47      1.0000 0.61130  0.02360  0.88120  Biso   1.000  H
  H48      1.0000 0.38150  0.82520  0.75290  Biso   1.000  H
  H49      1.0000 0.31920  0.87680  0.78440  Biso   1.000  H
  H50      1.0000 0.36260  0.88830  0.72010  Biso   1.000  H
  H51      1.0000 0.37930  0.07470  0.93170  Biso   1.000  H
  H52      1.0000 0.39080  0.00290  0.92410  Biso   1.000  H
  H53      1.0000 0.48150  0.04640  0.91580  Biso   1.000  H
  H54      1.0000 0.35480  0.04430  0.65690  Biso   1.000  H
  H55      1.0000 0.46120  0.02120  0.66970  Biso   1.000  H
  H56      1.0000 0.37310  0.97530  0.67550  Biso   1.000  H
  H57      1.0000 0.07430  0.78900  0.33550  Biso   1.000  H
  H58      1.0000 0.78850  0.79240  0.60480  Biso   1.000  H
  H59      1.0000 0.46460  0.81820  0.29070  Biso   1.000  H
  H60      1.0000 0.72250  0.10100  0.24280  Biso   1.000  H
  H61      1.0000 0.42970  0.71180  0.16980  Biso   1.000  H
  H62      1.0000 0.69860  0.70460  0.89340  Biso   1.000  H
  H63      1.0000 0.95400  0.17890  0.29270  Biso   1.000  H
  H64      1.0000 0.20580  0.89510  0.23860  Biso   1.000  H
  H65      1.0000 0.90370  0.75910  0.33520  Biso   1.000  H
  H66      1.0000 0.88050  0.71560  0.38980  Biso   1.000  H
  H67      1.0000 0.84770  0.78520  0.39130  Biso   1.000  H
  H68      1.0000 0.24880  0.81480  0.50560  Biso   1.000  H
  H69      1.0000 0.15890  0.83650  0.54390  Biso   1.000  H
  H70      1.0000 0.18760  0.76630  0.54220  Biso   1.000  H
  H71      1.0000 0.99430  0.63110  0.58580  Biso   1.000  H
  H72      1.0000 0.01320  0.64060  0.51690  Biso   1.000  H
  H73      1.0000 0.08110  0.67280  0.56420  Biso   1.000  H
  H74      1.0000 0.79670  0.88390  0.54150  Biso   1.000  H
  H75      1.0000 0.90380  0.89800  0.52080  Biso   1.000  H
  H76      1.0000 0.83030  0.86660  0.47620  Biso   1.000  H
  H77      1.0000 0.28990  0.98840  0.33720  Biso   1.000  H
  H78      1.0000 0.37960  0.02650  0.36060  Biso   1.000  H
  H79      1.0000 0.34930  0.03030  0.29270  Biso   1.000  H
  H80      1.0000 0.63190  0.82060  0.26310  Biso   1.000  H
  H81      1.0000 0.66030  0.88170  0.22920  Biso   1.000  H
  H82      1.0000 0.68830  0.87320  0.29710  Biso   1.000  H
  H83      1.0000 0.58950  0.08230  0.42660  Biso   1.000  H
  H84      1.0000 0.49260  0.05290  0.40230  Biso   1.000  H
  H85      1.0000 0.57890  0.01010  0.42280  Biso   1.000  H
  H86      1.0000 0.69200  0.03260  0.16160  Biso   1.000  H
  H87      1.0000 0.67420  0.96480  0.18420  Biso   1.000  H
  H88      1.0000 0.58580  0.00550  0.16320  Biso   1.000  H
  H89      1.0000 0.59930  0.73390  0.17190  Biso   1.000  H
  H90      1.0000 0.65220  0.70590  0.11550  Biso   1.000  H
  H91      1.0000 0.63250  0.77740  0.11920  Biso   1.000  H
  H92      1.0000 0.25330  0.70530  0.00010  Biso   1.000  H
  H93      1.0000 0.31980  0.75380  0.96740  Biso   1.000  H
  H94      1.0000 0.34070  0.68280  0.96020  Biso   1.000  H
  H95      1.0000 0.52450  0.87890  0.92700  Biso   1.000  H
  H96      1.0000 0.43500  0.84210  0.95260  Biso   1.000  H
  H97      1.0000 0.51550  0.86730  0.99650  Biso   1.000  H
  H98      1.0000 0.67940  0.61210  0.95390  Biso   1.000  H
  H99      1.0000 0.65470  0.62820  0.02090  Biso   1.000  H
  H100     1.0000 0.57200  0.60560  0.97740  Biso   1.000  H
  H101     1.0000 0.79390  0.01080  0.36020  Biso   1.000  H
  H102     1.0000 0.84760  0.96540  0.31630  Biso   1.000  H
  H103     1.0000 0.88870  0.97640  0.38120  Biso   1.000  H
  H104     1.0000 0.11850  0.17480  0.25290  Biso   1.000  H
  H105     1.0000 0.18080  0.12320  0.28440  Biso   1.000  H
  H106     1.0000 0.13740  0.11170  0.22010  Biso   1.000  H
  H107     1.0000 0.12070  0.92530  0.43170  Biso   1.000  H
  H108     1.0000 0.10920  0.99710  0.42410  Biso   1.000  H
  H109     1.0000 0.01850  0.95360  0.41580  Biso   1.000  H
  H110     1.0000 0.14520  0.95570  0.15690  Biso   1.000  H
  H111     1.0000 0.03880  0.97880  0.16970  Biso   1.000  H
  H112     1.0000 0.12690  0.02470  0.17550  Biso   1.000  H
  H113     1.0000 0.57430  0.71100  0.66450  Biso   1.000  H
  H114     1.0000 0.28850  0.70760  0.39520  Biso   1.000  H
  H115     1.0000 0.96460  0.68180  0.70930  Biso   1.000  H
  H116     1.0000 0.22250  0.39900  0.75720  Biso   1.000  H
  H117     1.0000 0.92970  0.78820  0.83020  Biso   1.000  H
  H118     1.0000 0.19860  0.79540  0.10660  Biso   1.000  H
  H119     1.0000 0.45400  0.32110  0.70730  Biso   1.000  H
  H120     1.0000 0.70580  0.60490  0.76140  Biso   1.000  H
  H121     1.0000 0.40370  0.74090  0.66480  Biso   1.000  H
  H122     1.0000 0.38050  0.78440  0.61020  Biso   1.000  H
  H123     1.0000 0.34770  0.71480  0.60870  Biso   1.000  H
  H124     1.0000 0.74880  0.68520  0.49440  Biso   1.000  H
  H125     1.0000 0.65890  0.66350  0.45610  Biso   1.000  H
  H126     1.0000 0.68760  0.73370  0.45780  Biso   1.000  H
  H127     1.0000 0.49430  0.86890  0.41420  Biso   1.000  H
  H128     1.0000 0.51320  0.85940  0.48310  Biso   1.000  H
  H129     1.0000 0.58110  0.82720  0.43580  Biso   1.000  H
  H130     1.0000 0.29670  0.61610  0.45850  Biso   1.000  H
  H131     1.0000 0.40380  0.60200  0.47920  Biso   1.000  H
  H132     1.0000 0.33030  0.63340  0.52380  Biso   1.000  H
  H133     1.0000 0.78990  0.51160  0.66280  Biso   1.000  H
  H134     1.0000 0.87960  0.47350  0.63940  Biso   1.000  H
  H135     1.0000 0.84930  0.46970  0.70730  Biso   1.000  H
  H136     1.0000 0.13190  0.67940  0.73690  Biso   1.000  H
  H137     1.0000 0.16030  0.61830  0.77080  Biso   1.000  H
  H138     1.0000 0.18830  0.62680  0.70290  Biso   1.000  H
  H139     1.0000 0.08950  0.41770  0.57340  Biso   1.000  H
  H140     1.0000 0.99260  0.44710  0.59770  Biso   1.000  H
  H141     1.0000 0.07890  0.48990  0.57720  Biso   1.000  H
  H142     1.0000 0.19200  0.46740  0.83840  Biso   1.000  H
  H143     1.0000 0.17420  0.53520  0.81580  Biso   1.000  H
  H144     1.0000 0.08580  0.49450  0.83680  Biso   1.000  H
  H145     1.0000 0.09930  0.76610  0.82810  Biso   1.000  H
  H146     1.0000 0.15220  0.79410  0.88450  Biso   1.000  H
  H147     1.0000 0.13250  0.72260  0.88080  Biso   1.000  H
  H148     1.0000 0.75330  0.79470  0.99990  Biso   1.000  H
  H149     1.0000 0.81980  0.74620  0.03260  Biso   1.000  H
  H150     1.0000 0.84070  0.81720  0.03980  Biso   1.000  H
  H151     1.0000 0.02450  0.62110  0.07300  Biso   1.000  H
  H152     1.0000 0.93500  0.65790  0.04740  Biso   1.000  H
  H153     1.0000 0.01550  0.63270  0.00350  Biso   1.000  H
  H154     1.0000 0.17940  0.88790  0.04610  Biso   1.000  H
  H155     1.0000 0.15470  0.87180  0.97910  Biso   1.000  H
  H156     1.0000 0.07200  0.89440  0.02260  Biso   1.000  H
  H157     1.0000 0.29390  0.48920  0.63980  Biso   1.000  H
  H158     1.0000 0.34760  0.53460  0.68370  Biso   1.000  H
  H159     1.0000 0.38870  0.52360  0.61880  Biso   1.000  H
  H160     1.0000 0.61850  0.32520  0.74710  Biso   1.000  H
  H161     1.0000 0.68080  0.37680  0.71560  Biso   1.000  H
  H162     1.0000 0.63740  0.38830  0.77990  Biso   1.000  H
  H163     1.0000 0.62070  0.57470  0.56830  Biso   1.000  H
  H164     1.0000 0.60920  0.50290  0.57590  Biso   1.000  H
  H165     1.0000 0.51850  0.54640  0.58420  Biso   1.000  H
  H166     1.0000 0.64520  0.54430  0.84310  Biso   1.000  H
  H167     1.0000 0.53880  0.52120  0.83030  Biso   1.000  H
  H168     1.0000 0.62690  0.47530  0.82450  Biso   1.000  H
  H169     1.0000 0.92570  0.28900  0.16450  Biso   1.000  H
  H170     1.0000 0.21150  0.29240  0.89520  Biso   1.000  H
  H171     1.0000 0.53540  0.31820  0.20930  Biso   1.000  H
  H172     1.0000 0.27750  0.60100  0.25720  Biso   1.000  H
  H173     1.0000 0.57030  0.21180  0.33020  Biso   1.000  H
  H174     1.0000 0.30140  0.20460  0.60660  Biso   1.000  H
  H175     1.0000 0.04600  0.67890  0.20730  Biso   1.000  H
  H176     1.0000 0.79420  0.39510  0.26140  Biso   1.000  H
  H177     1.0000 0.09630  0.25910  0.16480  Biso   1.000  H
  H178     1.0000 0.11950  0.21560  0.11020  Biso   1.000  H
  H179     1.0000 0.15230  0.28520  0.10870  Biso   1.000  H
  H180     1.0000 0.75120  0.31480  0.99440  Biso   1.000  H
  H181     1.0000 0.84110  0.33650  0.95610  Biso   1.000  H
  H182     1.0000 0.81240  0.26630  0.95780  Biso   1.000  H
  H183     1.0000 0.00570  0.13110  0.91420  Biso   1.000  H
  H184     1.0000 0.98680  0.14060  0.98310  Biso   1.000  H
  H185     1.0000 0.91890  0.17280  0.93580  Biso   1.000  H
  H186     1.0000 0.20330  0.38390  0.95850  Biso   1.000  H
  H187     1.0000 0.09620  0.39800  0.97920  Biso   1.000  H
  H188     1.0000 0.16970  0.36660  0.02380  Biso   1.000  H
  H189     1.0000 0.71010  0.48840  0.16280  Biso   1.000  H
  H190     1.0000 0.62040  0.52650  0.13940  Biso   1.000  H
  H191     1.0000 0.65070  0.53030  0.20730  Biso   1.000  H
  H192     1.0000 0.36810  0.32060  0.23690  Biso   1.000  H
  H193     1.0000 0.33970  0.38170  0.27080  Biso   1.000  H
  H194     1.0000 0.31170  0.37320  0.20290  Biso   1.000  H
  H195     1.0000 0.41050  0.58230  0.07340  Biso   1.000  H
  H196     1.0000 0.50740  0.55290  0.09770  Biso   1.000  H
  H197     1.0000 0.42110  0.51010  0.07720  Biso   1.000  H
  H198     1.0000 0.30800  0.53260  0.33840  Biso   1.000  H
  H199     1.0000 0.32580  0.46480  0.31580  Biso   1.000  H
  H200     1.0000 0.41420  0.50550  0.33680  Biso   1.000  H
  H201     1.0000 0.40070  0.23390  0.32810  Biso   1.000  H
  H202     1.0000 0.34780  0.20590  0.38450  Biso   1.000  H
  H203     1.0000 0.36750  0.27740  0.38080  Biso   1.000  H
  H204     1.0000 0.74670  0.20530  0.49990  Biso   1.000  H
  H205     1.0000 0.68020  0.25380  0.53260  Biso   1.000  H
  H206     1.0000 0.65930  0.18280  0.53980  Biso   1.000  H
  H207     1.0000 0.47550  0.37890  0.57300  Biso   1.000  H
  H208     1.0000 0.56500  0.34210  0.54740  Biso   1.000  H
  H209     1.0000 0.48450  0.36730  0.50350  Biso   1.000  H
  H210     1.0000 0.32060  0.11210  0.54610  Biso   1.000  H
  H211     1.0000 0.34530  0.12820  0.47910  Biso   1.000  H
  H212     1.0000 0.42800  0.10560  0.52260  Biso   1.000  H
  H213     1.0000 0.20610  0.51080  0.13980  Biso   1.000  H
  H214     1.0000 0.15240  0.46540  0.18370  Biso   1.000  H
  H215     1.0000 0.11130  0.47640  0.11880  Biso   1.000  H
  H216     1.0000 0.88150  0.67480  0.24710  Biso   1.000  H
  H217     1.0000 0.81920  0.62320  0.21560  Biso   1.000  H
  H218     1.0000 0.86260  0.61170  0.27990  Biso   1.000  H
  H219     1.0000 0.87930  0.42530  0.06830  Biso   1.000  H
  H220     1.0000 0.89080  0.49710  0.07590  Biso   1.000  H
  H221     1.0000 0.98150  0.45360  0.08420  Biso   1.000  H
  H222     1.0000 0.85480  0.45570  0.34310  Biso   1.000  H
  H223     1.0000 0.96120  0.47880  0.33030  Biso   1.000  H
  H224     1.0000 0.87310  0.52470  0.32450  Biso   1.000  H
  C1       1.0000 0.38000  0.20540  0.96660  Biso   1.000  C
  C2       1.0000 0.48000  0.22180  0.96680  Biso   1.000  C
  C3       1.0000 0.50680  0.22550  0.90680  Biso   1.000  C
  C4       1.0000 0.60240  0.24300  0.87820  Biso   1.000  C
  C5       1.0000 0.31550  0.19610  0.01920  Biso   1.000  C
  C6       1.0000 0.61810  0.19330  0.03940  Biso   1.000  C
  C7       1.0000 0.54460  0.23230  0.01920  Biso   1.000  C
  C8       1.0000 0.55060  0.28450  0.05610  Biso   1.000  C
  C9       1.0000 0.48460  0.34000  0.05570  Biso   1.000  C
  C10      1.0000 0.64970  0.13050  0.01750  Biso   1.000  C
  C11      1.0000 0.95460  0.10710  0.78520  Biso   1.000  C
  C12      1.0000 0.98110  0.04730  0.79640  Biso   1.000  C
  C13      1.0000 0.08030  0.04970  0.81310  Biso   1.000  C
  C14      1.0000 0.14630  0.99630  0.82720  Biso   1.000  C
  C15      1.0000 0.86010  0.13540  0.76700  Biso   1.000  C
  C16      1.0000 0.86440  0.97050  0.74570  Biso   1.000  C
  C17      1.0000 0.91920  0.99190  0.79440  Biso   1.000  C
  C18      1.0000 0.89750  0.95030  0.84160  Biso   1.000  C
  C19      1.0000 0.93770  0.95140  0.90380  Biso   1.000  C
  C20      1.0000 0.85200  0.99400  0.68310  Biso   1.000  C
  C21      1.0000 0.11640  0.28360  0.54020  Biso   1.000  C
  C22      1.0000 0.01540  0.27150  0.53970  Biso   1.000  C
  C23      1.0000 0.98830  0.27180  0.59910  Biso   1.000  C
  C24      1.0000 0.89260  0.26290  0.62910  Biso   1.000  C
  C25      1.0000 0.18130  0.28560  0.48740  Biso   1.000  C
  C26      1.0000 0.88860  0.30580  0.46280  Biso   1.000  C
  C27      1.0000 0.95210  0.26180  0.48700  Biso   1.000  C
  C28      1.0000 0.94140  0.20880  0.45070  Biso   1.000  C
  C29      1.0000 0.99650  0.14990  0.45730  Biso   1.000  C
  C30      1.0000 0.86890  0.37060  0.48030  Biso   1.000  C
  C31      1.0000 0.46310  0.89490  0.78570  Biso   1.000  C
  C32      1.0000 0.48700  0.95560  0.80210  Biso   1.000  C
  C33      1.0000 0.58310  0.95230  0.82470  Biso   1.000  C
  C34      1.0000 0.64360  0.00460  0.84760  Biso   1.000  C
  C35      1.0000 0.37380  0.86900  0.75840  Biso   1.000  C
  C36      1.0000 0.38290  0.03460  0.74580  Biso   1.000  C
  C37      1.0000 0.42360  0.01020  0.79760  Biso   1.000  C
  C38      1.0000 0.38960  0.04840  0.84500  Biso   1.000  C
  C39      1.0000 0.41230  0.04260  0.90990  Biso   1.000  C
  C40      1.0000 0.39400  0.01730  0.68120  Biso   1.000  C
  C41      1.0000 0.27190  0.42940  0.51510  Biso   1.000  C
  C42      1.0000 0.17090  0.07390  0.98140  Biso   1.000  C
  C43      1.0000 0.12000  0.79460  0.46660  Biso   1.000  C
  C44      1.0000 0.02000  0.77820  0.46680  Biso   1.000  C
  C45      1.0000 0.99320  0.77450  0.40680  Biso   1.000  C
  C46      1.0000 0.89760  0.75700  0.37820  Biso   1.000  C
  C47      1.0000 0.18450  0.80390  0.51920  Biso   1.000  C
  C48      1.0000 0.88190  0.80670  0.53940  Biso   1.000  C
  C49      1.0000 0.95540  0.76770  0.51920  Biso   1.000  C
  C50      1.0000 0.94940  0.71550  0.55610  Biso   1.000  C
  C51      1.0000 0.01540  0.66000  0.55570  Biso   1.000  C
  C52      1.0000 0.85030  0.86950  0.51750  Biso   1.000  C
  C53      1.0000 0.54540  0.89290  0.28520  Biso   1.000  C
  C54      1.0000 0.51890  0.95270  0.29640  Biso   1.000  C
  C55      1.0000 0.41970  0.95030  0.31310  Biso   1.000  C
  C56      1.0000 0.35370  0.00370  0.32720  Biso   1.000  C
  C57      1.0000 0.63990  0.86460  0.26700  Biso   1.000  C
  C58      1.0000 0.63560  0.02950  0.24570  Biso   1.000  C
  C59      1.0000 0.58080  0.00810  0.29440  Biso   1.000  C
  C60      1.0000 0.60250  0.04970  0.34160  Biso   1.000  C
  C61      1.0000 0.56230  0.04860  0.40380  Biso   1.000  C
  C62      1.0000 0.64800  0.00600  0.18310  Biso   1.000  C
  C63      1.0000 0.38360  0.71640  0.04020  Biso   1.000  C
  C64      1.0000 0.48460  0.72850  0.03970  Biso   1.000  C
  C65      1.0000 0.51170  0.72820  0.09910  Biso   1.000  C
  C66      1.0000 0.60740  0.73710  0.12910  Biso   1.000  C
  C67      1.0000 0.31870  0.71440  0.98740  Biso   1.000  C
  C68      1.0000 0.61140  0.69420  0.96280  Biso   1.000  C
  C69      1.0000 0.54790  0.73820  0.98700  Biso   1.000  C
  C70      1.0000 0.55860  0.79120  0.95070  Biso   1.000  C
  C71      1.0000 0.50350  0.85010  0.95730  Biso   1.000  C
  C72      1.0000 0.63110  0.62940  0.98030  Biso   1.000  C
  C73      1.0000 0.03690  0.10510  0.28570  Biso   1.000  C
  C74      1.0000 0.01300  0.04440  0.30210  Biso   1.000  C
  C75      1.0000 0.91690  0.04770  0.32470  Biso   1.000  C
  C76      1.0000 0.85640  0.99540  0.34760  Biso   1.000  C
  C77      1.0000 0.12620  0.13100  0.25840  Biso   1.000  C
  C78      1.0000 0.11710  0.96540  0.24580  Biso   1.000  C
  C79      1.0000 0.07640  0.98980  0.29760  Biso   1.000  C
  C80      1.0000 0.11040  0.95160  0.34500  Biso   1.000  C
  C81      1.0000 0.08770  0.95740  0.40990  Biso   1.000  C
  C82      1.0000 0.10600  0.98270  0.18120  Biso   1.000  C
  C83      1.0000 0.22810  0.57060  0.01510  Biso   1.000  C
  C84      1.0000 0.32910  0.92610  0.48140  Biso   1.000  C
  C85      1.0000 0.62000  0.70540  0.53340  Biso   1.000  C
  C86      1.0000 0.52000  0.72180  0.53320  Biso   1.000  C
  C87      1.0000 0.49320  0.72550  0.59320  Biso   1.000  C
  C88      1.0000 0.39760  0.74300  0.62180  Biso   1.000  C
  C89      1.0000 0.68450  0.69610  0.48080  Biso   1.000  C
  C90      1.0000 0.38190  0.69330  0.46060  Biso   1.000  C
  C91      1.0000 0.45540  0.73230  0.48080  Biso   1.000  C
  C92      1.0000 0.44940  0.78450  0.44390  Biso   1.000  C
  C93      1.0000 0.51540  0.84000  0.44430  Biso   1.000  C
  C94      1.0000 0.35030  0.63050  0.48250  Biso   1.000  C
  C95      1.0000 0.04540  0.60710  0.71480  Biso   1.000  C
  C96      1.0000 0.01890  0.54730  0.70360  Biso   1.000  C
  C97      1.0000 0.91970  0.54970  0.68690  Biso   1.000  C
  C98      1.0000 0.85370  0.49630  0.67280  Biso   1.000  C
  C99      1.0000 0.13990  0.63540  0.73300  Biso   1.000  C
  C100     1.0000 0.13560  0.47050  0.75430  Biso   1.000  C
  C101     1.0000 0.08080  0.49190  0.70560  Biso   1.000  C
  C102     1.0000 0.10250  0.45030  0.65840  Biso   1.000  C
  C103     1.0000 0.06230  0.45140  0.59620  Biso   1.000  C
  C104     1.0000 0.14800  0.49400  0.81690  Biso   1.000  C
  C105     1.0000 0.88360  0.78360  0.95980  Biso   1.000  C
  C106     1.0000 0.98460  0.77150  0.96030  Biso   1.000  C
  C107     1.0000 0.01170  0.77180  0.90090  Biso   1.000  C
  C108     1.0000 0.10740  0.76290  0.87090  Biso   1.000  C
  C109     1.0000 0.81870  0.78560  0.01260  Biso   1.000  C
  C110     1.0000 0.11140  0.80580  0.03720  Biso   1.000  C
  C111     1.0000 0.04790  0.76180  0.01300  Biso   1.000  C
  C112     1.0000 0.05860  0.70880  0.04930  Biso   1.000  C
  C113     1.0000 0.00350  0.64990  0.04270  Biso   1.000  C
  C114     1.0000 0.13110  0.87060  0.01970  Biso   1.000  C
  C115     1.0000 0.53690  0.39490  0.71430  Biso   1.000  C
  C116     1.0000 0.51300  0.45560  0.69790  Biso   1.000  C
  C117     1.0000 0.41690  0.45230  0.67530  Biso   1.000  C
  C118     1.0000 0.35640  0.50460  0.65240  Biso   1.000  C
  C119     1.0000 0.62620  0.36900  0.74160  Biso   1.000  C
  C120     1.0000 0.61710  0.53460  0.75420  Biso   1.000  C
  C121     1.0000 0.57640  0.51020  0.70240  Biso   1.000  C
  C122     1.0000 0.61040  0.54840  0.65500  Biso   1.000  C
  C123     1.0000 0.58770  0.54260  0.59010  Biso   1.000  C
  C124     1.0000 0.60600  0.51730  0.81880  Biso   1.000  C
  C125     1.0000 0.72810  0.92940  0.98490  Biso   1.000  C
  C126     1.0000 0.82910  0.57390  0.51860  Biso   1.000  C
  C127     1.0000 0.88000  0.29460  0.03340  Biso   1.000  C
  C128     1.0000 0.98000  0.27820  0.03320  Biso   1.000  C
  C129     1.0000 0.00680  0.27450  0.09320  Biso   1.000  C
  C130     1.0000 0.10240  0.25700  0.12180  Biso   1.000  C
  C131     1.0000 0.81550  0.30390  0.98080  Biso   1.000  C
  C132     1.0000 0.11810  0.30670  0.96060  Biso   1.000  C
  C133     1.0000 0.04460  0.26770  0.98080  Biso   1.000  C
  C134     1.0000 0.05060  0.21550  0.94390  Biso   1.000  C
  C135     1.0000 0.98460  0.16000  0.94430  Biso   1.000  C
  C136     1.0000 0.14970  0.36950  0.98250  Biso   1.000  C
  C137     1.0000 0.45460  0.39290  0.21480  Biso   1.000  C
  C138     1.0000 0.48110  0.45270  0.20360  Biso   1.000  C
  C139     1.0000 0.58030  0.45030  0.18690  Biso   1.000  C
  C140     1.0000 0.64630  0.50370  0.17280  Biso   1.000  C
  C141     1.0000 0.36010  0.36460  0.23300  Biso   1.000  C
  C142     1.0000 0.36440  0.52950  0.25430  Biso   1.000  C
  C143     1.0000 0.41920  0.50810  0.20560  Biso   1.000  C
  C144     1.0000 0.39750  0.54970  0.15840  Biso   1.000  C
  C145     1.0000 0.43770  0.54860  0.09620  Biso   1.000  C
  C146     1.0000 0.35200  0.50600  0.31690  Biso   1.000  C
  C147     1.0000 0.61640  0.21640  0.45980  Biso   1.000  C
  C148     1.0000 0.51540  0.22850  0.46030  Biso   1.000  C
  C149     1.0000 0.48830  0.22820  0.40090  Biso   1.000  C
  C150     1.0000 0.39260  0.23710  0.37090  Biso   1.000  C
  C151     1.0000 0.68130  0.21440  0.51260  Biso   1.000  C
  C152     1.0000 0.38860  0.19420  0.53720  Biso   1.000  C
  C153     1.0000 0.45210  0.23820  0.51300  Biso   1.000  C
  C154     1.0000 0.44140  0.29120  0.54930  Biso   1.000  C
  C155     1.0000 0.49650  0.35010  0.54270  Biso   1.000  C
  C156     1.0000 0.36890  0.12940  0.51970  Biso   1.000  C
  C157     1.0000 0.96310  0.60510  0.21430  Biso   1.000  C
  C158     1.0000 0.98700  0.54440  0.19790  Biso   1.000  C
  C159     1.0000 0.08310  0.54770  0.17530  Biso   1.000  C
  C160     1.0000 0.14360  0.49540  0.15240  Biso   1.000  C
  C161     1.0000 0.87380  0.63100  0.24160  Biso   1.000  C
  C162     1.0000 0.88290  0.46540  0.25420  Biso   1.000  C
  C163     1.0000 0.92360  0.48980  0.20240  Biso   1.000  C
  C164     1.0000 0.88960  0.45160  0.15500  Biso   1.000  C
  C165     1.0000 0.91230  0.45740  0.09010  Biso   1.000  C
  C166     1.0000 0.89400  0.48270  0.31880  Biso   1.000  C
  C167     1.0000 0.77190  0.07060  0.48490  Biso   1.000  C
  C168     1.0000 0.67090  0.42610  0.01860  Biso   1.000  C
  S1       1.0000 0.28745  0.23539  0.73823  Biso   1.000  S
  S2       1.0000 0.13310  0.04386  0.04411  Biso   1.000  S
  S3       1.0000 0.26160  0.47030  0.45331  Biso   1.000  S
  S4       1.0000 0.21255  0.76461  0.23823  Biso   1.000  S
  S5       1.0000 0.36690  0.95614  0.54411  Biso   1.000  S
  S6       1.0000 0.23840  0.52970  0.95331  Biso   1.000  S
  S7       1.0000 0.71255  0.73539  0.76177  Biso   1.000  S
  S8       1.0000 0.86690  0.54386  0.45589  Biso   1.000  S
  S9       1.0000 0.73840  0.97030  0.04669  Biso   1.000  S
  S10      1.0000 0.78745  0.26461  0.26177  Biso   1.000  S
  S11      1.0000 0.63310  0.45614  0.95589  Biso   1.000  S
  S12      1.0000 0.76160  0.02970  0.54669  Biso   1.000  S
  N1       1.0000 0.34820  0.19880  0.90970  Biso   1.000  N
  N2       1.0000 0.42700  0.21170  0.87410  Biso   1.000  N
  N3       1.0000 0.62240  0.27910  0.09600  Biso   1.000  N
  N4       1.0000 0.66300  0.22260  0.08500  Biso   1.000  N
  N5       1.0000 0.11190  0.10830  0.81300  Biso   1.000  N
  N6       1.0000 0.03420  0.14230  0.79520  Biso   1.000  N
  N7       1.0000 0.83630  0.90710  0.82320  Biso   1.000  N
  N8       1.0000 0.81640  0.92040  0.76490  Biso   1.000  N
  N9       1.0000 0.14850  0.29190  0.59590  Biso   1.000  N
  N10      1.0000 0.06930  0.28480  0.63130  Biso   1.000  N
  N11      1.0000 0.84410  0.27760  0.41590  Biso   1.000  N
  N12      1.0000 0.87400  0.21820  0.40820  Biso   1.000  N
  N13      1.0000 0.54230  0.86040  0.79890  Biso   1.000  N
  N14      1.0000 0.61430  0.89390  0.82260  Biso   1.000  N
  N15      1.0000 0.33060  0.09230  0.82350  Biso   1.000  N
  N16      1.0000 0.32780  0.08260  0.76310  Biso   1.000  N
  N17      1.0000 0.19850  0.09510  0.93670  Biso   1.000  N
  N18      1.0000 0.27570  0.40190  0.55820  Biso   1.000  N
  N19      1.0000 0.15180  0.80120  0.40970  Biso   1.000  N
  N20      1.0000 0.07300  0.78830  0.37410  Biso   1.000  N
  N21      1.0000 0.87760  0.72090  0.59600  Biso   1.000  N
  N22      1.0000 0.83700  0.77740  0.58500  Biso   1.000  N
  N23      1.0000 0.38810  0.89170  0.31300  Biso   1.000  N
  N24      1.0000 0.46580  0.85770  0.29520  Biso   1.000  N
  N25      1.0000 0.66370  0.09290  0.32320  Biso   1.000  N
  N26      1.0000 0.68360  0.07960  0.26490  Biso   1.000  N
  N27      1.0000 0.35150  0.70810  0.09590  Biso   1.000  N
  N28      1.0000 0.43070  0.71520  0.13130  Biso   1.000  N
  N29      1.0000 0.65590  0.72240  0.91590  Biso   1.000  N
  N30      1.0000 0.62600  0.78180  0.90820  Biso   1.000  N
  N31      1.0000 0.95770  0.13960  0.29890  Biso   1.000  N
  N32      1.0000 0.88570  0.10610  0.32260  Biso   1.000  N
  N33      1.0000 0.16940  0.90770  0.32350  Biso   1.000  N
  N34      1.0000 0.17220  0.91740  0.26310  Biso   1.000  N
  N35      1.0000 0.30150  0.90490  0.43670  Biso   1.000  N
  N36      1.0000 0.22430  0.59810  0.05820  Biso   1.000  N
  N37      1.0000 0.65180  0.69880  0.59030  Biso   1.000  N
  N38      1.0000 0.57300  0.71170  0.62590  Biso   1.000  N
  N39      1.0000 0.37760  0.77910  0.40400  Biso   1.000  N
  N40      1.0000 0.33700  0.72260  0.41500  Biso   1.000  N
  N41      1.0000 0.88810  0.60830  0.68700  Biso   1.000  N
  N42      1.0000 0.96580  0.64230  0.70480  Biso   1.000  N
  N43      1.0000 0.16370  0.40710  0.67680  Biso   1.000  N
  N44      1.0000 0.18360  0.42040  0.73510  Biso   1.000  N
  N45      1.0000 0.85150  0.79190  0.90410  Biso   1.000  N
  N46      1.0000 0.93070  0.78480  0.86870  Biso   1.000  N
  N47      1.0000 0.15590  0.77760  0.08410  Biso   1.000  N
  N48      1.0000 0.12600  0.71820  0.09180  Biso   1.000  N
  N49      1.0000 0.45770  0.36040  0.70110  Biso   1.000  N
  N50      1.0000 0.38570  0.39390  0.67740  Biso   1.000  N
  N51      1.0000 0.66940  0.59230  0.67650  Biso   1.000  N
  N52      1.0000 0.67220  0.58260  0.73690  Biso   1.000  N
  N53      1.0000 0.80150  0.59510  0.56330  Biso   1.000  N
  N54      1.0000 0.72430  0.90190  0.94180  Biso   1.000  N
  N55      1.0000 0.84820  0.30120  0.09030  Biso   1.000  N
  N56      1.0000 0.92700  0.28830  0.12590  Biso   1.000  N
  N57      1.0000 0.12240  0.22090  0.90400  Biso   1.000  N
  N58      1.0000 0.16300  0.27740  0.91500  Biso   1.000  N
  N59      1.0000 0.61190  0.39170  0.18700  Biso   1.000  N
  N60      1.0000 0.53420  0.35770  0.20480  Biso   1.000  N
  N61      1.0000 0.33630  0.59290  0.17680  Biso   1.000  N
  N62      1.0000 0.31640  0.57960  0.23510  Biso   1.000  N
  N63      1.0000 0.64850  0.20810  0.40410  Biso   1.000  N
  N64      1.0000 0.56930  0.21520  0.36870  Biso   1.000  N
  N65      1.0000 0.34410  0.22240  0.58410  Biso   1.000  N
  N66      1.0000 0.37400  0.28180  0.59180  Biso   1.000  N
  N67      1.0000 0.04230  0.63960  0.20110  Biso   1.000  N
  N68      1.0000 0.11430  0.60610  0.17740  Biso   1.000  N
  N69      1.0000 0.83060  0.40770  0.17650  Biso   1.000  N
  N70      1.0000 0.82780  0.41740  0.23690  Biso   1.000  N
  N71      1.0000 0.69850  0.40490  0.06330  Biso   1.000  N
  N72      1.0000 0.77570  0.09810  0.44180  Biso   1.000  N
  O1       1.0000 0.25010  0.29428  0.71405  Biso   1.000  O
  O2       1.0000 0.23560  0.22362  0.79592  Biso   1.000  O
  O3       1.0000 0.26780  0.18481  0.69612  Biso   1.000  O
  O4       1.0000 0.39250  0.24190  0.75007  Biso   1.000  O
  O5       1.0000 0.24990  0.70572  0.21405  Biso   1.000  O
  O6       1.0000 0.26440  0.77638  0.29592  Biso   1.000  O
  O7       1.0000 0.23220  0.81519  0.19612  Biso   1.000  O
  O8       1.0000 0.10750  0.75810  0.25007  Biso   1.000  O
  O9       1.0000 0.74990  0.79428  0.78595  Biso   1.000  O
  O10      1.0000 0.76440  0.72362  0.70408  Biso   1.000  O
  O11      1.0000 0.73220  0.68481  0.80388  Biso   1.000  O
  O12      1.0000 0.60750  0.74190  0.74993  Biso   1.000  O
  O13      1.0000 0.75010  0.20572  0.28595  Biso   1.000  O
  O14      1.0000 0.73560  0.27638  0.20408  Biso   1.000  O
  O15      1.0000 0.76780  0.31519  0.30388  Biso   1.000  O
  O16      1.0000 0.89250  0.25810  0.24993  Biso   1.000  O
