data_image0
_cell_length_a       11.7056
_cell_length_b       12.3216
_cell_length_c       12.7812
_cell_angle_alpha    90
_cell_angle_beta     98.154
_cell_angle_gamma    90

_symmetry_space_group_name_H-M    P 1
_symmetry_int_tables_number       1

loop_
  _symmetry_equiv_pos_as_xyz
  'x, y, z'

loop_
  _atom_site_label
  _atom_site_occupancy
  _atom_site_fract_x
  _atom_site_fract_y
  _atom_site_fract_z
  _atom_site_thermal_displace_type
  _atom_site_B_iso_or_equiv
  _atom_site_type_symbol
  Mn1      1.0000 0.35960  0.87620  0.33510  Biso   1.000  Mn
  Mn2      1.0000 0.64040  0.37620  0.16490  Biso   1.000  Mn
  Mn3      1.0000 0.64040  0.12380  0.66490  Biso   1.000  Mn
  Mn4      1.0000 0.35960  0.62380  0.83510  Biso   1.000  Mn
  Mn5      1.0000 0.50000  0.50000  0.50000  Biso   1.000  Mn
  Mn6      1.0000 0.50000  0.00000  0.00000  Biso   1.000  Mn
  H1       1.0000 0.40750  0.66360  0.27650  Biso   1.000  H
  H2       1.0000 0.42040  0.79220  0.14720  Biso   1.000  H
  H3       1.0000 0.56090  0.00150  0.36890  Biso   1.000  H
  H4       1.0000 0.54730  0.87420  0.49770  Biso   1.000  H
  H5       1.0000 0.27800  0.64780  0.45970  Biso   1.000  H
  H6       1.0000 0.08290  0.65480  0.45630  Biso   1.000  H
  H7       1.0000 0.09320  0.34430  0.54350  Biso   1.000  H
  H8       1.0000 0.28770  0.34820  0.54410  Biso   1.000  H
  H9       1.0000 0.59250  0.16360  0.22350  Biso   1.000  H
  H10      1.0000 0.57960  0.29220  0.35280  Biso   1.000  H
  H11      1.0000 0.43910  0.50150  0.13110  Biso   1.000  H
  H12      1.0000 0.45270  0.37420  0.00230  Biso   1.000  H
  H13      1.0000 0.72200  0.14780  0.04030  Biso   1.000  H
  H14      1.0000 0.91710  0.15480  0.04370  Biso   1.000  H
  H15      1.0000 0.90680  0.84430  0.95650  Biso   1.000  H
  H16      1.0000 0.71230  0.84820  0.95590  Biso   1.000  H
  H17      1.0000 0.59250  0.33640  0.72350  Biso   1.000  H
  H18      1.0000 0.57960  0.20780  0.85280  Biso   1.000  H
  H19      1.0000 0.43910  0.99850  0.63110  Biso   1.000  H
  H20      1.0000 0.45270  0.12580  0.50230  Biso   1.000  H
  H21      1.0000 0.72200  0.35220  0.54030  Biso   1.000  H
  H22      1.0000 0.91710  0.34520  0.54370  Biso   1.000  H
  H23      1.0000 0.90680  0.65570  0.45650  Biso   1.000  H
  H24      1.0000 0.71230  0.65180  0.45590  Biso   1.000  H
  H25      1.0000 0.40750  0.83640  0.77650  Biso   1.000  H
  H26      1.0000 0.42040  0.70780  0.64720  Biso   1.000  H
  H27      1.0000 0.56090  0.49850  0.86890  Biso   1.000  H
  H28      1.0000 0.54730  0.62580  0.99770  Biso   1.000  H
  H29      1.0000 0.27800  0.85220  0.95970  Biso   1.000  H
  H30      1.0000 0.08290  0.84520  0.95630  Biso   1.000  H
  H31      1.0000 0.09320  0.15570  0.04350  Biso   1.000  H
  H32      1.0000 0.28770  0.15180  0.04410  Biso   1.000  H
  C1       1.0000 0.49330  0.74390  0.40240  Biso   1.000  C
  C2       1.0000 0.44600  0.72820  0.29550  Biso   1.000  C
  C3       1.0000 0.45460  0.80680  0.21600  Biso   1.000  C
  C4       1.0000 0.51350  0.90710  0.23740  Biso   1.000  C
  C5       1.0000 0.53820  0.93140  0.34850  Biso   1.000  C
  C6       1.0000 0.52930  0.85400  0.42710  Biso   1.000  C
  C7       1.0000 0.30050  0.87110  0.45680  Biso   1.000  C
  C8       1.0000 0.22800  0.82480  0.26250  Biso   1.000  C
  C9       1.0000 0.31590  0.01470  0.30910  Biso   1.000  C
  C10      1.0000 0.24020  0.58530  0.47710  Biso   1.000  C
  C11      1.0000 0.12240  0.59070  0.47490  Biso   1.000  C
  C12      1.0000 0.06390  0.49970  0.50060  Biso   1.000  C
  C13      1.0000 0.12850  0.40810  0.52620  Biso   1.000  C
  C14      1.0000 0.24590  0.41130  0.52610  Biso   1.000  C
  C15      1.0000 0.50670  0.24390  0.09760  Biso   1.000  C
  C16      1.0000 0.55400  0.22820  0.20450  Biso   1.000  C
  C17      1.0000 0.54540  0.30680  0.28400  Biso   1.000  C
  C18      1.0000 0.48650  0.40710  0.26260  Biso   1.000  C
  C19      1.0000 0.46180  0.43140  0.15150  Biso   1.000  C
  C20      1.0000 0.47070  0.35400  0.07290  Biso   1.000  C
  C21      1.0000 0.69950  0.37110  0.04320  Biso   1.000  C
  C22      1.0000 0.77200  0.32480  0.23750  Biso   1.000  C
  C23      1.0000 0.68410  0.51470  0.19090  Biso   1.000  C
  C24      1.0000 0.75980  0.08530  0.02290  Biso   1.000  C
  C25      1.0000 0.87760  0.09070  0.02510  Biso   1.000  C
  C26      1.0000 0.93610  0.99970  0.99940  Biso   1.000  C
  C27      1.0000 0.87150  0.90810  0.97380  Biso   1.000  C
  C28      1.0000 0.75410  0.91130  0.97390  Biso   1.000  C
  C29      1.0000 0.50670  0.25610  0.59760  Biso   1.000  C
  C30      1.0000 0.55400  0.27180  0.70450  Biso   1.000  C
  C31      1.0000 0.54540  0.19320  0.78400  Biso   1.000  C
  C32      1.0000 0.48650  0.09290  0.76260  Biso   1.000  C
  C33      1.0000 0.46180  0.06860  0.65150  Biso   1.000  C
  C34      1.0000 0.47070  0.14600  0.57290  Biso   1.000  C
  C35      1.0000 0.69950  0.12890  0.54320  Biso   1.000  C
  C36      1.0000 0.77200  0.17520  0.73750  Biso   1.000  C
  C37      1.0000 0.68410  0.98530  0.69090  Biso   1.000  C
  C38      1.0000 0.75980  0.41470  0.52290  Biso   1.000  C
  C39      1.0000 0.87760  0.40930  0.52510  Biso   1.000  C
  C40      1.0000 0.93610  0.50030  0.49940  Biso   1.000  C
  C41      1.0000 0.87150  0.59190  0.47380  Biso   1.000  C
  C42      1.0000 0.75410  0.58870  0.47390  Biso   1.000  C
  C43      1.0000 0.49330  0.75610  0.90240  Biso   1.000  C
  C44      1.0000 0.44600  0.77180  0.79550  Biso   1.000  C
  C45      1.0000 0.45460  0.69320  0.71600  Biso   1.000  C
  C46      1.0000 0.51350  0.59290  0.73740  Biso   1.000  C
  C47      1.0000 0.53820  0.56860  0.84850  Biso   1.000  C
  C48      1.0000 0.52930  0.64600  0.92710  Biso   1.000  C
  C49      1.0000 0.30050  0.62890  0.95680  Biso   1.000  C
  C50      1.0000 0.22800  0.67520  0.76250  Biso   1.000  C
  C51      1.0000 0.31590  0.48530  0.80910  Biso   1.000  C
  C52      1.0000 0.24020  0.91470  0.97710  Biso   1.000  C
  C53      1.0000 0.12240  0.90930  0.97490  Biso   1.000  C
  C54      1.0000 0.06390  0.00030  0.00060  Biso   1.000  C
  C55      1.0000 0.12850  0.09190  0.02620  Biso   1.000  C
  C56      1.0000 0.24590  0.08870  0.02610  Biso   1.000  C
  N1       1.0000 0.30350  0.49810  0.50210  Biso   1.000  N
  N2       1.0000 0.69650  0.99810  0.99790  Biso   1.000  N
  N3       1.0000 0.69650  0.50190  0.49790  Biso   1.000  N
  N4       1.0000 0.30350  0.00190  0.00210  Biso   1.000  N
  O1       1.0000 0.49550  0.67310  0.47550  Biso   1.000  O
  O2       1.0000 0.53560  0.97560  0.16840  Biso   1.000  O
  O3       1.0000 0.26710  0.86580  0.53660  Biso   1.000  O
  O4       1.0000 0.14690  0.78920  0.21560  Biso   1.000  O
  O5       1.0000 0.28990  0.10300  0.29330  Biso   1.000  O
  O6       1.0000 0.50450  0.17310  0.02450  Biso   1.000  O
  O7       1.0000 0.46440  0.47560  0.33160  Biso   1.000  O
  O8       1.0000 0.73290  0.36580  0.96340  Biso   1.000  O
  O9       1.0000 0.85310  0.28920  0.28440  Biso   1.000  O
  O10      1.0000 0.71010  0.60300  0.20670  Biso   1.000  O
  O11      1.0000 0.50450  0.32690  0.52450  Biso   1.000  O
  O12      1.0000 0.46440  0.02440  0.83160  Biso   1.000  O
  O13      1.0000 0.73290  0.13420  0.46340  Biso   1.000  O
  O14      1.0000 0.85310  0.21080  0.78440  Biso   1.000  O
  O15      1.0000 0.71010  0.89700  0.70670  Biso   1.000  O
  O16      1.0000 0.49550  0.82690  0.97550  Biso   1.000  O
  O17      1.0000 0.53560  0.52440  0.66840  Biso   1.000  O
  O18      1.0000 0.26710  0.63420  0.03660  Biso   1.000  O
  O19      1.0000 0.14690  0.71080  0.71560  Biso   1.000  O
  O20      1.0000 0.28990  0.39700  0.79330  Biso   1.000  O
