data_image0
_cell_length_a       13.7818
_cell_length_b       15.0617
_cell_length_c       19.3555
_cell_angle_alpha    90
_cell_angle_beta     90
_cell_angle_gamma    90

_symmetry_space_group_name_H-M    P 1
_symmetry_int_tables_number       1

loop_
  _symmetry_equiv_pos_as_xyz
  'x, y, z'

loop_
  _atom_site_label
  _atom_site_occupancy
  _atom_site_fract_x
  _atom_site_fract_y
  _atom_site_fract_z
  _atom_site_thermal_displace_type
  _atom_site_B_iso_or_equiv
  _atom_site_type_symbol
  Cd1      1.0000 0.69768  0.86097  0.03370  Biso   1.000  Cd
  Cd2      1.0000 0.80232  0.13903  0.53370  Biso   1.000  Cd
  Cd3      1.0000 0.30232  0.36097  0.46630  Biso   1.000  Cd
  Cd4      1.0000 0.19768  0.63903  0.96630  Biso   1.000  Cd
  H1       1.0000 0.75600  0.96510  0.89180  Biso   1.000  H
  H2       1.0000 0.66610  0.90840  0.29450  Biso   1.000  H
  H3       1.0000 0.59960  0.79330  0.43330  Biso   1.000  H
  H4       1.0000 0.76820  0.82700  0.89120  Biso   1.000  H
  H5       1.0000 0.91540  0.78840  0.94240  Biso   1.000  H
  H6       1.0000 0.06390  0.87170  0.08850  Biso   1.000  H
  H7       1.0000 0.88890  0.93970  0.76600  Biso   1.000  H
  H8       1.0000 0.95940  0.88510  0.66790  Biso   1.000  H
  H9       1.0000 0.11170  0.94240  0.98580  Biso   1.000  H
  H10      1.0000 0.83130  0.68150  0.89560  Biso   1.000  H
  H11      1.0000 0.96380  0.59130  0.68630  Biso   1.000  H
  H12      1.0000 0.00440  0.01750  0.06520  Biso   1.000  H
  H13      1.0000 0.99820  0.05540  0.98960  Biso   1.000  H
  H14      1.0000 0.84810  0.00910  0.97630  Biso   1.000  H
  H15      1.0000 0.84650  0.99890  0.05700  Biso   1.000  H
  H16      1.0000 0.69580  0.70230  0.38010  Biso   1.000  H
  H17      1.0000 0.98910  0.94920  0.89380  Biso   1.000  H
  H18      1.0000 0.04220  0.85690  0.89920  Biso   1.000  H
  H19      1.0000 0.67090  0.93530  0.17860  Biso   1.000  H
  H20      1.0000 0.80080  0.54490  0.11180  Biso   1.000  H
  H21      1.0000 0.76630  0.61300  0.30950  Biso   1.000  H
  H22      1.0000 0.92670  0.48980  0.76940  Biso   1.000  H
  H23      1.0000 0.75500  0.68130  0.07710  Biso   1.000  H
  H24      1.0000 0.91040  0.85740  0.10480  Biso   1.000  H
  H25      1.0000 0.91300  0.77250  0.05790  Biso   1.000  H
  H26      1.0000 0.82610  0.48100  0.98120  Biso   1.000  H
  H27      1.0000 0.88850  0.56750  0.97370  Biso   1.000  H
  H28      1.0000 0.77820  0.56870  0.95400  Biso   1.000  H
  H29      1.0000 0.87960  0.40110  0.28840  Biso   1.000  H
  H30      1.0000 0.91760  0.49810  0.30010  Biso   1.000  H
  H31      1.0000 0.81400  0.47100  0.32620  Biso   1.000  H
  H32      1.0000 0.76570  0.87750  0.39810  Biso   1.000  H
  H33      1.0000 0.71800  0.75330  0.49840  Biso   1.000  H
  H34      1.0000 0.71410  0.85760  0.50350  Biso   1.000  H
  H35      1.0000 0.00260  0.83890  0.41480  Biso   1.000  H
  H36      1.0000 0.92760  0.91090  0.39120  Biso   1.000  H
  H37      1.0000 0.84490  0.66090  0.42120  Biso   1.000  H
  H38      1.0000 0.95610  0.68170  0.41440  Biso   1.000  H
  H39      1.0000 0.96800  0.72130  0.52340  Biso   1.000  H
  H40      1.0000 0.86810  0.67210  0.53310  Biso   1.000  H
  H41      1.0000 0.84370  0.81540  0.57440  Biso   1.000  H
  H42      1.0000 0.97780  0.87960  0.51930  Biso   1.000  H
  H43      1.0000 0.74400  0.03490  0.39180  Biso   1.000  H
  H44      1.0000 0.83390  0.09160  0.79450  Biso   1.000  H
  H45      1.0000 0.90040  0.20670  0.93330  Biso   1.000  H
  H46      1.0000 0.73180  0.17300  0.39120  Biso   1.000  H
  H47      1.0000 0.58460  0.21160  0.44240  Biso   1.000  H
  H48      1.0000 0.43610  0.12830  0.58850  Biso   1.000  H
  H49      1.0000 0.61110  0.06030  0.26600  Biso   1.000  H
  H50      1.0000 0.54060  0.11490  0.16790  Biso   1.000  H
  H51      1.0000 0.38830  0.05760  0.48580  Biso   1.000  H
  H52      1.0000 0.66870  0.31850  0.39560  Biso   1.000  H
  H53      1.0000 0.53620  0.40870  0.18630  Biso   1.000  H
  H54      1.0000 0.49560  0.98250  0.56520  Biso   1.000  H
  H55      1.0000 0.50180  0.94460  0.48960  Biso   1.000  H
  H56      1.0000 0.65190  0.99090  0.47630  Biso   1.000  H
  H57      1.0000 0.65350  0.00110  0.55700  Biso   1.000  H
  H58      1.0000 0.80420  0.29770  0.88010  Biso   1.000  H
  H59      1.0000 0.51090  0.05080  0.39380  Biso   1.000  H
  H60      1.0000 0.45780  0.14310  0.39920  Biso   1.000  H
  H61      1.0000 0.82910  0.06470  0.67860  Biso   1.000  H
  H62      1.0000 0.69920  0.45510  0.61180  Biso   1.000  H
  H63      1.0000 0.73370  0.38700  0.80950  Biso   1.000  H
  H64      1.0000 0.57330  0.51020  0.26940  Biso   1.000  H
  H65      1.0000 0.74500  0.31870  0.57710  Biso   1.000  H
  H66      1.0000 0.58960  0.14260  0.60480  Biso   1.000  H
  H67      1.0000 0.58700  0.22750  0.55790  Biso   1.000  H
  H68      1.0000 0.67390  0.51900  0.48120  Biso   1.000  H
  H69      1.0000 0.61150  0.43250  0.47370  Biso   1.000  H
  H70      1.0000 0.72180  0.43130  0.45400  Biso   1.000  H
  H71      1.0000 0.62040  0.59890  0.78840  Biso   1.000  H
  H72      1.0000 0.58240  0.50190  0.80010  Biso   1.000  H
  H73      1.0000 0.68600  0.52900  0.82620  Biso   1.000  H
  H74      1.0000 0.73430  0.12250  0.89810  Biso   1.000  H
  H75      1.0000 0.78200  0.24670  0.99840  Biso   1.000  H
  H76      1.0000 0.78590  0.14240  0.00350  Biso   1.000  H
  H77      1.0000 0.49740  0.16110  0.91480  Biso   1.000  H
  H78      1.0000 0.57240  0.08910  0.89120  Biso   1.000  H
  H79      1.0000 0.65510  0.33910  0.92120  Biso   1.000  H
  H80      1.0000 0.54390  0.31830  0.91440  Biso   1.000  H
  H81      1.0000 0.53200  0.27870  0.02340  Biso   1.000  H
  H82      1.0000 0.63190  0.32790  0.03310  Biso   1.000  H
  H83      1.0000 0.65630  0.18460  0.07440  Biso   1.000  H
  H84      1.0000 0.52220  0.12040  0.01930  Biso   1.000  H
  H85      1.0000 0.24400  0.46510  0.60820  Biso   1.000  H
  H86      1.0000 0.33390  0.40840  0.20550  Biso   1.000  H
  H87      1.0000 0.40040  0.29330  0.06670  Biso   1.000  H
  H88      1.0000 0.23180  0.32700  0.60880  Biso   1.000  H
  H89      1.0000 0.08460  0.28840  0.55760  Biso   1.000  H
  H90      1.0000 0.93610  0.37170  0.41150  Biso   1.000  H
  H91      1.0000 0.11110  0.43970  0.73400  Biso   1.000  H
  H92      1.0000 0.04060  0.38510  0.83210  Biso   1.000  H
  H93      1.0000 0.88830  0.44240  0.51420  Biso   1.000  H
  H94      1.0000 0.16870  0.18150  0.60440  Biso   1.000  H
  H95      1.0000 0.03620  0.09130  0.81370  Biso   1.000  H
  H96      1.0000 0.99560  0.51750  0.43480  Biso   1.000  H
  H97      1.0000 0.00180  0.55540  0.51040  Biso   1.000  H
  H98      1.0000 0.15190  0.50910  0.52370  Biso   1.000  H
  H99      1.0000 0.15350  0.49890  0.44300  Biso   1.000  H
  H100     1.0000 0.30420  0.20230  0.11990  Biso   1.000  H
  H101     1.0000 0.01090  0.44920  0.60620  Biso   1.000  H
  H102     1.0000 0.95780  0.35690  0.60080  Biso   1.000  H
  H103     1.0000 0.32910  0.43530  0.32140  Biso   1.000  H
  H104     1.0000 0.19920  0.04490  0.38820  Biso   1.000  H
  H105     1.0000 0.23370  0.11300  0.19050  Biso   1.000  H
  H106     1.0000 0.07330  0.98980  0.73060  Biso   1.000  H
  H107     1.0000 0.24500  0.18130  0.42290  Biso   1.000  H
  H108     1.0000 0.08960  0.35740  0.39520  Biso   1.000  H
  H109     1.0000 0.08700  0.27250  0.44210  Biso   1.000  H
  H110     1.0000 0.17390  0.98100  0.51880  Biso   1.000  H
  H111     1.0000 0.11150  0.06750  0.52630  Biso   1.000  H
  H112     1.0000 0.22180  0.06870  0.54600  Biso   1.000  H
  H113     1.0000 0.12040  0.90110  0.21160  Biso   1.000  H
  H114     1.0000 0.08240  0.99810  0.19990  Biso   1.000  H
  H115     1.0000 0.18600  0.97100  0.17380  Biso   1.000  H
  H116     1.0000 0.23430  0.37750  0.10190  Biso   1.000  H
  H117     1.0000 0.28200  0.25330  0.00160  Biso   1.000  H
  H118     1.0000 0.28590  0.35760  0.99650  Biso   1.000  H
  H119     1.0000 0.99740  0.33890  0.08520  Biso   1.000  H
  H120     1.0000 0.07240  0.41090  0.10880  Biso   1.000  H
  H121     1.0000 0.15510  0.16090  0.07880  Biso   1.000  H
  H122     1.0000 0.04390  0.18170  0.08560  Biso   1.000  H
  H123     1.0000 0.03200  0.22130  0.97660  Biso   1.000  H
  H124     1.0000 0.13190  0.17210  0.96690  Biso   1.000  H
  H125     1.0000 0.15630  0.31540  0.92560  Biso   1.000  H
  H126     1.0000 0.02220  0.37960  0.98070  Biso   1.000  H
  H127     1.0000 0.25600  0.53490  0.10820  Biso   1.000  H
  H128     1.0000 0.16610  0.59160  0.70550  Biso   1.000  H
  H129     1.0000 0.09960  0.70670  0.56670  Biso   1.000  H
  H130     1.0000 0.26820  0.67300  0.10880  Biso   1.000  H
  H131     1.0000 0.41540  0.71160  0.05760  Biso   1.000  H
  H132     1.0000 0.56390  0.62830  0.91150  Biso   1.000  H
  H133     1.0000 0.38890  0.56030  0.23400  Biso   1.000  H
  H134     1.0000 0.45940  0.61490  0.33210  Biso   1.000  H
  H135     1.0000 0.61170  0.55760  0.01420  Biso   1.000  H
  H136     1.0000 0.33130  0.81850  0.10440  Biso   1.000  H
  H137     1.0000 0.46380  0.90870  0.31370  Biso   1.000  H
  H138     1.0000 0.50440  0.48250  0.93480  Biso   1.000  H
  H139     1.0000 0.49820  0.44460  0.01040  Biso   1.000  H
  H140     1.0000 0.34810  0.49090  0.02370  Biso   1.000  H
  H141     1.0000 0.34650  0.50110  0.94300  Biso   1.000  H
  H142     1.0000 0.19580  0.79770  0.61990  Biso   1.000  H
  H143     1.0000 0.48910  0.55080  0.10620  Biso   1.000  H
  H144     1.0000 0.54220  0.64310  0.10080  Biso   1.000  H
  H145     1.0000 0.17090  0.56470  0.82140  Biso   1.000  H
  H146     1.0000 0.30080  0.95510  0.88820  Biso   1.000  H
  H147     1.0000 0.26630  0.88700  0.69050  Biso   1.000  H
  H148     1.0000 0.42670  0.01020  0.23060  Biso   1.000  H
  H149     1.0000 0.25500  0.81870  0.92290  Biso   1.000  H
  H150     1.0000 0.41040  0.64260  0.89520  Biso   1.000  H
  H151     1.0000 0.41300  0.72750  0.94210  Biso   1.000  H
  H152     1.0000 0.32610  0.01900  0.01880  Biso   1.000  H
  H153     1.0000 0.38850  0.93250  0.02630  Biso   1.000  H
  H154     1.0000 0.27820  0.93130  0.04600  Biso   1.000  H
  H155     1.0000 0.37960  0.09890  0.71160  Biso   1.000  H
  H156     1.0000 0.41760  0.00190  0.69990  Biso   1.000  H
  H157     1.0000 0.31400  0.02900  0.67380  Biso   1.000  H
  H158     1.0000 0.26570  0.62250  0.60190  Biso   1.000  H
  H159     1.0000 0.21800  0.74670  0.50160  Biso   1.000  H
  H160     1.0000 0.21410  0.64240  0.49650  Biso   1.000  H
  H161     1.0000 0.50260  0.66110  0.58520  Biso   1.000  H
  H162     1.0000 0.42760  0.58910  0.60880  Biso   1.000  H
  H163     1.0000 0.34490  0.83910  0.57880  Biso   1.000  H
  H164     1.0000 0.45610  0.81830  0.58560  Biso   1.000  H
  H165     1.0000 0.46800  0.77870  0.47660  Biso   1.000  H
  H166     1.0000 0.36810  0.82790  0.46690  Biso   1.000  H
  H167     1.0000 0.34370  0.68460  0.42560  Biso   1.000  H
  H168     1.0000 0.47780  0.62040  0.48070  Biso   1.000  H
  C1       1.0000 0.68290  0.86260  0.26455  Biso   1.000  C
  C2       1.0000 0.82680  0.86050  0.87919  Biso   1.000  C
  C3       1.0000 0.90120  0.85200  0.93811  Biso   1.000  C
  C4       1.0000 0.70450  0.78020  0.29086  Biso   1.000  C
  C5       1.0000 0.92710  0.70140  0.74140  Biso   1.000  C
  C6       1.0000 0.03440  0.85090  0.04535  Biso   1.000  C
  C7       1.0000 0.73250  0.73450  0.17183  Biso   1.000  C
  C8       1.0000 0.87000  0.82260  0.81395  Biso   1.000  C
  C9       1.0000 0.88460  0.72950  0.80507  Biso   1.000  C
  C10      1.0000 0.89830  0.87880  0.76151  Biso   1.000  C
  C11      1.0000 0.94070  0.84500  0.70190  Biso   1.000  C
  C12      1.0000 0.04350  0.92580  0.99200  Biso   1.000  C
  C13      1.0000 0.85980  0.66450  0.85410  Biso   1.000  C
  C14      1.0000 0.93960  0.61020  0.72870  Biso   1.000  C
  C15      1.0000 0.98590  0.00370  0.01810  Biso   1.000  C
  C16      1.0000 0.87820  0.97891  0.01504  Biso   1.000  C
  C17      1.0000 0.69330  0.76587  0.36951  Biso   1.000  C
  C18      1.0000 0.87680  0.57750  0.84180  Biso   1.000  C
  C19      1.0000 0.73380  0.71350  0.24342  Biso   1.000  C
  C20      1.0000 0.99900  0.89770  0.92300  Biso   1.000  C
  C21      1.0000 0.68570  0.87860  0.19416  Biso   1.000  C
  C22      1.0000 0.78530  0.58760  0.14470  Biso   1.000  C
  C23      1.0000 0.76440  0.62790  0.26280  Biso   1.000  C
  C24      1.0000 0.91650  0.54980  0.77780  Biso   1.000  C
  C25      1.0000 0.75760  0.66860  0.12410  Biso   1.000  C
  C26      1.0000 0.79130  0.56630  0.21470  Biso   1.000  C
  C27      1.0000 0.92640  0.83570  0.05900  Biso   1.000  C
  C28      1.0000 0.09120  0.77000  0.02102  Biso   1.000  C
  C29      1.0000 0.83630  0.53360  0.95410  Biso   1.000  C
  C30      1.0000 0.86140  0.46260  0.29040  Biso   1.000  C
  C31      1.0000 0.77150  0.81450  0.41013  Biso   1.000  C
  C32      1.0000 0.75280  0.80770  0.48798  Biso   1.000  C
  C33      1.0000 0.93580  0.85820  0.41930  Biso   1.000  C
  C34      1.0000 0.89460  0.70480  0.43090  Biso   1.000  C
  C35      1.0000 0.90070  0.71980  0.50870  Biso   1.000  C
  C36      1.0000 0.85190  0.80780  0.52440  Biso   1.000  C
  C37      1.0000 0.91560  0.88150  0.49470  Biso   1.000  C
  C38      1.0000 0.87160  0.97400  0.50680  Biso   1.000  C
  C39      1.0000 0.81710  0.13740  0.76455  Biso   1.000  C
  C40      1.0000 0.67320  0.13950  0.37919  Biso   1.000  C
  C41      1.0000 0.59880  0.14800  0.43811  Biso   1.000  C
  C42      1.0000 0.79550  0.21980  0.79086  Biso   1.000  C
  C43      1.0000 0.57290  0.29860  0.24140  Biso   1.000  C
  C44      1.0000 0.46560  0.14910  0.54535  Biso   1.000  C
  C45      1.0000 0.76750  0.26550  0.67183  Biso   1.000  C
  C46      1.0000 0.63000  0.17740  0.31395  Biso   1.000  C
  C47      1.0000 0.61540  0.27050  0.30507  Biso   1.000  C
  C48      1.0000 0.60170  0.12120  0.26151  Biso   1.000  C
  C49      1.0000 0.55930  0.15500  0.20190  Biso   1.000  C
  C50      1.0000 0.45650  0.07420  0.49200  Biso   1.000  C
  C51      1.0000 0.64020  0.33550  0.35410  Biso   1.000  C
  C52      1.0000 0.56040  0.38980  0.22870  Biso   1.000  C
  C53      1.0000 0.51410  0.99630  0.51810  Biso   1.000  C
  C54      1.0000 0.62180  0.02109  0.51504  Biso   1.000  C
  C55      1.0000 0.80670  0.23413  0.86951  Biso   1.000  C
  C56      1.0000 0.62320  0.42250  0.34180  Biso   1.000  C
  C57      1.0000 0.76620  0.28650  0.74342  Biso   1.000  C
  C58      1.0000 0.50100  0.10230  0.42300  Biso   1.000  C
  C59      1.0000 0.81430  0.12140  0.69416  Biso   1.000  C
  C60      1.0000 0.71470  0.41240  0.64470  Biso   1.000  C
  C61      1.0000 0.73560  0.37210  0.76280  Biso   1.000  C
  C62      1.0000 0.58350  0.45020  0.27780  Biso   1.000  C
  C63      1.0000 0.74240  0.33140  0.62410  Biso   1.000  C
  C64      1.0000 0.70870  0.43370  0.71470  Biso   1.000  C
  C65      1.0000 0.57360  0.16430  0.55900  Biso   1.000  C
  C66      1.0000 0.40880  0.23000  0.52102  Biso   1.000  C
  C67      1.0000 0.66370  0.46640  0.45410  Biso   1.000  C
  C68      1.0000 0.63860  0.53740  0.79040  Biso   1.000  C
  C69      1.0000 0.72850  0.18550  0.91013  Biso   1.000  C
  C70      1.0000 0.74720  0.19230  0.98798  Biso   1.000  C
  C71      1.0000 0.56420  0.14180  0.91930  Biso   1.000  C
  C72      1.0000 0.60540  0.29520  0.93090  Biso   1.000  C
  C73      1.0000 0.59930  0.28020  0.00870  Biso   1.000  C
  C74      1.0000 0.64810  0.19220  0.02440  Biso   1.000  C
  C75      1.0000 0.58440  0.11850  0.99470  Biso   1.000  C
  C76      1.0000 0.62840  0.02600  0.00680  Biso   1.000  C
  C77      1.0000 0.31710  0.36260  0.23545  Biso   1.000  C
  C78      1.0000 0.17320  0.36050  0.62081  Biso   1.000  C
  C79      1.0000 0.09880  0.35200  0.56189  Biso   1.000  C
  C80      1.0000 0.29550  0.28020  0.20914  Biso   1.000  C
  C81      1.0000 0.07290  0.20140  0.75860  Biso   1.000  C
  C82      1.0000 0.96560  0.35090  0.45465  Biso   1.000  C
  C83      1.0000 0.26750  0.23450  0.32817  Biso   1.000  C
  C84      1.0000 0.13000  0.32260  0.68605  Biso   1.000  C
  C85      1.0000 0.11540  0.22950  0.69493  Biso   1.000  C
  C86      1.0000 0.10170  0.37880  0.73849  Biso   1.000  C
  C87      1.0000 0.05930  0.34500  0.79810  Biso   1.000  C
  C88      1.0000 0.95650  0.42580  0.50800  Biso   1.000  C
  C89      1.0000 0.14020  0.16450  0.64590  Biso   1.000  C
  C90      1.0000 0.06040  0.11020  0.77130  Biso   1.000  C
  C91      1.0000 0.01410  0.50370  0.48190  Biso   1.000  C
  C92      1.0000 0.12180  0.47891  0.48496  Biso   1.000  C
  C93      1.0000 0.30670  0.26587  0.13049  Biso   1.000  C
  C94      1.0000 0.12320  0.07750  0.65820  Biso   1.000  C
  C95      1.0000 0.26620  0.21350  0.25658  Biso   1.000  C
  C96      1.0000 0.00100  0.39770  0.57700  Biso   1.000  C
  C97      1.0000 0.31430  0.37860  0.30584  Biso   1.000  C
  C98      1.0000 0.21470  0.08760  0.35530  Biso   1.000  C
  C99      1.0000 0.23560  0.12790  0.23720  Biso   1.000  C
  C100     1.0000 0.08350  0.04980  0.72220  Biso   1.000  C
  C101     1.0000 0.24240  0.16860  0.37590  Biso   1.000  C
  C102     1.0000 0.20870  0.06630  0.28530  Biso   1.000  C
  C103     1.0000 0.07360  0.33570  0.44100  Biso   1.000  C
  C104     1.0000 0.90880  0.27000  0.47898  Biso   1.000  C
  C105     1.0000 0.16370  0.03360  0.54590  Biso   1.000  C
  C106     1.0000 0.13860  0.96260  0.20960  Biso   1.000  C
  C107     1.0000 0.22850  0.31450  0.08987  Biso   1.000  C
  C108     1.0000 0.24720  0.30770  0.01202  Biso   1.000  C
  C109     1.0000 0.06420  0.35820  0.08070  Biso   1.000  C
  C110     1.0000 0.10540  0.20480  0.06910  Biso   1.000  C
  C111     1.0000 0.09930  0.21980  0.99130  Biso   1.000  C
  C112     1.0000 0.14810  0.30780  0.97560  Biso   1.000  C
  C113     1.0000 0.08440  0.38150  0.00530  Biso   1.000  C
  C114     1.0000 0.12840  0.47400  0.99320  Biso   1.000  C
  C115     1.0000 0.18290  0.63740  0.73545  Biso   1.000  C
  C116     1.0000 0.32680  0.63950  0.12081  Biso   1.000  C
  C117     1.0000 0.40120  0.64800  0.06189  Biso   1.000  C
  C118     1.0000 0.20450  0.71980  0.70914  Biso   1.000  C
  C119     1.0000 0.42710  0.79860  0.25860  Biso   1.000  C
  C120     1.0000 0.53440  0.64910  0.95465  Biso   1.000  C
  C121     1.0000 0.23250  0.76550  0.82817  Biso   1.000  C
  C122     1.0000 0.37000  0.67740  0.18605  Biso   1.000  C
  C123     1.0000 0.38460  0.77050  0.19493  Biso   1.000  C
  C124     1.0000 0.39830  0.62120  0.23849  Biso   1.000  C
  C125     1.0000 0.44070  0.65500  0.29810  Biso   1.000  C
  C126     1.0000 0.54350  0.57420  0.00800  Biso   1.000  C
  C127     1.0000 0.35980  0.83550  0.14590  Biso   1.000  C
  C128     1.0000 0.43960  0.88980  0.27130  Biso   1.000  C
  C129     1.0000 0.48590  0.49630  0.98190  Biso   1.000  C
  C130     1.0000 0.37820  0.52109  0.98496  Biso   1.000  C
  C131     1.0000 0.19330  0.73413  0.63049  Biso   1.000  C
  C132     1.0000 0.37680  0.92250  0.15820  Biso   1.000  C
  C133     1.0000 0.23380  0.78650  0.75658  Biso   1.000  C
  C134     1.0000 0.49900  0.60230  0.07700  Biso   1.000  C
  C135     1.0000 0.18570  0.62140  0.80584  Biso   1.000  C
  C136     1.0000 0.28530  0.91240  0.85530  Biso   1.000  C
  C137     1.0000 0.26440  0.87210  0.73720  Biso   1.000  C
  C138     1.0000 0.41650  0.95020  0.22220  Biso   1.000  C
  C139     1.0000 0.25760  0.83140  0.87590  Biso   1.000  C
  C140     1.0000 0.29130  0.93370  0.78530  Biso   1.000  C
  C141     1.0000 0.42640  0.66430  0.94100  Biso   1.000  C
  C142     1.0000 0.59120  0.73000  0.97898  Biso   1.000  C
  C143     1.0000 0.33630  0.96640  0.04590  Biso   1.000  C
  C144     1.0000 0.36140  0.03740  0.70960  Biso   1.000  C
  C145     1.0000 0.27150  0.68550  0.58987  Biso   1.000  C
  C146     1.0000 0.25280  0.69230  0.51202  Biso   1.000  C
  C147     1.0000 0.43580  0.64180  0.58070  Biso   1.000  C
  C148     1.0000 0.39460  0.79520  0.56910  Biso   1.000  C
  C149     1.0000 0.40070  0.78020  0.49130  Biso   1.000  C
  C150     1.0000 0.35190  0.69220  0.47560  Biso   1.000  C
  C151     1.0000 0.41560  0.61850  0.50530  Biso   1.000  C
  C152     1.0000 0.37160  0.52600  0.49320  Biso   1.000  C
  N1       1.0000 0.70820  0.81770  0.14823  Biso   1.000  N
  N2       1.0000 0.95630  0.75910  0.69023  Biso   1.000  N
  N3       1.0000 0.86400  0.88119  0.00737  Biso   1.000  N
  N4       1.0000 0.87140  0.78810  0.39349  Biso   1.000  N
  N5       1.0000 0.79180  0.18230  0.64823  Biso   1.000  N
  N6       1.0000 0.54370  0.24090  0.19023  Biso   1.000  N
  N7       1.0000 0.63600  0.11881  0.50737  Biso   1.000  N
  N8       1.0000 0.62860  0.21190  0.89349  Biso   1.000  N
  N9       1.0000 0.29180  0.31770  0.35177  Biso   1.000  N
  N10      1.0000 0.04370  0.25910  0.80977  Biso   1.000  N
  N11      1.0000 0.13600  0.38119  0.49263  Biso   1.000  N
  N12      1.0000 0.12860  0.28810  0.10651  Biso   1.000  N
  N13      1.0000 0.20820  0.68230  0.85177  Biso   1.000  N
  N14      1.0000 0.45630  0.74090  0.30977  Biso   1.000  N
  N15      1.0000 0.36400  0.61881  0.99263  Biso   1.000  N
  N16      1.0000 0.37140  0.71190  0.60651  Biso   1.000  N
  O1       1.0000 0.80120  0.95094  0.86655  Biso   1.000  O
  O2       1.0000 0.60540  0.80110  0.39160  Biso   1.000  O
  O3       1.0000 0.85960  0.50980  0.88688  Biso   1.000  O
  O4       1.0000 0.82500  0.48620  0.23200  Biso   1.000  O
  O5       1.0000 0.18162  0.77141  0.02708  Biso   1.000  O
  O6       1.0000 0.04830  0.70757  0.99214  Biso   1.000  O
  O7       1.0000 0.84820  0.02162  0.45648  Biso   1.000  O
  O8       1.0000 0.86070  0.99963  0.56765  Biso   1.000  O
  O9       1.0000 0.69880  0.04906  0.36655  Biso   1.000  O
  O10      1.0000 0.89460  0.19890  0.89160  Biso   1.000  O
  O11      1.0000 0.64040  0.49020  0.38688  Biso   1.000  O
  O12      1.0000 0.67500  0.51380  0.73200  Biso   1.000  O
  O13      1.0000 0.31838  0.22859  0.52708  Biso   1.000  O
  O14      1.0000 0.45170  0.29243  0.49214  Biso   1.000  O
  O15      1.0000 0.65180  0.97838  0.95648  Biso   1.000  O
  O16      1.0000 0.63930  0.00037  0.06765  Biso   1.000  O
  O17      1.0000 0.19880  0.45094  0.63345  Biso   1.000  O
  O18      1.0000 0.39460  0.30110  0.10840  Biso   1.000  O
  O19      1.0000 0.14040  0.00980  0.61312  Biso   1.000  O
  O20      1.0000 0.17500  0.98620  0.26800  Biso   1.000  O
  O21      1.0000 0.81838  0.27141  0.47292  Biso   1.000  O
  O22      1.0000 0.95170  0.20757  0.50786  Biso   1.000  O
  O23      1.0000 0.15180  0.52162  0.04352  Biso   1.000  O
  O24      1.0000 0.13930  0.49963  0.93235  Biso   1.000  O
  O25      1.0000 0.30120  0.54906  0.13345  Biso   1.000  O
  O26      1.0000 0.10540  0.69890  0.60840  Biso   1.000  O
  O27      1.0000 0.35960  0.99020  0.11312  Biso   1.000  O
  O28      1.0000 0.32500  0.01380  0.76800  Biso   1.000  O
  O29      1.0000 0.68162  0.72859  0.97292  Biso   1.000  O
  O30      1.0000 0.54830  0.79243  0.00786  Biso   1.000  O
  O31      1.0000 0.34820  0.47838  0.54352  Biso   1.000  O
  O32      1.0000 0.36070  0.50037  0.43235  Biso   1.000  O
