data_image0
_cell_length_a       13.8756
_cell_length_b       15.1162
_cell_length_c       19.2999
_cell_angle_alpha    90
_cell_angle_beta     90
_cell_angle_gamma    90

_symmetry_space_group_name_H-M    P 1
_symmetry_int_tables_number       1

loop_
  _symmetry_equiv_pos_as_xyz
  'x, y, z'

loop_
  _atom_site_label
  _atom_site_occupancy
  _atom_site_fract_x
  _atom_site_fract_y
  _atom_site_fract_z
  _atom_site_thermal_displace_type
  _atom_site_B_iso_or_equiv
  _atom_site_type_symbol
  Cd1      1.0000 0.19736  0.86048  0.03281  Biso   1.000  Cd
  Cd2      1.0000 0.30264  0.13952  0.53281  Biso   1.000  Cd
  Cd3      1.0000 0.80264  0.36048  0.46719  Biso   1.000  Cd
  Cd4      1.0000 0.69736  0.63952  0.96719  Biso   1.000  Cd
  H1       1.0000 0.25960  0.96780  0.89260  Biso   1.000  H
  H2       1.0000 0.27030  0.83020  0.89160  Biso   1.000  H
  H3       1.0000 0.41560  0.78910  0.94270  Biso   1.000  H
  H4       1.0000 0.40860  0.85480  0.10670  Biso   1.000  H
  H5       1.0000 0.41130  0.77120  0.05880  Biso   1.000  H
  H6       1.0000 0.15820  0.90480  0.29580  Biso   1.000  H
  H7       1.0000 0.38970  0.94240  0.76740  Biso   1.000  H
  H8       1.0000 0.19750  0.70040  0.38000  Biso   1.000  H
  H9       1.0000 0.54150  0.85460  0.90290  Biso   1.000  H
  H10      1.0000 0.49050  0.94700  0.89630  Biso   1.000  H
  H11      1.0000 0.16410  0.93200  0.17740  Biso   1.000  H
  H12      1.0000 0.34660  0.00930  0.98230  Biso   1.000  H
  H13      1.0000 0.34690  0.99540  0.06290  Biso   1.000  H
  H14      1.0000 0.33250  0.68380  0.89460  Biso   1.000  H
  H15      1.0000 0.26300  0.87780  0.39660  Biso   1.000  H
  H16      1.0000 0.30040  0.54500  0.11140  Biso   1.000  H
  H17      1.0000 0.26250  0.61250  0.31010  Biso   1.000  H
  H18      1.0000 0.46050  0.88710  0.66730  Biso   1.000  H
  H19      1.0000 0.46200  0.59550  0.68450  Biso   1.000  H
  H20      1.0000 0.25350  0.68040  0.07630  Biso   1.000  H
  H21      1.0000 0.49920  0.83740  0.41470  Biso   1.000  H
  H22      1.0000 0.42580  0.91000  0.39020  Biso   1.000  H
  H23      1.0000 0.42490  0.49340  0.76730  Biso   1.000  H
  H24      1.0000 0.32940  0.48280  0.98100  Biso   1.000  H
  H25      1.0000 0.39160  0.56880  0.97330  Biso   1.000  H
  H26      1.0000 0.28140  0.57070  0.95520  Biso   1.000  H
  H27      1.0000 0.09790  0.78920  0.43480  Biso   1.000  H
  H28      1.0000 0.21500  0.75410  0.49940  Biso   1.000  H
  H29      1.0000 0.21170  0.85790  0.50490  Biso   1.000  H
  H30      1.0000 0.34120  0.81580  0.57580  Biso   1.000  H
  H31      1.0000 0.46140  0.71990  0.52570  Biso   1.000  H
  H32      1.0000 0.36080  0.67280  0.53340  Biso   1.000  H
  H33      1.0000 0.47420  0.87990  0.51850  Biso   1.000  H
  H34      1.0000 0.34370  0.66040  0.41990  Biso   1.000  H
  H35      1.0000 0.45350  0.68430  0.41450  Biso   1.000  H
  H36      1.0000 0.61040  0.94070  0.98850  Biso   1.000  H
  H37      1.0000 0.56320  0.86800  0.09230  Biso   1.000  H
  H38      1.0000 0.50540  0.01550  0.06950  Biso   1.000  H
  H39      1.0000 0.49810  0.05430  0.99400  Biso   1.000  H
  H40      1.0000 0.36810  0.40360  0.28420  Biso   1.000  H
  H41      1.0000 0.40150  0.50070  0.29930  Biso   1.000  H
  H42      1.0000 0.29670  0.47090  0.31860  Biso   1.000  H
  H43      1.0000 0.24040  0.03220  0.39260  Biso   1.000  H
  H44      1.0000 0.22970  0.16980  0.39160  Biso   1.000  H
  H45      1.0000 0.08440  0.21090  0.44270  Biso   1.000  H
  H46      1.0000 0.09140  0.14520  0.60670  Biso   1.000  H
  H47      1.0000 0.08870  0.22880  0.55880  Biso   1.000  H
  H48      1.0000 0.34180  0.09520  0.79580  Biso   1.000  H
  H49      1.0000 0.11030  0.05760  0.26740  Biso   1.000  H
  H50      1.0000 0.30250  0.29960  0.88000  Biso   1.000  H
  H51      1.0000 0.95850  0.14540  0.40290  Biso   1.000  H
  H52      1.0000 0.00950  0.05300  0.39630  Biso   1.000  H
  H53      1.0000 0.33590  0.06800  0.67740  Biso   1.000  H
  H54      1.0000 0.15340  0.99070  0.48230  Biso   1.000  H
  H55      1.0000 0.15310  0.00460  0.56290  Biso   1.000  H
  H56      1.0000 0.16750  0.31620  0.39460  Biso   1.000  H
  H57      1.0000 0.23700  0.12220  0.89660  Biso   1.000  H
  H58      1.0000 0.19960  0.45500  0.61140  Biso   1.000  H
  H59      1.0000 0.23750  0.38750  0.81010  Biso   1.000  H
  H60      1.0000 0.03950  0.11290  0.16730  Biso   1.000  H
  H61      1.0000 0.03800  0.40450  0.18450  Biso   1.000  H
  H62      1.0000 0.24650  0.31960  0.57630  Biso   1.000  H
  H63      1.0000 0.00080  0.16260  0.91470  Biso   1.000  H
  H64      1.0000 0.07420  0.09000  0.89020  Biso   1.000  H
  H65      1.0000 0.07510  0.50660  0.26730  Biso   1.000  H
  H66      1.0000 0.17060  0.51720  0.48100  Biso   1.000  H
  H67      1.0000 0.10840  0.43120  0.47330  Biso   1.000  H
  H68      1.0000 0.21860  0.42930  0.45520  Biso   1.000  H
  H69      1.0000 0.40210  0.21080  0.93480  Biso   1.000  H
  H70      1.0000 0.28500  0.24590  0.99940  Biso   1.000  H
  H71      1.0000 0.28830  0.14210  0.00490  Biso   1.000  H
  H72      1.0000 0.15880  0.18420  0.07580  Biso   1.000  H
  H73      1.0000 0.03860  0.28010  0.02570  Biso   1.000  H
  H74      1.0000 0.13920  0.32720  0.03340  Biso   1.000  H
  H75      1.0000 0.02580  0.12010  0.01850  Biso   1.000  H
  H76      1.0000 0.15630  0.33960  0.91990  Biso   1.000  H
  H77      1.0000 0.04650  0.31570  0.91450  Biso   1.000  H
  H78      1.0000 0.88960  0.05930  0.48850  Biso   1.000  H
  H79      1.0000 0.93680  0.13200  0.59230  Biso   1.000  H
  H80      1.0000 0.99460  0.98450  0.56950  Biso   1.000  H
  H81      1.0000 0.00190  0.94570  0.49400  Biso   1.000  H
  H82      1.0000 0.13190  0.59640  0.78420  Biso   1.000  H
  H83      1.0000 0.09850  0.49930  0.79930  Biso   1.000  H
  H84      1.0000 0.20330  0.52910  0.81860  Biso   1.000  H
  H85      1.0000 0.74040  0.46780  0.60740  Biso   1.000  H
  H86      1.0000 0.72970  0.33020  0.60840  Biso   1.000  H
  H87      1.0000 0.58440  0.28910  0.55730  Biso   1.000  H
  H88      1.0000 0.59140  0.35480  0.39330  Biso   1.000  H
  H89      1.0000 0.58870  0.27120  0.44120  Biso   1.000  H
  H90      1.0000 0.84180  0.40480  0.20420  Biso   1.000  H
  H91      1.0000 0.61030  0.44240  0.73260  Biso   1.000  H
  H92      1.0000 0.80250  0.20040  0.12000  Biso   1.000  H
  H93      1.0000 0.45850  0.35460  0.59710  Biso   1.000  H
  H94      1.0000 0.50950  0.44700  0.60370  Biso   1.000  H
  H95      1.0000 0.83590  0.43200  0.32260  Biso   1.000  H
  H96      1.0000 0.65340  0.50930  0.51770  Biso   1.000  H
  H97      1.0000 0.65310  0.49540  0.43710  Biso   1.000  H
  H98      1.0000 0.66750  0.18380  0.60540  Biso   1.000  H
  H99      1.0000 0.73700  0.37780  0.10340  Biso   1.000  H
  H100     1.0000 0.69960  0.04500  0.38860  Biso   1.000  H
  H101     1.0000 0.73750  0.11250  0.18990  Biso   1.000  H
  H102     1.0000 0.53950  0.38710  0.83270  Biso   1.000  H
  H103     1.0000 0.53800  0.09550  0.81550  Biso   1.000  H
  H104     1.0000 0.74650  0.18040  0.42370  Biso   1.000  H
  H105     1.0000 0.50080  0.33740  0.08530  Biso   1.000  H
  H106     1.0000 0.57420  0.41000  0.10980  Biso   1.000  H
  H107     1.0000 0.57510  0.99340  0.73270  Biso   1.000  H
  H108     1.0000 0.67060  0.98280  0.51900  Biso   1.000  H
  H109     1.0000 0.60840  0.06880  0.52670  Biso   1.000  H
  H110     1.0000 0.71860  0.07070  0.54480  Biso   1.000  H
  H111     1.0000 0.90210  0.28920  0.06520  Biso   1.000  H
  H112     1.0000 0.78500  0.25410  0.00060  Biso   1.000  H
  H113     1.0000 0.78830  0.35790  0.99510  Biso   1.000  H
  H114     1.0000 0.65880  0.31580  0.92420  Biso   1.000  H
  H115     1.0000 0.53860  0.21990  0.97430  Biso   1.000  H
  H116     1.0000 0.63920  0.17280  0.96660  Biso   1.000  H
  H117     1.0000 0.52580  0.37990  0.98150  Biso   1.000  H
  H118     1.0000 0.65630  0.16040  0.08010  Biso   1.000  H
  H119     1.0000 0.54650  0.18430  0.08550  Biso   1.000  H
  H120     1.0000 0.38960  0.44070  0.51150  Biso   1.000  H
  H121     1.0000 0.43680  0.36800  0.40770  Biso   1.000  H
  H122     1.0000 0.49460  0.51550  0.43050  Biso   1.000  H
  H123     1.0000 0.50190  0.55430  0.50600  Biso   1.000  H
  H124     1.0000 0.63190  0.90360  0.21580  Biso   1.000  H
  H125     1.0000 0.59850  0.00070  0.20070  Biso   1.000  H
  H126     1.0000 0.70330  0.97090  0.18140  Biso   1.000  H
  H127     1.0000 0.75960  0.53220  0.10740  Biso   1.000  H
  H128     1.0000 0.77030  0.66980  0.10840  Biso   1.000  H
  H129     1.0000 0.91560  0.71090  0.05730  Biso   1.000  H
  H130     1.0000 0.90860  0.64520  0.89330  Biso   1.000  H
  H131     1.0000 0.91130  0.72880  0.94120  Biso   1.000  H
  H132     1.0000 0.65820  0.59520  0.70420  Biso   1.000  H
  H133     1.0000 0.88970  0.55760  0.23260  Biso   1.000  H
  H134     1.0000 0.69750  0.79960  0.62000  Biso   1.000  H
  H135     1.0000 0.04150  0.64540  0.09710  Biso   1.000  H
  H136     1.0000 0.99050  0.55300  0.10370  Biso   1.000  H
  H137     1.0000 0.66410  0.56800  0.82260  Biso   1.000  H
  H138     1.0000 0.84660  0.49070  0.01770  Biso   1.000  H
  H139     1.0000 0.84690  0.50460  0.93710  Biso   1.000  H
  H140     1.0000 0.83250  0.81620  0.10540  Biso   1.000  H
  H141     1.0000 0.76300  0.62220  0.60340  Biso   1.000  H
  H142     1.0000 0.80040  0.95500  0.88860  Biso   1.000  H
  H143     1.0000 0.76250  0.88750  0.68990  Biso   1.000  H
  H144     1.0000 0.96050  0.61290  0.33270  Biso   1.000  H
  H145     1.0000 0.96200  0.90450  0.31550  Biso   1.000  H
  H146     1.0000 0.75350  0.81960  0.92370  Biso   1.000  H
  H147     1.0000 0.99920  0.66260  0.58530  Biso   1.000  H
  H148     1.0000 0.92580  0.59000  0.60980  Biso   1.000  H
  H149     1.0000 0.92490  0.00660  0.23270  Biso   1.000  H
  H150     1.0000 0.82940  0.01720  0.01900  Biso   1.000  H
  H151     1.0000 0.89160  0.93120  0.02670  Biso   1.000  H
  H152     1.0000 0.78140  0.92930  0.04480  Biso   1.000  H
  H153     1.0000 0.59790  0.71080  0.56520  Biso   1.000  H
  H154     1.0000 0.71500  0.74590  0.50060  Biso   1.000  H
  H155     1.0000 0.71170  0.64210  0.49510  Biso   1.000  H
  H156     1.0000 0.84120  0.68420  0.42420  Biso   1.000  H
  H157     1.0000 0.96140  0.78010  0.47430  Biso   1.000  H
  H158     1.0000 0.86080  0.82720  0.46660  Biso   1.000  H
  H159     1.0000 0.97420  0.62010  0.48150  Biso   1.000  H
  H160     1.0000 0.84370  0.83960  0.58010  Biso   1.000  H
  H161     1.0000 0.95350  0.81570  0.58550  Biso   1.000  H
  H162     1.0000 0.11040  0.55930  0.01150  Biso   1.000  H
  H163     1.0000 0.06320  0.63200  0.90770  Biso   1.000  H
  H164     1.0000 0.00540  0.48450  0.93050  Biso   1.000  H
  H165     1.0000 0.99810  0.44570  0.00600  Biso   1.000  H
  H166     1.0000 0.86810  0.09640  0.71580  Biso   1.000  H
  H167     1.0000 0.90150  0.99930  0.70070  Biso   1.000  H
  H168     1.0000 0.79670  0.02910  0.68140  Biso   1.000  H
  C1       1.0000 0.32900  0.86320  0.88010  Biso   1.000  C
  C2       1.0000 0.20060  0.77820  0.29080  Biso   1.000  C
  C3       1.0000 0.40260  0.85270  0.93930  Biso   1.000  C
  C4       1.0000 0.42510  0.83410  0.06070  Biso   1.000  C
  C5       1.0000 0.42780  0.70440  0.74030  Biso   1.000  C
  C6       1.0000 0.17670  0.85990  0.26560  Biso   1.000  C
  C7       1.0000 0.38470  0.73280  0.80460  Biso   1.000  C
  C8       1.0000 0.37190  0.82630  0.81350  Biso   1.000  C
  C9       1.0000 0.39890  0.88180  0.76260  Biso   1.000  C
  C10      1.0000 0.19250  0.76360  0.36930  Biso   1.000  C
  C11      1.0000 0.49880  0.89590  0.92610  Biso   1.000  C
  C12      1.0000 0.18030  0.87590  0.19330  Biso   1.000  C
  C13      1.0000 0.22850  0.73230  0.17070  Biso   1.000  C
  C14      1.0000 0.37750  0.97760  0.01990  Biso   1.000  C
  C15      1.0000 0.36090  0.66740  0.85280  Biso   1.000  C
  C16      1.0000 0.23000  0.71080  0.24280  Biso   1.000  C
  C17      1.0000 0.26890  0.81530  0.40960  Biso   1.000  C
  C18      1.0000 0.28330  0.58720  0.14430  Biso   1.000  C
  C19      1.0000 0.26040  0.62700  0.26330  Biso   1.000  C
  C20      1.0000 0.28740  0.56580  0.21440  Biso   1.000  C
  C21      1.0000 0.44160  0.84730  0.70140  Biso   1.000  C
  C22      1.0000 0.43870  0.61410  0.72730  Biso   1.000  C
  C23      1.0000 0.25520  0.66760  0.12350  Biso   1.000  C
  C24      1.0000 0.43310  0.85770  0.41880  Biso   1.000  C
  C25      1.0000 0.37790  0.58210  0.84030  Biso   1.000  C
  C26      1.0000 0.41590  0.55340  0.77590  Biso   1.000  C
  C27      1.0000 0.33900  0.53550  0.95410  Biso   1.000  C
  C28      1.0000 0.24990  0.80810  0.48910  Biso   1.000  C
  C29      1.0000 0.34870  0.80750  0.52570  Biso   1.000  C
  C30      1.0000 0.39500  0.72000  0.50980  Biso   1.000  C
  C31      1.0000 0.41240  0.88150  0.49400  Biso   1.000  C
  C32      1.0000 0.36880  0.97310  0.50660  Biso   1.000  C
  C33      1.0000 0.39130  0.70550  0.43040  Biso   1.000  C
  C34      1.0000 0.54260  0.92430  0.99490  Biso   1.000  C
  C35      1.0000 0.53410  0.84820  0.04870  Biso   1.000  C
  C36      1.0000 0.48610  0.00240  0.02230  Biso   1.000  C
  C37      1.0000 0.58880  0.76670  0.02330  Biso   1.000  C
  C38      1.0000 0.34810  0.46430  0.28570  Biso   1.000  C
  C39      1.0000 0.17100  0.13680  0.38010  Biso   1.000  C
  C40      1.0000 0.29940  0.22180  0.79080  Biso   1.000  C
  C41      1.0000 0.09740  0.14730  0.43930  Biso   1.000  C
  C42      1.0000 0.07490  0.16590  0.56070  Biso   1.000  C
  C43      1.0000 0.07220  0.29560  0.24030  Biso   1.000  C
  C44      1.0000 0.32330  0.14010  0.76560  Biso   1.000  C
  C45      1.0000 0.11530  0.26720  0.30460  Biso   1.000  C
  C46      1.0000 0.12810  0.17370  0.31350  Biso   1.000  C
  C47      1.0000 0.10110  0.11820  0.26260  Biso   1.000  C
  C48      1.0000 0.30750  0.23640  0.86930  Biso   1.000  C
  C49      1.0000 0.00120  0.10410  0.42610  Biso   1.000  C
  C50      1.0000 0.31970  0.12410  0.69330  Biso   1.000  C
  C51      1.0000 0.27150  0.26770  0.67070  Biso   1.000  C
  C52      1.0000 0.12250  0.02240  0.51990  Biso   1.000  C
  C53      1.0000 0.13910  0.33260  0.35280  Biso   1.000  C
  C54      1.0000 0.27000  0.28920  0.74280  Biso   1.000  C
  C55      1.0000 0.23110  0.18470  0.90960  Biso   1.000  C
  C56      1.0000 0.21670  0.41280  0.64430  Biso   1.000  C
  C57      1.0000 0.23960  0.37300  0.76330  Biso   1.000  C
  C58      1.0000 0.21260  0.43420  0.71440  Biso   1.000  C
  C59      1.0000 0.05840  0.15270  0.20140  Biso   1.000  C
  C60      1.0000 0.06130  0.38590  0.22730  Biso   1.000  C
  C61      1.0000 0.24480  0.33240  0.62350  Biso   1.000  C
  C62      1.0000 0.06690  0.14230  0.91880  Biso   1.000  C
  C63      1.0000 0.12210  0.41790  0.34030  Biso   1.000  C
  C64      1.0000 0.08410  0.44660  0.27590  Biso   1.000  C
  C65      1.0000 0.16100  0.46450  0.45410  Biso   1.000  C
  C66      1.0000 0.25010  0.19190  0.98910  Biso   1.000  C
  C67      1.0000 0.15130  0.19250  0.02570  Biso   1.000  C
  C68      1.0000 0.10500  0.28000  0.00980  Biso   1.000  C
  C69      1.0000 0.08760  0.11850  0.99400  Biso   1.000  C
  C70      1.0000 0.13120  0.02690  0.00660  Biso   1.000  C
  C71      1.0000 0.10870  0.29450  0.93040  Biso   1.000  C
  C72      1.0000 0.95740  0.07570  0.49490  Biso   1.000  C
  C73      1.0000 0.96590  0.15180  0.54870  Biso   1.000  C
  C74      1.0000 0.01390  0.99760  0.52230  Biso   1.000  C
  C75      1.0000 0.91120  0.23330  0.52330  Biso   1.000  C
  C76      1.0000 0.15190  0.53570  0.78570  Biso   1.000  C
  C77      1.0000 0.67100  0.36320  0.61990  Biso   1.000  C
  C78      1.0000 0.79940  0.27820  0.20920  Biso   1.000  C
  C79      1.0000 0.59740  0.35270  0.56070  Biso   1.000  C
  C80      1.0000 0.57490  0.33410  0.43930  Biso   1.000  C
  C81      1.0000 0.57220  0.20440  0.75970  Biso   1.000  C
  C82      1.0000 0.82330  0.35990  0.23440  Biso   1.000  C
  C83      1.0000 0.61530  0.23280  0.69540  Biso   1.000  C
  C84      1.0000 0.62810  0.32630  0.68650  Biso   1.000  C
  C85      1.0000 0.60110  0.38180  0.73740  Biso   1.000  C
  C86      1.0000 0.80750  0.26360  0.13070  Biso   1.000  C
  C87      1.0000 0.50120  0.39590  0.57390  Biso   1.000  C
  C88      1.0000 0.81970  0.37590  0.30670  Biso   1.000  C
  C89      1.0000 0.77150  0.23230  0.32930  Biso   1.000  C
  C90      1.0000 0.62250  0.47760  0.48010  Biso   1.000  C
  C91      1.0000 0.63910  0.16740  0.64720  Biso   1.000  C
  C92      1.0000 0.77000  0.21080  0.25720  Biso   1.000  C
  C93      1.0000 0.73110  0.31530  0.09040  Biso   1.000  C
  C94      1.0000 0.71670  0.08720  0.35570  Biso   1.000  C
  C95      1.0000 0.73960  0.12700  0.23670  Biso   1.000  C
  C96      1.0000 0.71260  0.06580  0.28560  Biso   1.000  C
  C97      1.0000 0.55840  0.34730  0.79860  Biso   1.000  C
  C98      1.0000 0.56130  0.11410  0.77270  Biso   1.000  C
  C99      1.0000 0.74480  0.16760  0.37650  Biso   1.000  C
  C100     1.0000 0.56690  0.35770  0.08120  Biso   1.000  C
  C101     1.0000 0.62210  0.08210  0.65970  Biso   1.000  C
  C102     1.0000 0.58410  0.05340  0.72410  Biso   1.000  C
  C103     1.0000 0.66100  0.03550  0.54590  Biso   1.000  C
  C104     1.0000 0.75010  0.30810  0.01090  Biso   1.000  C
  C105     1.0000 0.65130  0.30750  0.97430  Biso   1.000  C
  C106     1.0000 0.60500  0.22000  0.99020  Biso   1.000  C
  C107     1.0000 0.58760  0.38150  0.00600  Biso   1.000  C
  C108     1.0000 0.63120  0.47310  0.99340  Biso   1.000  C
  C109     1.0000 0.60870  0.20550  0.06960  Biso   1.000  C
  C110     1.0000 0.45740  0.42430  0.50510  Biso   1.000  C
  C111     1.0000 0.46590  0.34820  0.45130  Biso   1.000  C
  C112     1.0000 0.51390  0.50240  0.47770  Biso   1.000  C
  C113     1.0000 0.41120  0.26670  0.47670  Biso   1.000  C
  C114     1.0000 0.65190  0.96430  0.21430  Biso   1.000  C
  C115     1.0000 0.82900  0.63680  0.11990  Biso   1.000  C
  C116     1.0000 0.70060  0.72180  0.70920  Biso   1.000  C
  C117     1.0000 0.90260  0.64730  0.06070  Biso   1.000  C
  C118     1.0000 0.92510  0.66590  0.93930  Biso   1.000  C
  C119     1.0000 0.92780  0.79560  0.25970  Biso   1.000  C
  C120     1.0000 0.67670  0.64010  0.73440  Biso   1.000  C
  C121     1.0000 0.88470  0.76720  0.19540  Biso   1.000  C
  C122     1.0000 0.87190  0.67370  0.18650  Biso   1.000  C
  C123     1.0000 0.89890  0.61820  0.23740  Biso   1.000  C
  C124     1.0000 0.69250  0.73640  0.63070  Biso   1.000  C
  C125     1.0000 0.99880  0.60410  0.07390  Biso   1.000  C
  C126     1.0000 0.68030  0.62410  0.80670  Biso   1.000  C
  C127     1.0000 0.72850  0.76770  0.82930  Biso   1.000  C
  C128     1.0000 0.87750  0.52240  0.98010  Biso   1.000  C
  C129     1.0000 0.86090  0.83260  0.14720  Biso   1.000  C
  C130     1.0000 0.73000  0.78920  0.75720  Biso   1.000  C
  C131     1.0000 0.76890  0.68470  0.59040  Biso   1.000  C
  C132     1.0000 0.78330  0.91280  0.85570  Biso   1.000  C
  C133     1.0000 0.76040  0.87300  0.73670  Biso   1.000  C
  C134     1.0000 0.78740  0.93420  0.78560  Biso   1.000  C
  C135     1.0000 0.94160  0.65270  0.29860  Biso   1.000  C
  C136     1.0000 0.93870  0.88590  0.27270  Biso   1.000  C
  C137     1.0000 0.75520  0.83240  0.87650  Biso   1.000  C
  C138     1.0000 0.93310  0.64230  0.58120  Biso   1.000  C
  C139     1.0000 0.87790  0.91790  0.15970  Biso   1.000  C
  C140     1.0000 0.91590  0.94660  0.22410  Biso   1.000  C
  C141     1.0000 0.83900  0.96450  0.04590  Biso   1.000  C
  C142     1.0000 0.74990  0.69190  0.51090  Biso   1.000  C
  C143     1.0000 0.84870  0.69250  0.47430  Biso   1.000  C
  C144     1.0000 0.89500  0.78000  0.49020  Biso   1.000  C
  C145     1.0000 0.91240  0.61850  0.50600  Biso   1.000  C
  C146     1.0000 0.86880  0.52690  0.49340  Biso   1.000  C
  C147     1.0000 0.89130  0.79450  0.56960  Biso   1.000  C
  C148     1.0000 0.04260  0.57570  0.00510  Biso   1.000  C
  C149     1.0000 0.03410  0.65180  0.95130  Biso   1.000  C
  C150     1.0000 0.98610  0.49760  0.97770  Biso   1.000  C
  C151     1.0000 0.08880  0.73330  0.97670  Biso   1.000  C
  C152     1.0000 0.84810  0.03570  0.71430  Biso   1.000  C
  N1       1.0000 0.20520  0.81650  0.14810  Biso   1.000  N
  N2       1.0000 0.45580  0.76420  0.69010  Biso   1.000  N
  N3       1.0000 0.36670  0.78720  0.39350  Biso   1.000  N
  N4       1.0000 0.36370  0.88010  0.00960  Biso   1.000  N
  N5       1.0000 0.29480  0.18350  0.64810  Biso   1.000  N
  N6       1.0000 0.04420  0.23580  0.19010  Biso   1.000  N
  N7       1.0000 0.13330  0.21280  0.89350  Biso   1.000  N
  N8       1.0000 0.13630  0.11990  0.50960  Biso   1.000  N
  N9       1.0000 0.79480  0.31650  0.35190  Biso   1.000  N
  N10      1.0000 0.54420  0.26420  0.80990  Biso   1.000  N
  N11      1.0000 0.63330  0.28720  0.10650  Biso   1.000  N
  N12      1.0000 0.63630  0.38010  0.49040  Biso   1.000  N
  N13      1.0000 0.70520  0.68350  0.85190  Biso   1.000  N
  N14      1.0000 0.95580  0.73580  0.30990  Biso   1.000  N
  N15      1.0000 0.86670  0.71280  0.60650  Biso   1.000  N
  N16      1.0000 0.86370  0.61990  0.99040  Biso   1.000  N
  O1       1.0000 0.30490  0.95350  0.86770  Biso   1.000  O
  O2       1.0000 0.36040  0.51250  0.88530  Biso   1.000  O
  O3       1.0000 0.32120  0.48600  0.23090  Biso   1.000  O
  O4       1.0000 0.10260  0.79730  0.39300  Biso   1.000  O
  O5       1.0000 0.34490  0.02140  0.45660  Biso   1.000  O
  O6       1.0000 0.36000  0.00090  0.56750  Biso   1.000  O
  O7       1.0000 0.67970  0.77040  0.02930  Biso   1.000  O
  O8       1.0000 0.54740  0.70540  0.99400  Biso   1.000  O
  O9       1.0000 0.19510  0.04650  0.36770  Biso   1.000  O
  O10      1.0000 0.13960  0.48750  0.38530  Biso   1.000  O
  O11      1.0000 0.17880  0.51400  0.73090  Biso   1.000  O
  O12      1.0000 0.39740  0.20270  0.89300  Biso   1.000  O
  O13      1.0000 0.15510  0.97860  0.95660  Biso   1.000  O
  O14      1.0000 0.14000  0.99910  0.06750  Biso   1.000  O
  O15      1.0000 0.82030  0.22960  0.52930  Biso   1.000  O
  O16      1.0000 0.95260  0.29460  0.49400  Biso   1.000  O
  O17      1.0000 0.69510  0.45350  0.63230  Biso   1.000  O
  O18      1.0000 0.63960  0.01250  0.61470  Biso   1.000  O
  O19      1.0000 0.67880  0.98600  0.26910  Biso   1.000  O
  O20      1.0000 0.89740  0.29730  0.10700  Biso   1.000  O
  O21      1.0000 0.65510  0.52140  0.04340  Biso   1.000  O
  O22      1.0000 0.64000  0.50090  0.93250  Biso   1.000  O
  O23      1.0000 0.32030  0.27040  0.47070  Biso   1.000  O
  O24      1.0000 0.45260  0.20540  0.50600  Biso   1.000  O
  O25      1.0000 0.80490  0.54650  0.13230  Biso   1.000  O
  O26      1.0000 0.86040  0.98750  0.11470  Biso   1.000  O
  O27      1.0000 0.82120  0.01400  0.76910  Biso   1.000  O
  O28      1.0000 0.60260  0.70270  0.60700  Biso   1.000  O
  O29      1.0000 0.84490  0.47860  0.54340  Biso   1.000  O
  O30      1.0000 0.86000  0.49910  0.43250  Biso   1.000  O
  O31      1.0000 0.17970  0.72960  0.97070  Biso   1.000  O
  O32      1.0000 0.04740  0.79460  0.00600  Biso   1.000  O
