data_image0
_cell_length_a       9.6357
_cell_length_b       13.9203
_cell_length_c       17.2875
_cell_angle_alpha    98.1574
_cell_angle_beta     90.2489
_cell_angle_gamma    90.8938

_symmetry_space_group_name_H-M    P 1
_symmetry_int_tables_number       1

loop_
  _symmetry_equiv_pos_as_xyz
  'x, y, z'

loop_
  _atom_site_label
  _atom_site_occupancy
  _atom_site_fract_x
  _atom_site_fract_y
  _atom_site_fract_z
  _atom_site_thermal_displace_type
  _atom_site_B_iso_or_equiv
  _atom_site_type_symbol
  Pr1      1.0000 0.27000  0.39840  0.51308  Biso   1.000  Pr
  Pr2      1.0000 0.73000  0.60160  0.48692  Biso   1.000  Pr
  H1       1.0000 0.10890  0.26210  0.04240  Biso   1.000  H
  H2       1.0000 0.23350  0.25010  0.91570  Biso   1.000  H
  H3       1.0000 0.53670  0.97500  0.75010  Biso   1.000  H
  H4       1.0000 0.58150  0.80300  0.75840  Biso   1.000  H
  H5       1.0000 0.42700  0.55200  0.94820  Biso   1.000  H
  H6       1.0000 0.25880  0.55630  0.05840  Biso   1.000  H
  H7       1.0000 0.97200  0.83770  0.22780  Biso   1.000  H
  H8       1.0000 0.96560  0.01660  0.23400  Biso   1.000  H
  H9       1.0000 0.34000  0.90450  0.93700  Biso   1.000  H
  H10      1.0000 0.21840  0.91460  0.06090  Biso   1.000  H
  H11      1.0000 0.51650  0.23170  0.88460  Biso   1.000  H
  H12      1.0000 0.54410  0.34910  0.80120  Biso   1.000  H
  H13      1.0000 0.43670  0.32810  0.67890  Biso   1.000  H
  H14      1.0000 0.27820  0.06910  0.72130  Biso   1.000  H
  H15      1.0000 0.21210  0.09680  0.53380  Biso   1.000  H
  H16      1.0000 0.69050  0.64030  0.91540  Biso   1.000  H
  H17      1.0000 0.83040  0.53640  0.83240  Biso   1.000  H
  H18      1.0000 0.76140  0.48680  0.70290  Biso   1.000  H
  H19      1.0000 0.40260  0.63350  0.74330  Biso   1.000  H
  H20      1.0000 0.96060  0.60400  0.05580  Biso   1.000  H
  H21      1.0000 0.80970  0.51470  0.12390  Biso   1.000  H
  H22      1.0000 0.81940  0.53030  0.26020  Biso   1.000  H
  H23      1.0000 0.15850  0.70680  0.25890  Biso   1.000  H
  H24      1.0000 0.89100  0.20730  0.09800  Biso   1.000  H
  H25      1.0000 0.80530  0.33680  0.18330  Biso   1.000  H
  H26      1.0000 0.91050  0.38390  0.30510  Biso   1.000  H
  H27      1.0000 0.18420  0.16550  0.25840  Biso   1.000  H
  H28      1.0000 0.15720  0.59710  0.47850  Biso   1.000  H
  H29      1.0000 0.09330  0.58510  0.54150  Biso   1.000  H
  H30      1.0000 0.58130  0.38170  0.51260  Biso   1.000  H
  H31      1.0000 0.50110  0.28030  0.51840  Biso   1.000  H
  H32      1.0000 0.89110  0.73790  0.95760  Biso   1.000  H
  H33      1.0000 0.76650  0.74990  0.08430  Biso   1.000  H
  H34      1.0000 0.46330  0.02500  0.24990  Biso   1.000  H
  H35      1.0000 0.41850  0.19700  0.24160  Biso   1.000  H
  H36      1.0000 0.57300  0.44800  0.05180  Biso   1.000  H
  H37      1.0000 0.74120  0.44370  0.94160  Biso   1.000  H
  H38      1.0000 0.02800  0.16230  0.77220  Biso   1.000  H
  H39      1.0000 0.03440  0.98340  0.76600  Biso   1.000  H
  H40      1.0000 0.66000  0.09550  0.06300  Biso   1.000  H
  H41      1.0000 0.78160  0.08540  0.93910  Biso   1.000  H
  H42      1.0000 0.48350  0.76830  0.11540  Biso   1.000  H
  H43      1.0000 0.45590  0.65090  0.19880  Biso   1.000  H
  H44      1.0000 0.56330  0.67190  0.32110  Biso   1.000  H
  H45      1.0000 0.72180  0.93090  0.27870  Biso   1.000  H
  H46      1.0000 0.78790  0.90320  0.46620  Biso   1.000  H
  H47      1.0000 0.30950  0.35970  0.08460  Biso   1.000  H
  H48      1.0000 0.16960  0.46360  0.16760  Biso   1.000  H
  H49      1.0000 0.23860  0.51320  0.29710  Biso   1.000  H
  H50      1.0000 0.59740  0.36650  0.25670  Biso   1.000  H
  H51      1.0000 0.03940  0.39600  0.94420  Biso   1.000  H
  H52      1.0000 0.19030  0.48530  0.87610  Biso   1.000  H
  H53      1.0000 0.18060  0.46970  0.73980  Biso   1.000  H
  H54      1.0000 0.84150  0.29320  0.74110  Biso   1.000  H
  H55      1.0000 0.10900  0.79270  0.90200  Biso   1.000  H
  H56      1.0000 0.19470  0.66320  0.81670  Biso   1.000  H
  H57      1.0000 0.08950  0.61610  0.69490  Biso   1.000  H
  H58      1.0000 0.81580  0.83450  0.74160  Biso   1.000  H
  H59      1.0000 0.84280  0.40290  0.52150  Biso   1.000  H
  H60      1.0000 0.90670  0.41490  0.45850  Biso   1.000  H
  H61      1.0000 0.41870  0.61830  0.48740  Biso   1.000  H
  H62      1.0000 0.49890  0.71970  0.48160  Biso   1.000  H
  C1       1.0000 0.17010  0.11390  0.04430  Biso   1.000  C
  C2       1.0000 0.15640  0.20720  0.01690  Biso   1.000  C
  C3       1.0000 0.22430  0.20090  0.94830  Biso   1.000  C
  C4       1.0000 0.28120  0.10260  0.93400  Biso   1.000  C
  C5       1.0000 0.36060  0.06990  0.86890  Biso   1.000  C
  C6       1.0000 0.41390  0.97570  0.85230  Biso   1.000  C
  C7       1.0000 0.50190  0.93920  0.78890  Biso   1.000  C
  C8       1.0000 0.52700  0.84510  0.79370  Biso   1.000  C
  C9       1.0000 0.45780  0.81940  0.86100  Biso   1.000  C
  C10      1.0000 0.45540  0.72820  0.88600  Biso   1.000  C
  C11      1.0000 0.38300  0.70350  0.95110  Biso   1.000  C
  C12      1.0000 0.37710  0.60670  0.97190  Biso   1.000  C
  C13      1.0000 0.28600  0.60910  0.03230  Biso   1.000  C
  C14      1.0000 0.23940  0.70770  0.04850  Biso   1.000  C
  C15      1.0000 0.14660  0.74040  0.10890  Biso   1.000  C
  C16      1.0000 0.11300  0.83820  0.13250  Biso   1.000  C
  C17      1.0000 0.02090  0.87520  0.19470  Biso   1.000  C
  C18      1.0000 0.01630  0.97330  0.19760  Biso   1.000  C
  C19      1.0000 0.10100  0.99980  0.13620  Biso   1.000  C
  C20      1.0000 0.10990  0.09260  0.11420  Biso   1.000  C
  C21      1.0000 0.39090  0.13980  0.81200  Biso   1.000  C
  C22      1.0000 0.47220  0.22270  0.83480  Biso   1.000  C
  C23      1.0000 0.48900  0.29260  0.78500  Biso   1.000  C
  C24      1.0000 0.42590  0.28000  0.71230  Biso   1.000  C
  C25      1.0000 0.34630  0.19650  0.68810  Biso   1.000  C
  C26      1.0000 0.33080  0.12660  0.73820  Biso   1.000  C
  C27      1.0000 0.27970  0.18300  0.60840  Biso   1.000  C
  C28      1.0000 0.53560  0.65160  0.83680  Biso   1.000  C
  C29      1.0000 0.66130  0.61950  0.86310  Biso   1.000  C
  C30      1.0000 0.74470  0.55740  0.81370  Biso   1.000  C
  C31      1.0000 0.70270  0.52640  0.73760  Biso   1.000  C
  C32      1.0000 0.57360  0.55350  0.71190  Biso   1.000  C
  C33      1.0000 0.49060  0.61550  0.76110  Biso   1.000  C
  C34      1.0000 0.52660  0.51710  0.63000  Biso   1.000  C
  C35      1.0000 0.06970  0.66970  0.15090  Biso   1.000  C
  C36      1.0000 0.96810  0.60900  0.11110  Biso   1.000  C
  C37      1.0000 0.87800  0.55610  0.15170  Biso   1.000  C
  C38      1.0000 0.88620  0.56270  0.23240  Biso   1.000  C
  C39      1.0000 0.99320  0.61720  0.27220  Biso   1.000  C
  C40      1.0000 0.08500  0.67010  0.23150  Biso   1.000  C
  C41      1.0000 0.00860  0.62090  0.35950  Biso   1.000  C
  C42      1.0000 0.04790  0.17350  0.16820  Biso   1.000  C
  C43      1.0000 0.93420  0.22530  0.14760  Biso   1.000  C
  C44      1.0000 0.88320  0.30260  0.19830  Biso   1.000  C
  C45      1.0000 0.94510  0.33030  0.27090  Biso   1.000  C
  C46      1.0000 0.05760  0.27970  0.29340  Biso   1.000  C
  C47      1.0000 0.10820  0.20090  0.24250  Biso   1.000  C
  C48      1.0000 0.12860  0.31210  0.36970  Biso   1.000  C
  C49      1.0000 0.82990  0.88610  0.95570  Biso   1.000  C
  C50      1.0000 0.84360  0.79280  0.98310  Biso   1.000  C
  C51      1.0000 0.77570  0.79910  0.05170  Biso   1.000  C
  C52      1.0000 0.71880  0.89740  0.06600  Biso   1.000  C
  C53      1.0000 0.63940  0.93010  0.13110  Biso   1.000  C
  C54      1.0000 0.58610  0.02430  0.14770  Biso   1.000  C
  C55      1.0000 0.49810  0.06080  0.21110  Biso   1.000  C
  C56      1.0000 0.47300  0.15490  0.20630  Biso   1.000  C
  C57      1.0000 0.54220  0.18060  0.13900  Biso   1.000  C
  C58      1.0000 0.54460  0.27180  0.11400  Biso   1.000  C
  C59      1.0000 0.61700  0.29650  0.04890  Biso   1.000  C
  C60      1.0000 0.62290  0.39330  0.02810  Biso   1.000  C
  C61      1.0000 0.71400  0.39090  0.96770  Biso   1.000  C
  C62      1.0000 0.76060  0.29230  0.95150  Biso   1.000  C
  C63      1.0000 0.85340  0.25960  0.89110  Biso   1.000  C
  C64      1.0000 0.88700  0.16180  0.86750  Biso   1.000  C
  C65      1.0000 0.97910  0.12480  0.80530  Biso   1.000  C
  C66      1.0000 0.98370  0.02670  0.80240  Biso   1.000  C
  C67      1.0000 0.89900  0.00020  0.86380  Biso   1.000  C
  C68      1.0000 0.89010  0.90740  0.88580  Biso   1.000  C
  C69      1.0000 0.60910  0.86020  0.18800  Biso   1.000  C
  C70      1.0000 0.52780  0.77730  0.16520  Biso   1.000  C
  C71      1.0000 0.51100  0.70740  0.21500  Biso   1.000  C
  C72      1.0000 0.57410  0.72000  0.28770  Biso   1.000  C
  C73      1.0000 0.65370  0.80350  0.31190  Biso   1.000  C
  C74      1.0000 0.66920  0.87340  0.26180  Biso   1.000  C
  C75      1.0000 0.72030  0.81700  0.39160  Biso   1.000  C
  C76      1.0000 0.46440  0.34840  0.16320  Biso   1.000  C
  C77      1.0000 0.33870  0.38050  0.13690  Biso   1.000  C
  C78      1.0000 0.25530  0.44260  0.18630  Biso   1.000  C
  C79      1.0000 0.29730  0.47360  0.26240  Biso   1.000  C
  C80      1.0000 0.42640  0.44650  0.28810  Biso   1.000  C
  C81      1.0000 0.50940  0.38450  0.23890  Biso   1.000  C
  C82      1.0000 0.47340  0.48290  0.37000  Biso   1.000  C
  C83      1.0000 0.93030  0.33030  0.84910  Biso   1.000  C
  C84      1.0000 0.03190  0.39100  0.88890  Biso   1.000  C
  C85      1.0000 0.12200  0.44390  0.84830  Biso   1.000  C
  C86      1.0000 0.11380  0.43730  0.76760  Biso   1.000  C
  C87      1.0000 0.00680  0.38280  0.72780  Biso   1.000  C
  C88      1.0000 0.91500  0.32990  0.76850  Biso   1.000  C
  C89      1.0000 0.99140  0.37910  0.64050  Biso   1.000  C
  C90      1.0000 0.95210  0.82650  0.83180  Biso   1.000  C
  C91      1.0000 0.06580  0.77470  0.85240  Biso   1.000  C
  C92      1.0000 0.11680  0.69740  0.80170  Biso   1.000  C
  C93      1.0000 0.05490  0.66970  0.72910  Biso   1.000  C
  C94      1.0000 0.94240  0.72030  0.70660  Biso   1.000  C
  C95      1.0000 0.89180  0.79910  0.75750  Biso   1.000  C
  C96      1.0000 0.87140  0.68790  0.63030  Biso   1.000  C
  N1       1.0000 0.24320  0.05120  0.99294  Biso   1.000  N
  N2       1.0000 0.39060  0.90090  0.89453  Biso   1.000  N
  N3       1.0000 0.30040  0.76510  0.99932  Biso   1.000  N
  N4       1.0000 0.15940  0.91710  0.09980  Biso   1.000  N
  N5       1.0000 0.75680  0.94880  0.00706  Biso   1.000  N
  N6       1.0000 0.60940  0.09910  0.10547  Biso   1.000  N
  N7       1.0000 0.69960  0.23490  0.00068  Biso   1.000  N
  N8       1.0000 0.84060  0.08290  0.90020  Biso   1.000  N
  O1       1.0000 0.23340  0.09830  0.58110  Biso   1.000  O
  O2       1.0000 0.27950  0.25260  0.57053  Biso   1.000  O
  O3       1.0000 0.40040  0.49430  0.61909  Biso   1.000  O
  O4       1.0000 0.61650  0.51010  0.57668  Biso   1.000  O
  O5       1.0000 0.91190  0.58460  0.39509  Biso   1.000  O
  O6       1.0000 0.11780  0.65760  0.39152  Biso   1.000  O
  O7       1.0000 0.07570  0.38060  0.41593  Biso   1.000  O
  O8       1.0000 0.23960  0.27270  0.38773  Biso   1.000  O
  O9       1.0000 0.17770  0.56768  0.52073  Biso   1.000  O
  O10      1.0000 0.51370  0.33260  0.49191  Biso   1.000  O
  O11      1.0000 0.76660  0.90170  0.41890  Biso   1.000  O
  O12      1.0000 0.72050  0.74740  0.42947  Biso   1.000  O
  O13      1.0000 0.59960  0.50570  0.38091  Biso   1.000  O
  O14      1.0000 0.38350  0.48990  0.42332  Biso   1.000  O
  O15      1.0000 0.08810  0.41540  0.60491  Biso   1.000  O
  O16      1.0000 0.88220  0.34240  0.60848  Biso   1.000  O
  O17      1.0000 0.92430  0.61940  0.58407  Biso   1.000  O
  O18      1.0000 0.76040  0.72730  0.61227  Biso   1.000  O
  O19      1.0000 0.82230  0.43232  0.47927  Biso   1.000  O
  O20      1.0000 0.48630  0.66740  0.50809  Biso   1.000  O
