data_image0
_cell_length_a       9.6187
_cell_length_b       13.8934
_cell_length_c       17.2345
_cell_angle_alpha    98.058
_cell_angle_beta     90.457
_cell_angle_gamma    90.599

_symmetry_space_group_name_H-M    P 1
_symmetry_int_tables_number       1

loop_
  _symmetry_equiv_pos_as_xyz
  'x, y, z'

loop_
  _atom_site_label
  _atom_site_occupancy
  _atom_site_fract_x
  _atom_site_fract_y
  _atom_site_fract_z
  _atom_site_thermal_displace_type
  _atom_site_B_iso_or_equiv
  _atom_site_type_symbol
  Sm1      1.0000 0.77034  0.90045  0.01428  Biso   1.000  Sm
  Sm2      1.0000 0.22966  0.09955  0.98572  Biso   1.000  Sm
  H1       1.0000 0.72900  0.75130  0.41660  Biso   1.000  H
  H2       1.0000 0.60860  0.76410  0.54490  Biso   1.000  H
  H3       1.0000 0.47080  0.51770  0.73820  Biso   1.000  H
  H4       1.0000 0.47370  0.33660  0.72910  Biso   1.000  H
  H5       1.0000 0.75720  0.05620  0.55780  Biso   1.000  H
  H6       1.0000 0.92560  0.05150  0.44750  Biso   1.000  H
  H7       1.0000 0.08570  0.30690  0.26060  Biso   1.000  H
  H8       1.0000 0.03710  0.47840  0.25160  Biso   1.000  H
  H9       1.0000 0.38990  0.70690  0.60160  Biso   1.000  H
  H10      1.0000 0.30470  0.83780  0.68630  Biso   1.000  H
  H11      1.0000 0.41480  0.88710  0.80780  Biso   1.000  H
  H12      1.0000 0.68580  0.66570  0.76200  Biso   1.000  H
  H13      1.0000 0.46070  0.10720  0.55480  Biso   1.000  H
  H14      1.0000 0.30570  0.01750  0.62120  Biso   1.000  H
  H15      1.0000 0.32390  0.02400  0.75730  Biso   1.000  H
  H16      1.0000 0.65210  0.20990  0.76060  Biso   1.000  H
  H17      1.0000 0.18960  0.13890  0.41640  Biso   1.000  H
  H18      1.0000 0.33070  0.03550  0.33200  Biso   1.000  H
  H19      1.0000 0.26200  0.98730  0.20150  Biso   1.000  H
  H20      1.0000 0.90330  0.13470  0.24180  Biso   1.000  H
  H21      1.0000 0.01450  0.73330  0.38760  Biso   1.000  H
  H22      1.0000 0.04160  0.85170  0.30490  Biso   1.000  H
  H23      1.0000 0.93700  0.83180  0.18180  Biso   1.000  H
  H24      1.0000 0.77880  0.57220  0.22160  Biso   1.000  H
  H25      1.0000 0.59280  0.08260  0.04010  Biso   1.000  H
  H26      1.0000 0.65490  0.09620  0.97830  Biso   1.000  H
  H27      1.0000 0.06660  0.79550  0.02560  Biso   1.000  H
  H28      1.0000 0.04800  0.89590  0.02370  Biso   1.000  H
  H29      1.0000 0.27100  0.24870  0.58340  Biso   1.000  H
  H30      1.0000 0.39140  0.23590  0.45510  Biso   1.000  H
  H31      1.0000 0.52920  0.48230  0.26180  Biso   1.000  H
  H32      1.0000 0.52630  0.66340  0.27090  Biso   1.000  H
  H33      1.0000 0.24280  0.94380  0.44220  Biso   1.000  H
  H34      1.0000 0.07440  0.94850  0.55250  Biso   1.000  H
  H35      1.0000 0.91430  0.69310  0.73940  Biso   1.000  H
  H36      1.0000 0.96290  0.52160  0.74840  Biso   1.000  H
  H37      1.0000 0.61010  0.29310  0.39840  Biso   1.000  H
  H38      1.0000 0.69530  0.16220  0.31370  Biso   1.000  H
  H39      1.0000 0.58520  0.11290  0.19220  Biso   1.000  H
  H40      1.0000 0.31420  0.33430  0.23800  Biso   1.000  H
  H41      1.0000 0.53930  0.89280  0.44520  Biso   1.000  H
  H42      1.0000 0.69430  0.98250  0.37880  Biso   1.000  H
  H43      1.0000 0.67610  0.97600  0.24270  Biso   1.000  H
  H44      1.0000 0.34790  0.79010  0.23940  Biso   1.000  H
  H45      1.0000 0.81040  0.86110  0.58360  Biso   1.000  H
  H46      1.0000 0.66930  0.96450  0.66800  Biso   1.000  H
  H47      1.0000 0.73800  0.01270  0.79850  Biso   1.000  H
  H48      1.0000 0.09670  0.86530  0.75820  Biso   1.000  H
  H49      1.0000 0.98550  0.26670  0.61240  Biso   1.000  H
  H50      1.0000 0.95840  0.14830  0.69510  Biso   1.000  H
  H51      1.0000 0.06300  0.16820  0.81820  Biso   1.000  H
  H52      1.0000 0.22120  0.42780  0.77840  Biso   1.000  H
  H53      1.0000 0.40720  0.91740  0.95990  Biso   1.000  H
  H54      1.0000 0.34510  0.90380  0.02170  Biso   1.000  H
  H55      1.0000 0.93340  0.20450  0.97440  Biso   1.000  H
  H56      1.0000 0.95200  0.10410  0.97630  Biso   1.000  H
  C1       1.0000 0.77780  0.60490  0.43530  Biso   1.000  C
  C2       1.0000 0.72120  0.70220  0.44950  Biso   1.000  C
  C3       1.0000 0.65490  0.70870  0.51900  Biso   1.000  C
  C4       1.0000 0.66770  0.61520  0.54670  Biso   1.000  C
  C5       1.0000 0.61020  0.59360  0.61670  Biso   1.000  C
  C6       1.0000 0.60300  0.50000  0.63880  Biso   1.000  C
  C7       1.0000 0.51970  0.47420  0.70080  Biso   1.000  C
  C8       1.0000 0.52300  0.37460  0.69650  Biso   1.000  C
  C9       1.0000 0.61420  0.33830  0.63400  Biso   1.000  C
  C10      1.0000 0.64700  0.24060  0.60980  Biso   1.000  C
  C11      1.0000 0.73860  0.20860  0.54900  Biso   1.000  C
  C12      1.0000 0.78480  0.10920  0.53190  Biso   1.000  C
  C13      1.0000 0.87600  0.10650  0.47140  Biso   1.000  C
  C14      1.0000 0.88190  0.20360  0.45090  Biso   1.000  C
  C15      1.0000 0.95480  0.22880  0.38610  Biso   1.000  C
  C16      1.0000 0.95590  0.32100  0.36160  Biso   1.000  C
  C17      1.0000 0.02870  0.34830  0.29520  Biso   1.000  C
  C18      1.0000 0.00250  0.44220  0.29030  Biso   1.000  C
  C19      1.0000 0.91280  0.47800  0.35390  Biso   1.000  C
  C20      1.0000 0.85840  0.57190  0.37020  Biso   1.000  C
  C21      1.0000 0.54920  0.67470  0.67200  Biso   1.000  C
  C22      1.0000 0.43410  0.72580  0.65100  Biso   1.000  C
  C23      1.0000 0.38340  0.80370  0.70130  Biso   1.000  C
  C24      1.0000 0.44780  0.83240  0.77400  Biso   1.000  C
  C25      1.0000 0.55990  0.78060  0.79660  Biso   1.000  C
  C26      1.0000 0.60980  0.70160  0.74600  Biso   1.000  C
  C27      1.0000 0.63150  0.81440  0.87270  Biso   1.000  C
  C28      1.0000 0.57090  0.16698  0.65143  Biso   1.000  C
  C29      1.0000 0.46810  0.10980  0.61004  Biso   1.000  C
  C30      1.0000 0.37600  0.05650  0.64950  Biso   1.000  C
  C31      1.0000 0.38680  0.06040  0.73035  Biso   1.000  C
  C32      1.0000 0.48970  0.11750  0.77174  Biso   1.000  C
  C33      1.0000 0.58180  0.17082  0.73228  Biso   1.000  C
  C34      1.0000 0.50380  0.11910  0.85880  Biso   1.000  C
  C35      1.0000 0.03440  0.15250  0.33610  Biso   1.000  C
  C36      1.0000 0.16100  0.11920  0.36360  Biso   1.000  C
  C37      1.0000 0.24490  0.05710  0.31330  Biso   1.000  C
  C38      1.0000 0.20320  0.02690  0.23630  Biso   1.000  C
  C39      1.0000 0.07420  0.05540  0.21080  Biso   1.000  C
  C40      1.0000 0.99130  0.11660  0.26000  Biso   1.000  C
  C41      1.0000 0.02700  0.01880  0.12870  Biso   1.000  C
  C42      1.0000 0.88800  0.64190  0.31430  Biso   1.000  C
  C43      1.0000 0.97010  0.72490  0.33760  Biso   1.000  C
  C44      1.0000 0.98720  0.79510  0.28800  Biso   1.000  C
  C45      1.0000 0.92580  0.78310  0.21490  Biso   1.000  C
  C46      1.0000 0.84720  0.69970  0.18930  Biso   1.000  C
  C47      1.0000 0.83070  0.62980  0.23940  Biso   1.000  C
  C48      1.0000 0.78160  0.68610  0.10880  Biso   1.000  C
  C49      1.0000 0.22220  0.39510  0.56470  Biso   1.000  C
  C50      1.0000 0.27880  0.29780  0.55050  Biso   1.000  C
  C51      1.0000 0.34510  0.29130  0.48100  Biso   1.000  C
  C52      1.0000 0.33230  0.38480  0.45330  Biso   1.000  C
  C53      1.0000 0.38980  0.40640  0.38330  Biso   1.000  C
  C54      1.0000 0.39700  0.50000  0.36120  Biso   1.000  C
  C55      1.0000 0.48030  0.52580  0.29920  Biso   1.000  C
  C56      1.0000 0.47700  0.62540  0.30350  Biso   1.000  C
  C57      1.0000 0.38580  0.66170  0.36600  Biso   1.000  C
  C58      1.0000 0.35300  0.75940  0.39020  Biso   1.000  C
  C59      1.0000 0.26140  0.79140  0.45100  Biso   1.000  C
  C60      1.0000 0.21520  0.89080  0.46810  Biso   1.000  C
  C61      1.0000 0.12400  0.89350  0.52860  Biso   1.000  C
  C62      1.0000 0.11810  0.79640  0.54910  Biso   1.000  C
  C63      1.0000 0.04520  0.77120  0.61390  Biso   1.000  C
  C64      1.0000 0.04410  0.67900  0.63840  Biso   1.000  C
  C65      1.0000 0.97130  0.65170  0.70480  Biso   1.000  C
  C66      1.0000 0.99750  0.55780  0.70970  Biso   1.000  C
  C67      1.0000 0.08720  0.52200  0.64610  Biso   1.000  C
  C68      1.0000 0.14160  0.42810  0.62980  Biso   1.000  C
  C69      1.0000 0.45080  0.32530  0.32800  Biso   1.000  C
  C70      1.0000 0.56590  0.27420  0.34900  Biso   1.000  C
  C71      1.0000 0.61660  0.19630  0.29870  Biso   1.000  C
  C72      1.0000 0.55220  0.16760  0.22600  Biso   1.000  C
  C73      1.0000 0.44010  0.21940  0.20340  Biso   1.000  C
  C74      1.0000 0.39020  0.29840  0.25400  Biso   1.000  C
  C75      1.0000 0.36850  0.18560  0.12730  Biso   1.000  C
  C76      1.0000 0.42910  0.83302  0.34857  Biso   1.000  C
  C77      1.0000 0.53190  0.89020  0.38996  Biso   1.000  C
  C78      1.0000 0.62400  0.94350  0.35050  Biso   1.000  C
  C79      1.0000 0.61320  0.93960  0.26965  Biso   1.000  C
  C80      1.0000 0.51030  0.88250  0.22826  Biso   1.000  C
  C81      1.0000 0.41820  0.82918  0.26772  Biso   1.000  C
  C82      1.0000 0.49620  0.88090  0.14120  Biso   1.000  C
  C83      1.0000 0.96560  0.84750  0.66390  Biso   1.000  C
  C84      1.0000 0.83900  0.88080  0.63640  Biso   1.000  C
  C85      1.0000 0.75510  0.94290  0.68670  Biso   1.000  C
  C86      1.0000 0.79680  0.97310  0.76370  Biso   1.000  C
  C87      1.0000 0.92580  0.94460  0.78920  Biso   1.000  C
  C88      1.0000 0.00870  0.88340  0.74000  Biso   1.000  C
  C89      1.0000 0.97300  0.98120  0.87130  Biso   1.000  C
  C90      1.0000 0.11200  0.35810  0.68570  Biso   1.000  C
  C91      1.0000 0.02990  0.27510  0.66240  Biso   1.000  C
  C92      1.0000 0.01280  0.20490  0.71200  Biso   1.000  C
  C93      1.0000 0.07420  0.21690  0.78510  Biso   1.000  C
  C94      1.0000 0.15280  0.30030  0.81070  Biso   1.000  C
  C95      1.0000 0.16930  0.37020  0.76060  Biso   1.000  C
  C96      1.0000 0.21840  0.31390  0.89120  Biso   1.000  C
  N1       1.0000 0.74240  0.55200  0.49410  Biso   1.000  N
  N2       1.0000 0.66070  0.41720  0.60030  Biso   1.000  N
  N3       1.0000 0.79940  0.26520  0.49930  Biso   1.000  N
  N4       1.0000 0.88770  0.40290  0.39660  Biso   1.000  N
  N5       1.0000 0.25760  0.44800  0.50590  Biso   1.000  N
  N6       1.0000 0.33930  0.58280  0.39970  Biso   1.000  N
  N7       1.0000 0.20060  0.73480  0.50070  Biso   1.000  N
  N8       1.0000 0.11230  0.59710  0.60340  Biso   1.000  N
  O1       1.0000 0.57930  0.88330  0.91879  Biso   1.000  O
  O2       1.0000 0.74360  0.77560  0.89082  Biso   1.000  O
  O3       1.0000 0.40580  0.08330  0.89384  Biso   1.000  O
  O4       1.0000 0.61250  0.15540  0.89270  Biso   1.000  O
  O5       1.0000 0.90200  0.99600  0.11716  Biso   1.000  O
  O6       1.0000 0.11820  0.01100  0.07508  Biso   1.000  O
  O7       1.0000 0.73390  0.60410  0.08100  Biso   1.000  O
  O8       1.0000 0.78150  0.75680  0.07070  Biso   1.000  O
  O9       1.0000 0.67730  0.06610  0.02115  Biso   1.000  O
  O10      1.0000 0.00940  0.83570  0.99590  Biso   1.000  O
  O11      1.0000 0.42070  0.11670  0.08121  Biso   1.000  O
  O12      1.0000 0.25640  0.22440  0.10918  Biso   1.000  O
  O13      1.0000 0.59420  0.91670  0.10616  Biso   1.000  O
  O14      1.0000 0.38750  0.84460  0.10730  Biso   1.000  O
  O15      1.0000 0.09800  0.00400  0.88284  Biso   1.000  O
  O16      1.0000 0.88180  0.98900  0.92492  Biso   1.000  O
  O17      1.0000 0.26610  0.39590  0.91900  Biso   1.000  O
  O18      1.0000 0.21850  0.24320  0.92930  Biso   1.000  O
  O19      1.0000 0.32270  0.93390  0.97885  Biso   1.000  O
  O20      1.0000 0.99060  0.16430  0.00410  Biso   1.000  O
