data_image0
_cell_length_a       9.8548
_cell_length_b       13.8138
_cell_length_c       33.7925
_cell_angle_alpha    90
_cell_angle_beta     90
_cell_angle_gamma    92.8627

_symmetry_space_group_name_H-M    P 1
_symmetry_int_tables_number       1

loop_
  _symmetry_equiv_pos_as_xyz
  'x, y, z'

loop_
  _atom_site_label
  _atom_site_occupancy
  _atom_site_fract_x
  _atom_site_fract_y
  _atom_site_fract_z
  _atom_site_thermal_displace_type
  _atom_site_B_iso_or_equiv
  _atom_site_type_symbol
  La1      1.0000 0.26408  0.02019  0.75105  Biso   1.000  La
  La2      1.0000 0.23592  0.97981  0.25105  Biso   1.000  La
  La3      1.0000 0.73592  0.97981  0.24895  Biso   1.000  La
  La4      1.0000 0.76408  0.02019  0.74895  Biso   1.000  La
  H1       1.0000 0.28240  0.22800  0.45850  Biso   1.000  H
  H2       1.0000 0.39240  0.23830  0.52450  Biso   1.000  H
  H3       1.0000 0.51240  0.52340  0.62620  Biso   1.000  H
  H4       1.0000 0.51590  0.70130  0.62090  Biso   1.000  H
  H5       1.0000 0.25930  0.94750  0.52870  Biso   1.000  H
  H6       1.0000 0.09370  0.92980  0.47410  Biso   1.000  H
  H7       1.0000 0.92990  0.63660  0.37950  Biso   1.000  H
  H8       1.0000 0.98180  0.46450  0.37440  Biso   1.000  H
  H9       1.0000 0.60740  0.31450  0.55800  Biso   1.000  H
  H10      1.0000 0.68160  0.19550  0.60120  Biso   1.000  H
  H11      1.0000 0.56310  0.15940  0.65930  Biso   1.000  H
  H12      1.0000 0.29540  0.36150  0.63270  Biso   1.000  H
  H13      1.0000 0.54560  0.90190  0.52870  Biso   1.000  H
  H14      1.0000 0.69890  0.00600  0.56230  Biso   1.000  H
  H15      1.0000 0.68510  0.02260  0.63080  Biso   1.000  H
  H16      1.0000 0.34680  0.84430  0.63150  Biso   1.000  H
  H17      1.0000 0.83330  0.83490  0.45960  Biso   1.000  H
  H18      1.0000 0.70650  0.93230  0.41880  Biso   1.000  H
  H19      1.0000 0.77780  0.96920  0.35440  Biso   1.000  H
  H20      1.0000 0.10170  0.80390  0.37030  Biso   1.000  H
  H21      1.0000 0.97480  0.25750  0.44620  Biso   1.000  H
  H22      1.0000 0.90420  0.12320  0.40790  Biso   1.000  H
  H23      1.0000 0.00990  0.09650  0.34730  Biso   1.000  H
  H24      1.0000 0.24660  0.34160  0.36220  Biso   1.000  H
  H25      1.0000 0.12290  0.81470  0.75830  Biso   1.000  H
  H26      1.0000 0.02870  0.87140  0.72990  Biso   1.000  H
  H27      1.0000 0.15440  0.22630  0.74080  Biso   1.000  H
  H28      1.0000 0.05720  0.17540  0.77210  Biso   1.000  H
  H29      1.0000 0.21760  0.77200  0.95850  Biso   1.000  H
  H30      1.0000 0.10760  0.76170  0.02450  Biso   1.000  H
  H31      1.0000 0.98760  0.47660  0.12620  Biso   1.000  H
  H32      1.0000 0.98410  0.29870  0.12090  Biso   1.000  H
  H33      1.0000 0.24070  0.05250  0.02870  Biso   1.000  H
  H34      1.0000 0.40630  0.07020  0.97410  Biso   1.000  H
  H35      1.0000 0.57010  0.36340  0.87950  Biso   1.000  H
  H36      1.0000 0.51820  0.53550  0.87440  Biso   1.000  H
  H37      1.0000 0.89260  0.68550  0.05800  Biso   1.000  H
  H38      1.0000 0.81840  0.80450  0.10120  Biso   1.000  H
  H39      1.0000 0.93690  0.84060  0.15930  Biso   1.000  H
  H40      1.0000 0.20460  0.63850  0.13270  Biso   1.000  H
  H41      1.0000 0.95440  0.09810  0.02870  Biso   1.000  H
  H42      1.0000 0.80110  0.99400  0.06230  Biso   1.000  H
  H43      1.0000 0.81490  0.97740  0.13080  Biso   1.000  H
  H44      1.0000 0.15320  0.15570  0.13150  Biso   1.000  H
  H45      1.0000 0.66670  0.16510  0.95960  Biso   1.000  H
  H46      1.0000 0.79350  0.06770  0.91880  Biso   1.000  H
  H47      1.0000 0.72220  0.03080  0.85440  Biso   1.000  H
  H48      1.0000 0.39830  0.19610  0.87030  Biso   1.000  H
  H49      1.0000 0.52520  0.74250  0.94620  Biso   1.000  H
  H50      1.0000 0.59580  0.87680  0.90790  Biso   1.000  H
  H51      1.0000 0.49010  0.90350  0.84730  Biso   1.000  H
  H52      1.0000 0.25340  0.65840  0.86220  Biso   1.000  H
  H53      1.0000 0.37710  0.18530  0.25830  Biso   1.000  H
  H54      1.0000 0.47130  0.12860  0.22990  Biso   1.000  H
  H55      1.0000 0.34560  0.77370  0.24080  Biso   1.000  H
  H56      1.0000 0.44280  0.82460  0.27210  Biso   1.000  H
  H57      1.0000 0.71760  0.77200  0.54150  Biso   1.000  H
  H58      1.0000 0.60760  0.76170  0.47550  Biso   1.000  H
  H59      1.0000 0.48760  0.47660  0.37380  Biso   1.000  H
  H60      1.0000 0.48410  0.29870  0.37910  Biso   1.000  H
  H61      1.0000 0.74070  0.05250  0.47130  Biso   1.000  H
  H62      1.0000 0.90630  0.07020  0.52590  Biso   1.000  H
  H63      1.0000 0.07010  0.36340  0.62050  Biso   1.000  H
  H64      1.0000 0.01820  0.53550  0.62560  Biso   1.000  H
  H65      1.0000 0.39260  0.68550  0.44200  Biso   1.000  H
  H66      1.0000 0.31840  0.80450  0.39880  Biso   1.000  H
  H67      1.0000 0.43690  0.84060  0.34070  Biso   1.000  H
  H68      1.0000 0.70460  0.63850  0.36730  Biso   1.000  H
  H69      1.0000 0.45440  0.09810  0.47130  Biso   1.000  H
  H70      1.0000 0.30110  0.99400  0.43770  Biso   1.000  H
  H71      1.0000 0.31490  0.97740  0.36920  Biso   1.000  H
  H72      1.0000 0.65320  0.15570  0.36850  Biso   1.000  H
  H73      1.0000 0.16670  0.16510  0.54040  Biso   1.000  H
  H74      1.0000 0.29350  0.06770  0.58120  Biso   1.000  H
  H75      1.0000 0.22220  0.03080  0.64560  Biso   1.000  H
  H76      1.0000 0.89830  0.19610  0.62970  Biso   1.000  H
  H77      1.0000 0.02520  0.74250  0.55380  Biso   1.000  H
  H78      1.0000 0.09580  0.87680  0.59210  Biso   1.000  H
  H79      1.0000 0.99010  0.90350  0.65270  Biso   1.000  H
  H80      1.0000 0.75340  0.65840  0.63780  Biso   1.000  H
  H81      1.0000 0.87710  0.18530  0.24170  Biso   1.000  H
  H82      1.0000 0.97130  0.12860  0.27010  Biso   1.000  H
  H83      1.0000 0.84560  0.77370  0.25920  Biso   1.000  H
  H84      1.0000 0.94280  0.82460  0.22790  Biso   1.000  H
  H85      1.0000 0.78240  0.22800  0.04150  Biso   1.000  H
  H86      1.0000 0.89240  0.23830  0.97550  Biso   1.000  H
  H87      1.0000 0.01240  0.52340  0.87380  Biso   1.000  H
  H88      1.0000 0.01590  0.70130  0.87910  Biso   1.000  H
  H89      1.0000 0.75930  0.94750  0.97130  Biso   1.000  H
  H90      1.0000 0.59370  0.92980  0.02590  Biso   1.000  H
  H91      1.0000 0.42990  0.63660  0.12050  Biso   1.000  H
  H92      1.0000 0.48180  0.46450  0.12560  Biso   1.000  H
  H93      1.0000 0.10740  0.31450  0.94200  Biso   1.000  H
  H94      1.0000 0.18160  0.19550  0.89880  Biso   1.000  H
  H95      1.0000 0.06310  0.15940  0.84070  Biso   1.000  H
  H96      1.0000 0.79540  0.36150  0.86730  Biso   1.000  H
  H97      1.0000 0.04560  0.90190  0.97130  Biso   1.000  H
  H98      1.0000 0.19890  0.00600  0.93770  Biso   1.000  H
  H99      1.0000 0.18510  0.02260  0.86920  Biso   1.000  H
  H100     1.0000 0.84680  0.84430  0.86850  Biso   1.000  H
  H101     1.0000 0.33330  0.83490  0.04040  Biso   1.000  H
  H102     1.0000 0.20650  0.93230  0.08120  Biso   1.000  H
  H103     1.0000 0.27780  0.96920  0.14560  Biso   1.000  H
  H104     1.0000 0.60170  0.80390  0.12970  Biso   1.000  H
  H105     1.0000 0.47480  0.25750  0.05380  Biso   1.000  H
  H106     1.0000 0.40420  0.12320  0.09210  Biso   1.000  H
  H107     1.0000 0.50990  0.09650  0.15270  Biso   1.000  H
  H108     1.0000 0.74660  0.34160  0.13780  Biso   1.000  H
  H109     1.0000 0.62290  0.81470  0.74170  Biso   1.000  H
  H110     1.0000 0.52870  0.87140  0.77010  Biso   1.000  H
  H111     1.0000 0.65440  0.22630  0.75920  Biso   1.000  H
  H112     1.0000 0.55720  0.17540  0.72790  Biso   1.000  H
  C1       1.0000 0.23740  0.37750  0.46770  Biso   1.000  C
  C2       1.0000 0.28950  0.28310  0.47532  Biso   1.000  C
  C3       1.0000 0.34990  0.28910  0.51101  Biso   1.000  C
  C4       1.0000 0.33780  0.38720  0.52505  Biso   1.000  C
  C5       1.0000 0.38750  0.42110  0.56157  Biso   1.000  C
  C6       1.0000 0.39590  0.51880  0.57342  Biso   1.000  C
  C7       1.0000 0.47000  0.55910  0.60603  Biso   1.000  C
  C8       1.0000 0.47030  0.65650  0.60349  Biso   1.000  C
  C9       1.0000 0.38880  0.68090  0.56969  Biso   1.000  C
  C10      1.0000 0.36220  0.77410  0.55657  Biso   1.000  C
  C11      1.0000 0.27550  0.79430  0.52508  Biso   1.000  C
  C12      1.0000 0.23080  0.88870  0.51586  Biso   1.000  C
  C13      1.0000 0.14170  0.87940  0.48601  Biso   1.000  C
  C14      1.0000 0.13270  0.77850  0.47550  Biso   1.000  C
  C15      1.0000 0.05810  0.73990  0.44355  Biso   1.000  C
  C16      1.0000 0.05830  0.64340  0.43059  Biso   1.000  C
  C17      1.0000 0.98700  0.60280  0.39680  Biso   1.000  C
  C18      1.0000 0.01540  0.50880  0.39405  Biso   1.000  C
  C19      1.0000 0.10600  0.48690  0.42615  Biso   1.000  C
  C20      1.0000 0.15750  0.39740  0.43458  Biso   1.000  C
  C21      1.0000 0.44070  0.34980  0.59038  Biso   1.000  C
  C22      1.0000 0.55810  0.30000  0.58162  Biso   1.000  C
  C23      1.0000 0.60270  0.22920  0.60743  Biso   1.000  C
  C24      1.0000 0.53230  0.20800  0.64200  Biso   1.000  C
  C25      1.0000 0.41810  0.25640  0.65163  Biso   1.000  C
  C26      1.0000 0.37350  0.32750  0.62590  Biso   1.000  C
  C27      1.0000 0.33490  0.22920  0.68859  Biso   1.000  C
  C28      1.0000 0.43820  0.85530  0.57746  Biso   1.000  C
  C29      1.0000 0.53900  0.90870  0.55661  Biso   1.000  C
  C30      1.0000 0.62910  0.97120  0.57650  Biso   1.000  C
  C31      1.0000 0.61850  0.98350  0.61707  Biso   1.000  C
  C32      1.0000 0.51140  0.93910  0.63747  Biso   1.000  C
  C33      1.0000 0.42090  0.87490  0.61754  Biso   1.000  C
  C34      1.0000 0.49370  0.95920  0.68086  Biso   1.000  C
  C35      1.0000 0.97970  0.80780  0.41903  Biso   1.000  C
  C36      1.0000 0.86250  0.84780  0.43324  Biso   1.000  C
  C37      1.0000 0.78760  0.90670  0.40898  Biso   1.000  C
  C38      1.0000 0.82920  0.92870  0.37076  Biso   1.000  C
  C39      1.0000 0.94700  0.89050  0.35679  Biso   1.000  C
  C40      1.0000 0.02150  0.83020  0.38049  Biso   1.000  C
  C41      1.0000 0.00040  0.91490  0.31609  Biso   1.000  C
  C42      1.0000 0.11610  0.31330  0.40802  Biso   1.000  C
  C43      1.0000 0.01610  0.24760  0.42121  Biso   1.000  C
  C44      1.0000 0.97450  0.16710  0.39870  Biso   1.000  C
  C45      1.0000 0.03710  0.15180  0.36254  Biso   1.000  C
  C46      1.0000 0.13800  0.21530  0.34841  Biso   1.000  C
  C47      1.0000 0.17740  0.29710  0.37155  Biso   1.000  C
  C48      1.0000 0.20550  0.19630  0.30982  Biso   1.000  C
  C49      1.0000 0.26260  0.62250  0.96770  Biso   1.000  C
  C50      1.0000 0.21050  0.71690  0.97532  Biso   1.000  C
  C51      1.0000 0.15010  0.71090  0.01101  Biso   1.000  C
  C52      1.0000 0.16220  0.61280  0.02505  Biso   1.000  C
  C53      1.0000 0.11250  0.57890  0.06157  Biso   1.000  C
  C54      1.0000 0.10410  0.48120  0.07342  Biso   1.000  C
  C55      1.0000 0.03000  0.44090  0.10603  Biso   1.000  C
  C56      1.0000 0.02970  0.34350  0.10349  Biso   1.000  C
  C57      1.0000 0.11120  0.31910  0.06969  Biso   1.000  C
  C58      1.0000 0.13780  0.22590  0.05657  Biso   1.000  C
  C59      1.0000 0.22450  0.20570  0.02508  Biso   1.000  C
  C60      1.0000 0.26920  0.11130  0.01586  Biso   1.000  C
  C61      1.0000 0.35830  0.12060  0.98601  Biso   1.000  C
  C62      1.0000 0.36730  0.22150  0.97550  Biso   1.000  C
  C63      1.0000 0.44190  0.26010  0.94355  Biso   1.000  C
  C64      1.0000 0.44170  0.35660  0.93059  Biso   1.000  C
  C65      1.0000 0.51300  0.39720  0.89680  Biso   1.000  C
  C66      1.0000 0.48460  0.49120  0.89405  Biso   1.000  C
  C67      1.0000 0.39400  0.51310  0.92615  Biso   1.000  C
  C68      1.0000 0.34250  0.60260  0.93458  Biso   1.000  C
  C69      1.0000 0.05930  0.65020  0.09038  Biso   1.000  C
  C70      1.0000 0.94190  0.70000  0.08162  Biso   1.000  C
  C71      1.0000 0.89730  0.77080  0.10743  Biso   1.000  C
  C72      1.0000 0.96770  0.79200  0.14200  Biso   1.000  C
  C73      1.0000 0.08190  0.74360  0.15163  Biso   1.000  C
  C74      1.0000 0.12650  0.67250  0.12590  Biso   1.000  C
  C75      1.0000 0.16510  0.77080  0.18859  Biso   1.000  C
  C76      1.0000 0.06180  0.14470  0.07746  Biso   1.000  C
  C77      1.0000 0.96100  0.09130  0.05661  Biso   1.000  C
  C78      1.0000 0.87090  0.02880  0.07650  Biso   1.000  C
  C79      1.0000 0.88150  0.01650  0.11707  Biso   1.000  C
  C80      1.0000 0.98860  0.06090  0.13747  Biso   1.000  C
  C81      1.0000 0.07910  0.12510  0.11754  Biso   1.000  C
  C82      1.0000 0.00630  0.04080  0.18086  Biso   1.000  C
  C83      1.0000 0.52030  0.19220  0.91903  Biso   1.000  C
  C84      1.0000 0.63750  0.15220  0.93324  Biso   1.000  C
  C85      1.0000 0.71240  0.09330  0.90898  Biso   1.000  C
  C86      1.0000 0.67080  0.07130  0.87076  Biso   1.000  C
  C87      1.0000 0.55300  0.10950  0.85679  Biso   1.000  C
  C88      1.0000 0.47850  0.16980  0.88049  Biso   1.000  C
  C89      1.0000 0.49960  0.08510  0.81609  Biso   1.000  C
  C90      1.0000 0.38390  0.68670  0.90802  Biso   1.000  C
  C91      1.0000 0.48390  0.75240  0.92121  Biso   1.000  C
  C92      1.0000 0.52550  0.83290  0.89870  Biso   1.000  C
  C93      1.0000 0.46290  0.84820  0.86254  Biso   1.000  C
  C94      1.0000 0.36200  0.78470  0.84841  Biso   1.000  C
  C95      1.0000 0.32260  0.70290  0.87155  Biso   1.000  C
  C96      1.0000 0.29450  0.80370  0.80982  Biso   1.000  C
  C97      1.0000 0.76260  0.62250  0.53230  Biso   1.000  C
  C98      1.0000 0.71050  0.71690  0.52468  Biso   1.000  C
  C99      1.0000 0.65010  0.71090  0.48899  Biso   1.000  C
  C100     1.0000 0.66220  0.61280  0.47495  Biso   1.000  C
  C101     1.0000 0.61250  0.57890  0.43843  Biso   1.000  C
  C102     1.0000 0.60410  0.48120  0.42658  Biso   1.000  C
  C103     1.0000 0.53000  0.44090  0.39397  Biso   1.000  C
  C104     1.0000 0.52970  0.34350  0.39651  Biso   1.000  C
  C105     1.0000 0.61120  0.31910  0.43031  Biso   1.000  C
  C106     1.0000 0.63780  0.22590  0.44343  Biso   1.000  C
  C107     1.0000 0.72450  0.20570  0.47492  Biso   1.000  C
  C108     1.0000 0.76920  0.11130  0.48414  Biso   1.000  C
  C109     1.0000 0.85830  0.12060  0.51399  Biso   1.000  C
  C110     1.0000 0.86730  0.22150  0.52450  Biso   1.000  C
  C111     1.0000 0.94190  0.26010  0.55645  Biso   1.000  C
  C112     1.0000 0.94170  0.35660  0.56941  Biso   1.000  C
  C113     1.0000 0.01300  0.39720  0.60320  Biso   1.000  C
  C114     1.0000 0.98460  0.49120  0.60595  Biso   1.000  C
  C115     1.0000 0.89400  0.51310  0.57385  Biso   1.000  C
  C116     1.0000 0.84250  0.60260  0.56542  Biso   1.000  C
  C117     1.0000 0.55930  0.65020  0.40962  Biso   1.000  C
  C118     1.0000 0.44190  0.70000  0.41838  Biso   1.000  C
  C119     1.0000 0.39730  0.77080  0.39257  Biso   1.000  C
  C120     1.0000 0.46770  0.79200  0.35800  Biso   1.000  C
  C121     1.0000 0.58190  0.74360  0.34837  Biso   1.000  C
  C122     1.0000 0.62650  0.67250  0.37410  Biso   1.000  C
  C123     1.0000 0.66510  0.77080  0.31141  Biso   1.000  C
  C124     1.0000 0.56180  0.14470  0.42254  Biso   1.000  C
  C125     1.0000 0.46100  0.09130  0.44339  Biso   1.000  C
  C126     1.0000 0.37090  0.02880  0.42350  Biso   1.000  C
  C127     1.0000 0.38150  0.01650  0.38293  Biso   1.000  C
  C128     1.0000 0.48860  0.06090  0.36253  Biso   1.000  C
  C129     1.0000 0.57910  0.12510  0.38246  Biso   1.000  C
  C130     1.0000 0.50630  0.04080  0.31914  Biso   1.000  C
  C131     1.0000 0.02030  0.19220  0.58097  Biso   1.000  C
  C132     1.0000 0.13750  0.15220  0.56676  Biso   1.000  C
  C133     1.0000 0.21240  0.09330  0.59102  Biso   1.000  C
  C134     1.0000 0.17080  0.07130  0.62924  Biso   1.000  C
  C135     1.0000 0.05300  0.10950  0.64321  Biso   1.000  C
  C136     1.0000 0.97850  0.16980  0.61951  Biso   1.000  C
  C137     1.0000 0.99960  0.08510  0.68391  Biso   1.000  C
  C138     1.0000 0.88390  0.68670  0.59198  Biso   1.000  C
  C139     1.0000 0.98390  0.75240  0.57879  Biso   1.000  C
  C140     1.0000 0.02550  0.83290  0.60130  Biso   1.000  C
  C141     1.0000 0.96290  0.84820  0.63746  Biso   1.000  C
  C142     1.0000 0.86200  0.78470  0.65159  Biso   1.000  C
  C143     1.0000 0.82260  0.70290  0.62845  Biso   1.000  C
  C144     1.0000 0.79450  0.80370  0.69018  Biso   1.000  C
  C145     1.0000 0.73740  0.37750  0.03230  Biso   1.000  C
  C146     1.0000 0.78950  0.28310  0.02468  Biso   1.000  C
  C147     1.0000 0.84990  0.28910  0.98899  Biso   1.000  C
  C148     1.0000 0.83780  0.38720  0.97495  Biso   1.000  C
  C149     1.0000 0.88750  0.42110  0.93843  Biso   1.000  C
  C150     1.0000 0.89590  0.51880  0.92658  Biso   1.000  C
  C151     1.0000 0.97000  0.55910  0.89397  Biso   1.000  C
  C152     1.0000 0.97030  0.65650  0.89651  Biso   1.000  C
  C153     1.0000 0.88880  0.68090  0.93031  Biso   1.000  C
  C154     1.0000 0.86220  0.77410  0.94343  Biso   1.000  C
  C155     1.0000 0.77550  0.79430  0.97492  Biso   1.000  C
  C156     1.0000 0.73080  0.88870  0.98414  Biso   1.000  C
  C157     1.0000 0.64170  0.87940  0.01399  Biso   1.000  C
  C158     1.0000 0.63270  0.77850  0.02450  Biso   1.000  C
  C159     1.0000 0.55810  0.73990  0.05645  Biso   1.000  C
  C160     1.0000 0.55830  0.64340  0.06941  Biso   1.000  C
  C161     1.0000 0.48700  0.60280  0.10320  Biso   1.000  C
  C162     1.0000 0.51540  0.50880  0.10595  Biso   1.000  C
  C163     1.0000 0.60600  0.48690  0.07385  Biso   1.000  C
  C164     1.0000 0.65750  0.39740  0.06542  Biso   1.000  C
  C165     1.0000 0.94070  0.34980  0.90962  Biso   1.000  C
  C166     1.0000 0.05810  0.30000  0.91838  Biso   1.000  C
  C167     1.0000 0.10270  0.22920  0.89257  Biso   1.000  C
  C168     1.0000 0.03230  0.20800  0.85800  Biso   1.000  C
  C169     1.0000 0.91810  0.25640  0.84837  Biso   1.000  C
  C170     1.0000 0.87350  0.32750  0.87410  Biso   1.000  C
  C171     1.0000 0.83490  0.22920  0.81141  Biso   1.000  C
  C172     1.0000 0.93820  0.85530  0.92254  Biso   1.000  C
  C173     1.0000 0.03900  0.90870  0.94339  Biso   1.000  C
  C174     1.0000 0.12910  0.97120  0.92350  Biso   1.000  C
  C175     1.0000 0.11850  0.98350  0.88293  Biso   1.000  C
  C176     1.0000 0.01140  0.93910  0.86253  Biso   1.000  C
  C177     1.0000 0.92090  0.87490  0.88246  Biso   1.000  C
  C178     1.0000 0.99370  0.95920  0.81914  Biso   1.000  C
  C179     1.0000 0.47970  0.80780  0.08097  Biso   1.000  C
  C180     1.0000 0.36250  0.84780  0.06676  Biso   1.000  C
  C181     1.0000 0.28760  0.90670  0.09102  Biso   1.000  C
  C182     1.0000 0.32920  0.92870  0.12924  Biso   1.000  C
  C183     1.0000 0.44700  0.89050  0.14321  Biso   1.000  C
  C184     1.0000 0.52150  0.83020  0.11951  Biso   1.000  C
  C185     1.0000 0.50040  0.91490  0.18391  Biso   1.000  C
  C186     1.0000 0.61610  0.31330  0.09198  Biso   1.000  C
  C187     1.0000 0.51610  0.24760  0.07879  Biso   1.000  C
  C188     1.0000 0.47450  0.16710  0.10130  Biso   1.000  C
  C189     1.0000 0.53710  0.15180  0.13746  Biso   1.000  C
  C190     1.0000 0.63800  0.21530  0.15159  Biso   1.000  C
  C191     1.0000 0.67740  0.29710  0.12845  Biso   1.000  C
  C192     1.0000 0.70550  0.19630  0.19018  Biso   1.000  C
  N1       1.0000 0.27150  0.44040  0.49779  Biso   1.000  N
  N2       1.0000 0.34360  0.59490  0.55230  Biso   1.000  N
  N3       1.0000 0.21450  0.72710  0.50033  Biso   1.000  N
  N4       1.0000 0.12880  0.57000  0.44775  Biso   1.000  N
  N5       1.0000 0.22850  0.55960  0.99779  Biso   1.000  N
  N6       1.0000 0.15640  0.40510  0.05230  Biso   1.000  N
  N7       1.0000 0.28550  0.27290  0.00033  Biso   1.000  N
  N8       1.0000 0.37120  0.43000  0.94775  Biso   1.000  N
  N9       1.0000 0.72850  0.55960  0.50221  Biso   1.000  N
  N10      1.0000 0.65640  0.40510  0.44770  Biso   1.000  N
  N11      1.0000 0.78550  0.27290  0.49967  Biso   1.000  N
  N12      1.0000 0.87120  0.43000  0.55225  Biso   1.000  N
  N13      1.0000 0.77150  0.44040  0.00221  Biso   1.000  N
  N14      1.0000 0.84360  0.59490  0.94770  Biso   1.000  N
  N15      1.0000 0.71450  0.72710  0.99967  Biso   1.000  N
  N16      1.0000 0.62880  0.57000  0.05225  Biso   1.000  N
  O1       1.0000 0.23500  0.27740  0.69680  Biso   1.000  O
  O2       1.0000 0.37440  0.15790  0.70888  Biso   1.000  O
  O3       1.0000 0.38020  0.93460  0.69657  Biso   1.000  O
  O4       1.0000 0.59200  0.00150  0.69864  Biso   1.000  O
  O5       1.0000 0.92520  0.96130  0.29308  Biso   1.000  O
  O6       1.0000 0.11660  0.89030  0.30662  Biso   1.000  O
  O7       1.0000 0.15380  0.12350  0.28937  Biso   1.000  O
  O8       1.0000 0.30720  0.24640  0.29928  Biso   1.000  O
  O9       1.0000 0.12110  0.85700  0.73570  Biso   1.000  O
  O10      1.0000 0.15060  0.18780  0.76449  Biso   1.000  O
  O11      1.0000 0.26500  0.72260  0.19680  Biso   1.000  O
  O12      1.0000 0.12560  0.84210  0.20888  Biso   1.000  O
  O13      1.0000 0.11980  0.06540  0.19657  Biso   1.000  O
  O14      1.0000 0.90800  0.99850  0.19864  Biso   1.000  O
  O15      1.0000 0.57480  0.03870  0.79308  Biso   1.000  O
  O16      1.0000 0.38340  0.10970  0.80662  Biso   1.000  O
  O17      1.0000 0.34620  0.87650  0.78937  Biso   1.000  O
  O18      1.0000 0.19280  0.75360  0.79928  Biso   1.000  O
  O19      1.0000 0.37890  0.14300  0.23570  Biso   1.000  O
  O20      1.0000 0.34940  0.81220  0.26449  Biso   1.000  O
  O21      1.0000 0.76500  0.72260  0.30320  Biso   1.000  O
  O22      1.0000 0.62560  0.84210  0.29112  Biso   1.000  O
  O23      1.0000 0.61980  0.06540  0.30343  Biso   1.000  O
  O24      1.0000 0.40800  0.99850  0.30136  Biso   1.000  O
  O25      1.0000 0.07480  0.03870  0.70692  Biso   1.000  O
  O26      1.0000 0.88340  0.10970  0.69338  Biso   1.000  O
  O27      1.0000 0.84620  0.87650  0.71063  Biso   1.000  O
  O28      1.0000 0.69280  0.75360  0.70072  Biso   1.000  O
  O29      1.0000 0.87890  0.14300  0.26430  Biso   1.000  O
  O30      1.0000 0.84940  0.81220  0.23551  Biso   1.000  O
  O31      1.0000 0.73500  0.27740  0.80320  Biso   1.000  O
  O32      1.0000 0.87440  0.15790  0.79112  Biso   1.000  O
  O33      1.0000 0.88020  0.93460  0.80343  Biso   1.000  O
  O34      1.0000 0.09200  0.00150  0.80136  Biso   1.000  O
  O35      1.0000 0.42520  0.96130  0.20692  Biso   1.000  O
  O36      1.0000 0.61660  0.89030  0.19338  Biso   1.000  O
  O37      1.0000 0.65380  0.12350  0.21063  Biso   1.000  O
  O38      1.0000 0.80720  0.24640  0.20072  Biso   1.000  O
  O39      1.0000 0.62110  0.85700  0.76430  Biso   1.000  O
  O40      1.0000 0.65060  0.18780  0.73551  Biso   1.000  O
