data_image0
_cell_length_a       7.4595
_cell_length_b       11.474
_cell_length_c       16.4767
_cell_angle_alpha    98.9511
_cell_angle_beta     90.9863
_cell_angle_gamma    91.3109

_symmetry_space_group_name_H-M    P 1
_symmetry_int_tables_number       1

loop_
  _symmetry_equiv_pos_as_xyz
  'x, y, z'

loop_
  _atom_site_label
  _atom_site_occupancy
  _atom_site_fract_x
  _atom_site_fract_y
  _atom_site_fract_z
  _atom_site_thermal_displace_type
  _atom_site_B_iso_or_equiv
  _atom_site_type_symbol
  Pr1      1.0000 0.75915  0.57644  0.00495  Biso   1.000  Pr
  Pr2      1.0000 0.24085  0.42356  0.99505  Biso   1.000  Pr
  H1       1.0000 0.31280  0.39130  0.41070  Biso   1.000  H
  H2       1.0000 0.08690  0.35880  0.51380  Biso   1.000  H
  H3       1.0000 0.94690  0.00600  0.68450  Biso   1.000  H
  H4       1.0000 0.10010  0.82310  0.70330  Biso   1.000  H
  H5       1.0000 0.40930  0.08240  0.48510  Biso   1.000  H
  H6       1.0000 0.79980  0.21580  0.53020  Biso   1.000  H
  H7       1.0000 0.58540  0.33140  0.60490  Biso   1.000  H
  H8       1.0000 0.63210  0.39780  0.74440  Biso   1.000  H
  H9       1.0000 0.10720  0.23290  0.73740  Biso   1.000  H
  H10      1.0000 0.80840  0.39840  0.41500  Biso   1.000  H
  H11      1.0000 0.89040  0.54180  0.33590  Biso   1.000  H
  H12      1.0000 0.75430  0.54310  0.20720  Biso   1.000  H
  H13      1.0000 0.44570  0.25920  0.23890  Biso   1.000  H
  H14      1.0000 0.19120  0.73700  0.94240  Biso   1.000  H
  H15      1.0000 0.47550  0.74580  0.03840  Biso   1.000  H
  H16      1.0000 0.54690  0.72210  0.12500  Biso   1.000  H
  H17      1.0000 0.68720  0.60870  0.58930  Biso   1.000  H
  H18      1.0000 0.91310  0.64120  0.48620  Biso   1.000  H
  H19      1.0000 0.05310  0.99400  0.31550  Biso   1.000  H
  H20      1.0000 0.89990  0.17690  0.29670  Biso   1.000  H
  H21      1.0000 0.59070  0.91760  0.51490  Biso   1.000  H
  H22      1.0000 0.20020  0.78420  0.46980  Biso   1.000  H
  H23      1.0000 0.41460  0.66860  0.39510  Biso   1.000  H
  H24      1.0000 0.36790  0.60220  0.25560  Biso   1.000  H
  H25      1.0000 0.89280  0.76710  0.26260  Biso   1.000  H
  H26      1.0000 0.19160  0.60160  0.58500  Biso   1.000  H
  H27      1.0000 0.10960  0.45820  0.66410  Biso   1.000  H
  H28      1.0000 0.24570  0.45690  0.79280  Biso   1.000  H
  H29      1.0000 0.55430  0.74080  0.76110  Biso   1.000  H
  H30      1.0000 0.80880  0.26300  0.05760  Biso   1.000  H
  H31      1.0000 0.52450  0.25420  0.96160  Biso   1.000  H
  H32      1.0000 0.45310  0.27790  0.87500  Biso   1.000  H
  C1       1.0000 0.42320  0.22800  0.43060  Biso   1.000  C
  C2       1.0000 0.30530  0.32560  0.43920  Biso   1.000  C
  C3       1.0000 0.18090  0.30730  0.49540  Biso   1.000  C
  C4       1.0000 0.21600  0.19670  0.52210  Biso   1.000  C
  C5       1.0000 0.12300  0.14590  0.58100  Biso   1.000  C
  C6       1.0000 0.16420  0.03710  0.60540  Biso   1.000  C
  C7       1.0000 0.05600  0.97890  0.66030  Biso   1.000  C
  C8       1.0000 0.13890  0.87950  0.67040  Biso   1.000  C
  C9       1.0000 0.29860  0.87470  0.62170  Biso   1.000  C
  C10      1.0000 0.57750  0.21660  0.38310  Biso   1.000  C
  C11      1.0000 0.97750  0.21490  0.62620  Biso   1.000  C
  C12      1.0000 0.81970  0.24330  0.58710  Biso   1.000  C
  C13      1.0000 0.69180  0.31180  0.63170  Biso   1.000  C
  C14      1.0000 0.71960  0.35110  0.71450  Biso   1.000  C
  C15      1.0000 0.87480  0.32290  0.75440  Biso   1.000  C
  C16      1.0000 0.00230  0.25370  0.71000  Biso   1.000  C
  C17      1.0000 0.91090  0.37030  0.84400  Biso   1.000  C
  C18      1.0000 0.62020  0.31280  0.33420  Biso   1.000  C
  C19      1.0000 0.75190  0.39860  0.36290  Biso   1.000  C
  C20      1.0000 0.80070  0.48380  0.31580  Biso   1.000  C
  C21      1.0000 0.71970  0.48510  0.23970  Biso   1.000  C
  C22      1.0000 0.58750  0.40090  0.21120  Biso   1.000  C
  C23      1.0000 0.53750  0.31590  0.25850  Biso   1.000  C
  C24      1.0000 0.49520  0.40030  0.12990  Biso   1.000  C
  C25      1.0000 0.08250  0.70130  0.95680  Biso   1.000  C
  C26      1.0000 0.57680  0.77200  0.56940  Biso   1.000  C
  C27      1.0000 0.69470  0.67440  0.56080  Biso   1.000  C
  C28      1.0000 0.81910  0.69270  0.50460  Biso   1.000  C
  C29      1.0000 0.78400  0.80330  0.47790  Biso   1.000  C
  C30      1.0000 0.87700  0.85410  0.41900  Biso   1.000  C
  C31      1.0000 0.83580  0.96290  0.39460  Biso   1.000  C
  C32      1.0000 0.94400  0.02110  0.33970  Biso   1.000  C
  C33      1.0000 0.86110  0.12050  0.32960  Biso   1.000  C
  C34      1.0000 0.70140  0.12530  0.37830  Biso   1.000  C
  C35      1.0000 0.42250  0.78340  0.61690  Biso   1.000  C
  C36      1.0000 0.02250  0.78510  0.37380  Biso   1.000  C
  C37      1.0000 0.18030  0.75670  0.41290  Biso   1.000  C
  C38      1.0000 0.30820  0.68820  0.36830  Biso   1.000  C
  C39      1.0000 0.28040  0.64890  0.28550  Biso   1.000  C
  C40      1.0000 0.12520  0.67710  0.24560  Biso   1.000  C
  C41      1.0000 0.99770  0.74630  0.29000  Biso   1.000  C
  C42      1.0000 0.08910  0.62970  0.15600  Biso   1.000  C
  C43      1.0000 0.37980  0.68720  0.66580  Biso   1.000  C
  C44      1.0000 0.24810  0.60140  0.63710  Biso   1.000  C
  C45      1.0000 0.19930  0.51620  0.68420  Biso   1.000  C
  C46      1.0000 0.28030  0.51490  0.76030  Biso   1.000  C
  C47      1.0000 0.41250  0.59910  0.78880  Biso   1.000  C
  C48      1.0000 0.46250  0.68410  0.74150  Biso   1.000  C
  C49      1.0000 0.50480  0.59970  0.87010  Biso   1.000  C
  C50      1.0000 0.91750  0.29870  0.04320  Biso   1.000  C
  N1       1.0000 0.36190  0.15070  0.48057  Biso   1.000  N
  N2       1.0000 0.31020  0.97100  0.58218  Biso   1.000  N
  N3       1.0000 0.63810  0.84930  0.51943  Biso   1.000  N
  N4       1.0000 0.68980  0.02900  0.41782  Biso   1.000  N
  O1       1.0000 0.78870  0.42600  0.88302  Biso   1.000  O
  O2       1.0000 0.06310  0.34890  0.87358  Biso   1.000  O
  O3       1.0000 0.54960  0.46900  0.08066  Biso   1.000  O
  O4       1.0000 0.36180  0.33290  0.11180  Biso   1.000  O
  O5       1.0000 0.95660  0.76570  0.97840  Biso   1.000  O
  O6       1.0000 0.07510  0.58980  0.95257  Biso   1.000  O
  O7       1.0000 0.58240  0.73770  0.07130  Biso   1.000  O
  O8       1.0000 0.21130  0.57400  0.11698  Biso   1.000  O
  O9       1.0000 0.93690  0.65110  0.12642  Biso   1.000  O
  O10      1.0000 0.45040  0.53100  0.91934  Biso   1.000  O
  O11      1.0000 0.63820  0.66710  0.88820  Biso   1.000  O
  O12      1.0000 0.04340  0.23430  0.02160  Biso   1.000  O
  O13      1.0000 0.92490  0.41020  0.04743  Biso   1.000  O
  O14      1.0000 0.41760  0.26230  0.92870  Biso   1.000  O
