data_image0
_cell_length_a       11.7735
_cell_length_b       18.6144
_cell_length_c       27.9022
_cell_angle_alpha    90
_cell_angle_beta     90
_cell_angle_gamma    100.085

_symmetry_space_group_name_H-M    P 1
_symmetry_int_tables_number       1

loop_
  _symmetry_equiv_pos_as_xyz
  'x, y, z'

loop_
  _atom_site_label
  _atom_site_occupancy
  _atom_site_fract_x
  _atom_site_fract_y
  _atom_site_fract_z
  _atom_site_thermal_displace_type
  _atom_site_B_iso_or_equiv
  _atom_site_type_symbol
  Dy1      1.0000 0.45507  0.95537  0.71701  Biso   1.000  Dy
  Dy2      1.0000 0.75111  0.00099  0.03244  Biso   1.000  Dy
  Dy3      1.0000 0.04493  0.04463  0.21701  Biso   1.000  Dy
  Dy4      1.0000 0.74889  0.99901  0.53244  Biso   1.000  Dy
  Dy5      1.0000 0.54493  0.04463  0.28299  Biso   1.000  Dy
  Dy6      1.0000 0.24889  0.99901  0.96756  Biso   1.000  Dy
  Dy7      1.0000 0.95507  0.95537  0.78299  Biso   1.000  Dy
  Dy8      1.0000 0.25111  0.00099  0.46756  Biso   1.000  Dy
  H1       1.0000 0.44500  0.40410  0.70800  Biso   1.000  H
  H2       1.0000 0.35380  0.50990  0.72890  Biso   1.000  H
  H3       1.0000 0.33760  0.67100  0.88450  Biso   1.000  H
  H4       1.0000 0.44030  0.68910  0.96140  Biso   1.000  H
  H5       1.0000 0.74530  0.54810  0.04870  Biso   1.000  H
  H6       1.0000 0.83730  0.44330  0.02980  Biso   1.000  H
  H7       1.0000 0.85840  0.28170  0.87270  Biso   1.000  H
  H8       1.0000 0.75480  0.26760  0.79580  Biso   1.000  H
  H9       1.0000 0.55220  0.47110  0.84020  Biso   1.000  H
  H10      1.0000 0.65510  0.48600  0.91520  Biso   1.000  H
  H11      1.0000 0.46530  0.70710  0.79120  Biso   1.000  H
  H12      1.0000 0.17830  0.73060  0.71660  Biso   1.000  H
  H13      1.0000 0.09180  0.61520  0.74140  Biso   1.000  H
  H14      1.0000 0.19040  0.54320  0.78710  Biso   1.000  H
  H15      1.0000 0.67220  0.73640  0.97740  Biso   1.000  H
  H16      1.0000 0.60300  0.77730  0.11660  Biso   1.000  H
  H17      1.0000 0.55730  0.65480  0.13320  Biso   1.000  H
  H18      1.0000 0.54610  0.57040  0.06890  Biso   1.000  H
  H19      1.0000 0.73450  0.25020  0.96860  Biso   1.000  H
  H20      1.0000 0.04000  0.22120  0.02440  Biso   1.000  H
  H21      1.0000 0.12250  0.33840  0.00200  Biso   1.000  H
  H22      1.0000 0.01240  0.41310  0.96080  Biso   1.000  H
  H23      1.0000 0.51860  0.22060  0.77080  Biso   1.000  H
  H24      1.0000 0.61120  0.18170  0.63680  Biso   1.000  H
  H25      1.0000 0.67520  0.30780  0.62630  Biso   1.000  H
  H26      1.0000 0.66800  0.38990  0.68670  Biso   1.000  H
  H27      1.0000 0.82340  0.02750  0.13180  Biso   1.000  H
  H28      1.0000 0.71320  0.95910  0.13190  Biso   1.000  H
  H29      1.0000 0.37920  0.91110  0.62430  Biso   1.000  H
  H30      1.0000 0.44520  0.99430  0.62020  Biso   1.000  H
  H31      1.0000 0.05500  0.59590  0.20800  Biso   1.000  H
  H32      1.0000 0.14620  0.49010  0.22890  Biso   1.000  H
  H33      1.0000 0.16240  0.32900  0.38450  Biso   1.000  H
  H34      1.0000 0.05970  0.31090  0.46140  Biso   1.000  H
  H35      1.0000 0.75470  0.45190  0.54870  Biso   1.000  H
  H36      1.0000 0.66270  0.55670  0.52980  Biso   1.000  H
  H37      1.0000 0.64160  0.71830  0.37270  Biso   1.000  H
  H38      1.0000 0.74520  0.73240  0.29580  Biso   1.000  H
  H39      1.0000 0.94780  0.52890  0.34020  Biso   1.000  H
  H40      1.0000 0.84490  0.51400  0.41520  Biso   1.000  H
  H41      1.0000 0.03470  0.29290  0.29120  Biso   1.000  H
  H42      1.0000 0.32170  0.26940  0.21660  Biso   1.000  H
  H43      1.0000 0.40820  0.38480  0.24140  Biso   1.000  H
  H44      1.0000 0.30960  0.45680  0.28710  Biso   1.000  H
  H45      1.0000 0.82780  0.26360  0.47740  Biso   1.000  H
  H46      1.0000 0.89700  0.22270  0.61660  Biso   1.000  H
  H47      1.0000 0.94270  0.34520  0.63320  Biso   1.000  H
  H48      1.0000 0.95390  0.42960  0.56890  Biso   1.000  H
  H49      1.0000 0.76550  0.74980  0.46860  Biso   1.000  H
  H50      1.0000 0.46000  0.77880  0.52440  Biso   1.000  H
  H51      1.0000 0.37750  0.66160  0.50200  Biso   1.000  H
  H52      1.0000 0.48760  0.58690  0.46080  Biso   1.000  H
  H53      1.0000 0.98140  0.77940  0.27080  Biso   1.000  H
  H54      1.0000 0.88880  0.81830  0.13680  Biso   1.000  H
  H55      1.0000 0.82480  0.69220  0.12630  Biso   1.000  H
  H56      1.0000 0.83200  0.61010  0.18670  Biso   1.000  H
  H57      1.0000 0.67660  0.97250  0.63180  Biso   1.000  H
  H58      1.0000 0.78680  0.04090  0.63190  Biso   1.000  H
  H59      1.0000 0.12080  0.08890  0.12430  Biso   1.000  H
  H60      1.0000 0.05480  0.00570  0.12020  Biso   1.000  H
  H61      1.0000 0.55500  0.59590  0.29200  Biso   1.000  H
  H62      1.0000 0.64620  0.49010  0.27110  Biso   1.000  H
  H63      1.0000 0.66240  0.32900  0.11550  Biso   1.000  H
  H64      1.0000 0.55970  0.31090  0.03860  Biso   1.000  H
  H65      1.0000 0.25470  0.45190  0.95130  Biso   1.000  H
  H66      1.0000 0.16270  0.55670  0.97020  Biso   1.000  H
  H67      1.0000 0.14160  0.71830  0.12730  Biso   1.000  H
  H68      1.0000 0.24520  0.73240  0.20420  Biso   1.000  H
  H69      1.0000 0.44780  0.52890  0.15980  Biso   1.000  H
  H70      1.0000 0.34490  0.51400  0.08480  Biso   1.000  H
  H71      1.0000 0.53470  0.29290  0.20880  Biso   1.000  H
  H72      1.0000 0.82170  0.26940  0.28340  Biso   1.000  H
  H73      1.0000 0.90820  0.38480  0.25860  Biso   1.000  H
  H74      1.0000 0.80960  0.45680  0.21290  Biso   1.000  H
  H75      1.0000 0.32780  0.26360  0.02260  Biso   1.000  H
  H76      1.0000 0.39700  0.22270  0.88340  Biso   1.000  H
  H77      1.0000 0.44270  0.34520  0.86680  Biso   1.000  H
  H78      1.0000 0.45390  0.42960  0.93110  Biso   1.000  H
  H79      1.0000 0.26550  0.74980  0.03140  Biso   1.000  H
  H80      1.0000 0.96000  0.77880  0.97560  Biso   1.000  H
  H81      1.0000 0.87750  0.66160  0.99800  Biso   1.000  H
  H82      1.0000 0.98760  0.58690  0.03920  Biso   1.000  H
  H83      1.0000 0.48140  0.77940  0.22920  Biso   1.000  H
  H84      1.0000 0.38880  0.81830  0.36320  Biso   1.000  H
  H85      1.0000 0.32480  0.69220  0.37370  Biso   1.000  H
  H86      1.0000 0.33200  0.61010  0.31330  Biso   1.000  H
  H87      1.0000 0.17660  0.97250  0.86820  Biso   1.000  H
  H88      1.0000 0.28680  0.04090  0.86810  Biso   1.000  H
  H89      1.0000 0.62080  0.08890  0.37570  Biso   1.000  H
  H90      1.0000 0.55480  0.00570  0.37980  Biso   1.000  H
  H91      1.0000 0.94500  0.40410  0.79200  Biso   1.000  H
  H92      1.0000 0.85380  0.50990  0.77110  Biso   1.000  H
  H93      1.0000 0.83760  0.67100  0.61550  Biso   1.000  H
  H94      1.0000 0.94030  0.68910  0.53860  Biso   1.000  H
  H95      1.0000 0.24530  0.54810  0.45130  Biso   1.000  H
  H96      1.0000 0.33730  0.44330  0.47020  Biso   1.000  H
  H97      1.0000 0.35840  0.28170  0.62730  Biso   1.000  H
  H98      1.0000 0.25480  0.26760  0.70420  Biso   1.000  H
  H99      1.0000 0.05220  0.47110  0.65980  Biso   1.000  H
  H100     1.0000 0.15510  0.48600  0.58480  Biso   1.000  H
  H101     1.0000 0.96530  0.70710  0.70880  Biso   1.000  H
  H102     1.0000 0.67830  0.73060  0.78340  Biso   1.000  H
  H103     1.0000 0.59180  0.61520  0.75860  Biso   1.000  H
  H104     1.0000 0.69040  0.54320  0.71290  Biso   1.000  H
  H105     1.0000 0.17220  0.73640  0.52260  Biso   1.000  H
  H106     1.0000 0.10300  0.77730  0.38340  Biso   1.000  H
  H107     1.0000 0.05730  0.65480  0.36680  Biso   1.000  H
  H108     1.0000 0.04610  0.57040  0.43110  Biso   1.000  H
  H109     1.0000 0.23450  0.25020  0.53140  Biso   1.000  H
  H110     1.0000 0.54000  0.22120  0.47560  Biso   1.000  H
  H111     1.0000 0.62250  0.33840  0.49800  Biso   1.000  H
  H112     1.0000 0.51240  0.41310  0.53920  Biso   1.000  H
  H113     1.0000 0.01860  0.22060  0.72920  Biso   1.000  H
  H114     1.0000 0.11120  0.18170  0.86320  Biso   1.000  H
  H115     1.0000 0.17520  0.30780  0.87370  Biso   1.000  H
  H116     1.0000 0.16800  0.38990  0.81330  Biso   1.000  H
  H117     1.0000 0.32340  0.02750  0.36820  Biso   1.000  H
  H118     1.0000 0.21320  0.95910  0.36810  Biso   1.000  H
  H119     1.0000 0.87920  0.91110  0.87570  Biso   1.000  H
  H120     1.0000 0.94520  0.99430  0.87980  Biso   1.000  H
  C1       1.0000 0.52960  0.41700  0.77600  Biso   1.000  C
  C2       1.0000 0.45620  0.43110  0.73700  Biso   1.000  C
  C3       1.0000 0.40560  0.48890  0.74840  Biso   1.000  C
  C4       1.0000 0.44440  0.51190  0.79460  Biso   1.000  C
  C5       1.0000 0.41220  0.57110  0.81930  Biso   1.000  C
  C6       1.0000 0.44580  0.59260  0.86700  Biso   1.000  C
  C7       1.0000 0.39770  0.64660  0.89480  Biso   1.000  C
  C8       1.0000 0.45150  0.65590  0.93670  Biso   1.000  C
  C9       1.0000 0.53340  0.60330  0.93670  Biso   1.000  C
  C10      1.0000 0.60740  0.59460  0.97620  Biso   1.000  C
  C11      1.0000 0.67150  0.53800  0.97920  Biso   1.000  C
  C12      1.0000 0.73810  0.52210  0.01930  Biso   1.000  C
  C13      1.0000 0.78910  0.46480  0.00890  Biso   1.000  C
  C14      1.0000 0.75870  0.44200  0.96170  Biso   1.000  C
  C15      1.0000 0.78860  0.38550  0.93440  Biso   1.000  C
  C16      1.0000 0.75850  0.36630  0.88730  Biso   1.000  C
  C17      1.0000 0.80220  0.30880  0.86180  Biso   1.000  C
  C18      1.0000 0.74730  0.30210  0.82020  Biso   1.000  C
  C19      1.0000 0.67450  0.35640  0.81840  Biso   1.000  C
  C20      1.0000 0.60130  0.36530  0.77910  Biso   1.000  C
  C21      1.0000 0.33990  0.61610  0.79350  Biso   1.000  C
  C22      1.0000 0.38960  0.68760  0.78040  Biso   1.000  C
  C23      1.0000 0.32960  0.73150  0.75150  Biso   1.000  C
  C24      1.0000 0.21940  0.70280  0.73660  Biso   1.000  C
  C25      1.0000 0.16890  0.63370  0.75090  Biso   1.000  C
  C26      1.0000 0.22750  0.59090  0.77830  Biso   1.000  C
  C27      1.0000 0.38390  0.80630  0.73790  Biso   1.000  C
  C28      1.0000 0.60850  0.64560  0.01780  Biso   1.000  C
  C29      1.0000 0.64610  0.71990  0.00830  Biso   1.000  C
  C30      1.0000 0.64360  0.76930  0.04680  Biso   1.000  C
  C31      1.0000 0.60680  0.74320  0.09160  Biso   1.000  C
  C32      1.0000 0.57610  0.67110  0.10140  Biso   1.000  C
  C33      1.0000 0.57270  0.62090  0.06350  Biso   1.000  C
  C34      1.0000 0.68100  0.85040  0.03750  Biso   1.000  C
  C35      1.0000 0.86120  0.34040  0.96040  Biso   1.000  C
  C36      1.0000 0.81320  0.26910  0.97530  Biso   1.000  C
  C37      1.0000 0.88020  0.22570  0.00000  Biso   1.000  C
  C38      1.0000 0.99450  0.25150  0.00870  Biso   1.000  C
  C39      1.0000 0.04370  0.32050  0.99500  Biso   1.000  C
  C40      1.0000 0.97740  0.36540  0.97050  Biso   1.000  C
  C41      1.0000 0.82200  0.14940  0.01410  Biso   1.000  C
  C42      1.0000 0.59780  0.31340  0.73820  Biso   1.000  C
  C43      1.0000 0.55470  0.23930  0.74190  Biso   1.000  C
  C44      1.0000 0.56330  0.19250  0.70440  Biso   1.000  C
  C45      1.0000 0.60650  0.21500  0.66220  Biso   1.000  C
  C46      1.0000 0.64520  0.29040  0.65650  Biso   1.000  C
  C47      1.0000 0.64180  0.33930  0.69210  Biso   1.000  C
  C48      1.0000 0.52270  0.11070  0.71320  Biso   1.000  C
  C49      1.0000 0.98200  0.01000  0.97470  Biso   1.000  C
  C50      1.0000 0.51670  0.98480  0.97470  Biso   1.000  C
  C51      1.0000 0.22260  0.94350  0.77400  Biso   1.000  C
  C52      1.0000 0.18890  0.97380  0.72380  Biso   1.000  C
  C53      1.0000 0.97040  0.58300  0.27600  Biso   1.000  C
  C54      1.0000 0.04380  0.56890  0.23700  Biso   1.000  C
  C55      1.0000 0.09440  0.51110  0.24840  Biso   1.000  C
  C56      1.0000 0.05560  0.48810  0.29460  Biso   1.000  C
  C57      1.0000 0.08780  0.42890  0.31930  Biso   1.000  C
  C58      1.0000 0.05420  0.40740  0.36700  Biso   1.000  C
  C59      1.0000 0.10230  0.35340  0.39480  Biso   1.000  C
  C60      1.0000 0.04850  0.34410  0.43670  Biso   1.000  C
  C61      1.0000 0.96660  0.39670  0.43670  Biso   1.000  C
  C62      1.0000 0.89260  0.40540  0.47620  Biso   1.000  C
  C63      1.0000 0.82850  0.46200  0.47920  Biso   1.000  C
  C64      1.0000 0.76190  0.47790  0.51930  Biso   1.000  C
  C65      1.0000 0.71090  0.53520  0.50890  Biso   1.000  C
  C66      1.0000 0.74130  0.55800  0.46170  Biso   1.000  C
  C67      1.0000 0.71140  0.61450  0.43440  Biso   1.000  C
  C68      1.0000 0.74150  0.63370  0.38730  Biso   1.000  C
  C69      1.0000 0.69780  0.69120  0.36180  Biso   1.000  C
  C70      1.0000 0.75270  0.69790  0.32020  Biso   1.000  C
  C71      1.0000 0.82550  0.64360  0.31840  Biso   1.000  C
  C72      1.0000 0.89870  0.63470  0.27910  Biso   1.000  C
  C73      1.0000 0.16010  0.38390  0.29350  Biso   1.000  C
  C74      1.0000 0.11040  0.31240  0.28040  Biso   1.000  C
  C75      1.0000 0.17040  0.26850  0.25150  Biso   1.000  C
  C76      1.0000 0.28060  0.29720  0.23660  Biso   1.000  C
  C77      1.0000 0.33110  0.36630  0.25090  Biso   1.000  C
  C78      1.0000 0.27250  0.40910  0.27830  Biso   1.000  C
  C79      1.0000 0.11610  0.19370  0.23790  Biso   1.000  C
  C80      1.0000 0.89150  0.35440  0.51780  Biso   1.000  C
  C81      1.0000 0.85390  0.28010  0.50830  Biso   1.000  C
  C82      1.0000 0.85640  0.23070  0.54680  Biso   1.000  C
  C83      1.0000 0.89320  0.25680  0.59160  Biso   1.000  C
  C84      1.0000 0.92390  0.32890  0.60140  Biso   1.000  C
  C85      1.0000 0.92730  0.37910  0.56350  Biso   1.000  C
  C86      1.0000 0.81900  0.14960  0.53750  Biso   1.000  C
  C87      1.0000 0.63880  0.65960  0.46040  Biso   1.000  C
  C88      1.0000 0.68680  0.73090  0.47530  Biso   1.000  C
  C89      1.0000 0.61980  0.77430  0.50000  Biso   1.000  C
  C90      1.0000 0.50550  0.74850  0.50870  Biso   1.000  C
  C91      1.0000 0.45630  0.67950  0.49500  Biso   1.000  C
  C92      1.0000 0.52260  0.63460  0.47050  Biso   1.000  C
  C93      1.0000 0.67800  0.85060  0.51410  Biso   1.000  C
  C94      1.0000 0.90220  0.68660  0.23820  Biso   1.000  C
  C95      1.0000 0.94530  0.76070  0.24190  Biso   1.000  C
  C96      1.0000 0.93670  0.80750  0.20440  Biso   1.000  C
  C97      1.0000 0.89350  0.78500  0.16220  Biso   1.000  C
  C98      1.0000 0.85480  0.70960  0.15650  Biso   1.000  C
  C99      1.0000 0.85820  0.66070  0.19210  Biso   1.000  C
  C100     1.0000 0.97730  0.88930  0.21320  Biso   1.000  C
  C101     1.0000 0.51800  0.99000  0.47470  Biso   1.000  C
  C102     1.0000 0.98330  0.01520  0.47470  Biso   1.000  C
  C103     1.0000 0.27740  0.05650  0.27400  Biso   1.000  C
  C104     1.0000 0.31110  0.02620  0.22380  Biso   1.000  C
  C105     1.0000 0.47040  0.58300  0.22400  Biso   1.000  C
  C106     1.0000 0.54380  0.56890  0.26300  Biso   1.000  C
  C107     1.0000 0.59440  0.51110  0.25160  Biso   1.000  C
  C108     1.0000 0.55560  0.48810  0.20540  Biso   1.000  C
  C109     1.0000 0.58780  0.42890  0.18070  Biso   1.000  C
  C110     1.0000 0.55420  0.40740  0.13300  Biso   1.000  C
  C111     1.0000 0.60230  0.35340  0.10520  Biso   1.000  C
  C112     1.0000 0.54850  0.34410  0.06330  Biso   1.000  C
  C113     1.0000 0.46660  0.39670  0.06330  Biso   1.000  C
  C114     1.0000 0.39260  0.40540  0.02380  Biso   1.000  C
  C115     1.0000 0.32850  0.46200  0.02080  Biso   1.000  C
  C116     1.0000 0.26190  0.47790  0.98070  Biso   1.000  C
  C117     1.0000 0.21090  0.53520  0.99110  Biso   1.000  C
  C118     1.0000 0.24130  0.55800  0.03830  Biso   1.000  C
  C119     1.0000 0.21140  0.61450  0.06560  Biso   1.000  C
  C120     1.0000 0.24150  0.63370  0.11270  Biso   1.000  C
  C121     1.0000 0.19780  0.69120  0.13820  Biso   1.000  C
  C122     1.0000 0.25270  0.69790  0.17980  Biso   1.000  C
  C123     1.0000 0.32550  0.64360  0.18160  Biso   1.000  C
  C124     1.0000 0.39870  0.63470  0.22090  Biso   1.000  C
  C125     1.0000 0.66010  0.38390  0.20650  Biso   1.000  C
  C126     1.0000 0.61040  0.31240  0.21960  Biso   1.000  C
  C127     1.0000 0.67040  0.26850  0.24850  Biso   1.000  C
  C128     1.0000 0.78060  0.29720  0.26340  Biso   1.000  C
  C129     1.0000 0.83110  0.36630  0.24910  Biso   1.000  C
  C130     1.0000 0.77250  0.40910  0.22170  Biso   1.000  C
  C131     1.0000 0.61610  0.19370  0.26210  Biso   1.000  C
  C132     1.0000 0.39150  0.35440  0.98220  Biso   1.000  C
  C133     1.0000 0.35390  0.28010  0.99170  Biso   1.000  C
  C134     1.0000 0.35640  0.23070  0.95320  Biso   1.000  C
  C135     1.0000 0.39320  0.25680  0.90840  Biso   1.000  C
  C136     1.0000 0.42390  0.32890  0.89860  Biso   1.000  C
  C137     1.0000 0.42730  0.37910  0.93650  Biso   1.000  C
  C138     1.0000 0.31900  0.14960  0.96250  Biso   1.000  C
  C139     1.0000 0.13880  0.65960  0.03960  Biso   1.000  C
  C140     1.0000 0.18680  0.73090  0.02470  Biso   1.000  C
  C141     1.0000 0.11980  0.77430  0.00000  Biso   1.000  C
  C142     1.0000 0.00550  0.74850  0.99130  Biso   1.000  C
  C143     1.0000 0.95630  0.67950  0.00500  Biso   1.000  C
  C144     1.0000 0.02260  0.63460  0.02950  Biso   1.000  C
  C145     1.0000 0.17800  0.85060  0.98590  Biso   1.000  C
  C146     1.0000 0.40220  0.68660  0.26180  Biso   1.000  C
  C147     1.0000 0.44530  0.76070  0.25810  Biso   1.000  C
  C148     1.0000 0.43670  0.80750  0.29560  Biso   1.000  C
  C149     1.0000 0.39350  0.78500  0.33780  Biso   1.000  C
  C150     1.0000 0.35480  0.70960  0.34350  Biso   1.000  C
  C151     1.0000 0.35820  0.66070  0.30790  Biso   1.000  C
  C152     1.0000 0.47730  0.88930  0.28680  Biso   1.000  C
  C153     1.0000 0.01800  0.99000  0.02530  Biso   1.000  C
  C154     1.0000 0.48330  0.01520  0.02530  Biso   1.000  C
  C155     1.0000 0.77740  0.05650  0.22600  Biso   1.000  C
  C156     1.0000 0.81110  0.02620  0.27620  Biso   1.000  C
  C157     1.0000 0.02960  0.41700  0.72400  Biso   1.000  C
  C158     1.0000 0.95620  0.43110  0.76300  Biso   1.000  C
  C159     1.0000 0.90560  0.48890  0.75160  Biso   1.000  C
  C160     1.0000 0.94440  0.51190  0.70540  Biso   1.000  C
  C161     1.0000 0.91220  0.57110  0.68070  Biso   1.000  C
  C162     1.0000 0.94580  0.59260  0.63300  Biso   1.000  C
  C163     1.0000 0.89770  0.64660  0.60520  Biso   1.000  C
  C164     1.0000 0.95150  0.65590  0.56330  Biso   1.000  C
  C165     1.0000 0.03340  0.60330  0.56330  Biso   1.000  C
  C166     1.0000 0.10740  0.59460  0.52380  Biso   1.000  C
  C167     1.0000 0.17150  0.53800  0.52080  Biso   1.000  C
  C168     1.0000 0.23810  0.52210  0.48070  Biso   1.000  C
  C169     1.0000 0.28910  0.46480  0.49110  Biso   1.000  C
  C170     1.0000 0.25870  0.44200  0.53830  Biso   1.000  C
  C171     1.0000 0.28860  0.38550  0.56560  Biso   1.000  C
  C172     1.0000 0.25850  0.36630  0.61270  Biso   1.000  C
  C173     1.0000 0.30220  0.30880  0.63820  Biso   1.000  C
  C174     1.0000 0.24730  0.30210  0.67980  Biso   1.000  C
  C175     1.0000 0.17450  0.35640  0.68160  Biso   1.000  C
  C176     1.0000 0.10130  0.36530  0.72090  Biso   1.000  C
  C177     1.0000 0.83990  0.61610  0.70650  Biso   1.000  C
  C178     1.0000 0.88960  0.68760  0.71960  Biso   1.000  C
  C179     1.0000 0.82960  0.73150  0.74850  Biso   1.000  C
  C180     1.0000 0.71940  0.70280  0.76340  Biso   1.000  C
  C181     1.0000 0.66890  0.63370  0.74910  Biso   1.000  C
  C182     1.0000 0.72750  0.59090  0.72170  Biso   1.000  C
  C183     1.0000 0.88390  0.80630  0.76210  Biso   1.000  C
  C184     1.0000 0.10850  0.64560  0.48220  Biso   1.000  C
  C185     1.0000 0.14610  0.71990  0.49170  Biso   1.000  C
  C186     1.0000 0.14360  0.76930  0.45320  Biso   1.000  C
  C187     1.0000 0.10680  0.74320  0.40840  Biso   1.000  C
  C188     1.0000 0.07610  0.67110  0.39860  Biso   1.000  C
  C189     1.0000 0.07270  0.62090  0.43650  Biso   1.000  C
  C190     1.0000 0.18100  0.85040  0.46250  Biso   1.000  C
  C191     1.0000 0.36120  0.34040  0.53960  Biso   1.000  C
  C192     1.0000 0.31320  0.26910  0.52470  Biso   1.000  C
  C193     1.0000 0.38020  0.22570  0.50000  Biso   1.000  C
  C194     1.0000 0.49450  0.25150  0.49130  Biso   1.000  C
  C195     1.0000 0.54370  0.32050  0.50500  Biso   1.000  C
  C196     1.0000 0.47740  0.36540  0.52950  Biso   1.000  C
  C197     1.0000 0.32200  0.14940  0.48590  Biso   1.000  C
  C198     1.0000 0.09780  0.31340  0.76180  Biso   1.000  C
  C199     1.0000 0.05470  0.23930  0.75810  Biso   1.000  C
  C200     1.0000 0.06330  0.19250  0.79560  Biso   1.000  C
  C201     1.0000 0.10650  0.21500  0.83780  Biso   1.000  C
  C202     1.0000 0.14520  0.29040  0.84350  Biso   1.000  C
  C203     1.0000 0.14180  0.33930  0.80790  Biso   1.000  C
  C204     1.0000 0.02270  0.11070  0.78680  Biso   1.000  C
  C205     1.0000 0.48200  0.01000  0.52530  Biso   1.000  C
  C206     1.0000 0.01670  0.98480  0.52530  Biso   1.000  C
  C207     1.0000 0.72260  0.94350  0.72600  Biso   1.000  C
  C208     1.0000 0.68890  0.97380  0.77620  Biso   1.000  C
  N1       1.0000 0.51850  0.46780  0.81190  Biso   1.000  N
  N2       1.0000 0.52480  0.56660  0.89400  Biso   1.000  N
  N3       1.0000 0.68610  0.48830  0.94400  Biso   1.000  N
  N4       1.0000 0.68390  0.39600  0.85940  Biso   1.000  N
  N5       1.0000 0.98150  0.53220  0.31190  Biso   1.000  N
  N6       1.0000 0.97520  0.43340  0.39400  Biso   1.000  N
  N7       1.0000 0.81390  0.51170  0.44400  Biso   1.000  N
  N8       1.0000 0.81610  0.60400  0.35940  Biso   1.000  N
  N9       1.0000 0.48150  0.53220  0.18810  Biso   1.000  N
  N10      1.0000 0.47520  0.43340  0.10600  Biso   1.000  N
  N11      1.0000 0.31390  0.51170  0.05600  Biso   1.000  N
  N12      1.0000 0.31610  0.60400  0.14060  Biso   1.000  N
  N13      1.0000 0.01850  0.46780  0.68810  Biso   1.000  N
  N14      1.0000 0.02480  0.56660  0.60600  Biso   1.000  N
  N15      1.0000 0.18610  0.48830  0.55600  Biso   1.000  N
  N16      1.0000 0.18390  0.39600  0.64060  Biso   1.000  N
  O1       1.0000 0.33900  0.83700  0.70310  Biso   1.000  O
  O2       1.0000 0.47090  0.83820  0.75960  Biso   1.000  O
  O3       1.0000 0.75570  0.87260  0.00520  Biso   1.000  O
  O4       1.0000 0.63770  0.89290  0.06360  Biso   1.000  O
  O5       1.0000 0.86660  0.11860  0.04920  Biso   1.000  O
  O6       1.0000 0.73870  0.11720  0.99200  Biso   1.000  O
  O7       1.0000 0.56990  0.06880  0.68640  Biso   1.000  O
  O8       1.0000 0.44580  0.08660  0.74280  Biso   1.000  O
  O9       1.0000 0.87870  0.01330  0.96670  Biso   1.000  O
  O10      1.0000 0.06330  0.02110  0.94370  Biso   1.000  O
  O11      1.0000 0.61770  0.97570  0.96770  Biso   1.000  O
  O12      1.0000 0.43310  0.96820  0.94540  Biso   1.000  O
  O13      1.0000 0.32440  0.93960  0.78130  Biso   1.000  O
  O14      1.0000 0.13770  0.92710  0.80410  Biso   1.000  O
  O15      1.0000 0.08980  0.98280  0.71810  Biso   1.000  O
  O16      1.0000 0.26770  0.98190  0.69380  Biso   1.000  O
  O17      1.0000 0.74320  0.00940  0.11680  Biso   1.000  O
  O18      1.0000 0.44880  0.94590  0.63410  Biso   1.000  O
  O19      1.0000 0.16100  0.16300  0.20310  Biso   1.000  O
  O20      1.0000 0.02910  0.16180  0.25960  Biso   1.000  O
  O21      1.0000 0.74430  0.12740  0.50520  Biso   1.000  O
  O22      1.0000 0.86230  0.10710  0.56360  Biso   1.000  O
  O23      1.0000 0.63340  0.88140  0.54920  Biso   1.000  O
  O24      1.0000 0.76130  0.88280  0.49200  Biso   1.000  O
  O25      1.0000 0.93010  0.93120  0.18640  Biso   1.000  O
  O26      1.0000 0.05420  0.91340  0.24280  Biso   1.000  O
  O27      1.0000 0.62130  0.98670  0.46670  Biso   1.000  O
  O28      1.0000 0.43670  0.97890  0.44370  Biso   1.000  O
  O29      1.0000 0.88230  0.02430  0.46770  Biso   1.000  O
  O30      1.0000 0.06690  0.03180  0.44540  Biso   1.000  O
  O31      1.0000 0.17560  0.06040  0.28130  Biso   1.000  O
  O32      1.0000 0.36230  0.07290  0.30410  Biso   1.000  O
  O33      1.0000 0.41020  0.01720  0.21810  Biso   1.000  O
  O34      1.0000 0.23230  0.01810  0.19380  Biso   1.000  O
  O35      1.0000 0.75680  0.99060  0.61680  Biso   1.000  O
  O36      1.0000 0.05120  0.05410  0.13410  Biso   1.000  O
  O37      1.0000 0.66100  0.16300  0.29690  Biso   1.000  O
  O38      1.0000 0.52910  0.16180  0.24040  Biso   1.000  O
  O39      1.0000 0.24430  0.12740  0.99480  Biso   1.000  O
  O40      1.0000 0.36230  0.10710  0.93640  Biso   1.000  O
  O41      1.0000 0.13340  0.88140  0.95080  Biso   1.000  O
  O42      1.0000 0.26130  0.88280  0.00800  Biso   1.000  O
  O43      1.0000 0.43010  0.93120  0.31360  Biso   1.000  O
  O44      1.0000 0.55420  0.91340  0.25720  Biso   1.000  O
  O45      1.0000 0.12130  0.98670  0.03330  Biso   1.000  O
  O46      1.0000 0.93670  0.97890  0.05630  Biso   1.000  O
  O47      1.0000 0.38230  0.02430  0.03230  Biso   1.000  O
  O48      1.0000 0.56690  0.03180  0.05460  Biso   1.000  O
  O49      1.0000 0.67560  0.06040  0.21870  Biso   1.000  O
  O50      1.0000 0.86230  0.07290  0.19590  Biso   1.000  O
  O51      1.0000 0.91020  0.01720  0.28190  Biso   1.000  O
  O52      1.0000 0.73230  0.01810  0.30620  Biso   1.000  O
  O53      1.0000 0.25680  0.99060  0.88320  Biso   1.000  O
  O54      1.0000 0.55120  0.05410  0.36590  Biso   1.000  O
  O55      1.0000 0.83900  0.83700  0.79690  Biso   1.000  O
  O56      1.0000 0.97090  0.83820  0.74040  Biso   1.000  O
  O57      1.0000 0.25570  0.87260  0.49480  Biso   1.000  O
  O58      1.0000 0.13770  0.89290  0.43640  Biso   1.000  O
  O59      1.0000 0.36660  0.11860  0.45080  Biso   1.000  O
  O60      1.0000 0.23870  0.11720  0.50800  Biso   1.000  O
  O61      1.0000 0.06990  0.06880  0.81360  Biso   1.000  O
  O62      1.0000 0.94580  0.08660  0.75720  Biso   1.000  O
  O63      1.0000 0.37870  0.01330  0.53330  Biso   1.000  O
  O64      1.0000 0.56330  0.02110  0.55630  Biso   1.000  O
  O65      1.0000 0.11770  0.97570  0.53230  Biso   1.000  O
  O66      1.0000 0.93310  0.96820  0.55460  Biso   1.000  O
  O67      1.0000 0.82440  0.93960  0.71870  Biso   1.000  O
  O68      1.0000 0.63770  0.92710  0.69590  Biso   1.000  O
  O69      1.0000 0.58980  0.98280  0.78190  Biso   1.000  O
  O70      1.0000 0.76770  0.98190  0.80620  Biso   1.000  O
  O71      1.0000 0.24320  0.00940  0.38320  Biso   1.000  O
  O72      1.0000 0.94880  0.94590  0.86590  Biso   1.000  O
