data_image0
_cell_length_a       16.2068
_cell_length_b       16.2068
_cell_length_c       31.3773
_cell_angle_alpha    99.4839
_cell_angle_beta     99.4839
_cell_angle_gamma    96.2572

_symmetry_space_group_name_H-M    P 1
_symmetry_int_tables_number       1

loop_
  _symmetry_equiv_pos_as_xyz
  'x, y, z'

loop_
  _atom_site_label
  _atom_site_occupancy
  _atom_site_fract_x
  _atom_site_fract_y
  _atom_site_fract_z
  _atom_site_thermal_displace_type
  _atom_site_B_iso_or_equiv
  _atom_site_type_symbol
  Nd1      1.0000 0.81293  0.35659  0.79912  Biso   1.000  Nd
  Nd2      1.0000 0.97830  0.35936  0.91300  Biso   1.000  Nd
  Nd3      1.0000 0.64341  0.18707  0.70088  Biso   1.000  Nd
  Nd4      1.0000 0.64064  0.02170  0.58700  Biso   1.000  Nd
  Nd5      1.0000 0.18707  0.64341  0.20088  Biso   1.000  Nd
  Nd6      1.0000 0.02170  0.64064  0.08700  Biso   1.000  Nd
  Nd7      1.0000 0.35659  0.81293  0.29912  Biso   1.000  Nd
  Nd8      1.0000 0.35936  0.97830  0.41300  Biso   1.000  Nd
  H1       1.0000 0.98160  0.71540  0.66400  Biso   1.000  H
  H2       1.0000 0.03630  0.62430  0.71340  Biso   1.000  H
  H3       1.0000 0.20150  0.35670  0.69300  Biso   1.000  H
  H4       1.0000 0.29400  0.30920  0.64280  Biso   1.000  H
  H5       1.0000 0.36740  0.39740  0.49570  Biso   1.000  H
  H6       1.0000 0.29830  0.47790  0.44260  Biso   1.000  H
  H7       1.0000 0.03590  0.65390  0.43700  Biso   1.000  H
  H8       1.0000 0.94710  0.69710  0.48880  Biso   1.000  H
  H9       1.0000 0.17420  0.58020  0.75920  Biso   1.000  H
  H10      1.0000 0.13930  0.54390  0.82400  Biso   1.000  H
  H11      1.0000 0.99400  0.33140  0.75620  Biso   1.000  H
  H12      1.0000 0.03130  0.36410  0.69080  Biso   1.000  H
  H13      1.0000 0.44930  0.41770  0.60860  Biso   1.000  H
  H14      1.0000 0.54410  0.32110  0.62410  Biso   1.000  H
  H15      1.0000 0.38040  0.13660  0.54140  Biso   1.000  H
  H16      1.0000 0.28750  0.23550  0.52820  Biso   1.000  H
  H17      1.0000 0.27570  0.67370  0.44650  Biso   1.000  H
  H18      1.0000 0.28900  0.70080  0.37790  Biso   1.000  H
  H19      1.0000 0.09560  0.52320  0.32090  Biso   1.000  H
  H20      1.0000 0.08090  0.49010  0.38800  Biso   1.000  H
  H21      1.0000 0.00990  0.82570  0.55790  Biso   1.000  H
  H22      1.0000 0.91520  0.92420  0.56390  Biso   1.000  H
  H23      1.0000 0.75200  0.75320  0.60030  Biso   1.000  H
  H24      1.0000 0.84680  0.65460  0.59440  Biso   1.000  H
  H25      1.0000 0.80900  0.00500  0.56450  Biso   1.000  H
  H26      1.0000 0.02630  0.93770  0.83120  Biso   1.000  H
  H27      1.0000 0.08990  0.85210  0.88280  Biso   1.000  H
  H28      1.0000 0.31520  0.64120  0.88580  Biso   1.000  H
  H29      1.0000 0.40010  0.58470  0.83530  Biso   1.000  H
  H30      1.0000 0.10330  0.07890  0.78900  Biso   1.000  H
  H31      1.0000 0.00610  0.17750  0.78950  Biso   1.000  H
  H32      1.0000 0.28070  0.80730  0.93890  Biso   1.000  H
  H33      1.0000 0.23030  0.78470  0.00320  Biso   1.000  H
  H34      1.0000 0.03530  0.61910  0.93070  Biso   1.000  H
  H35      1.0000 0.07750  0.64850  0.86770  Biso   1.000  H
  H36      1.0000 0.52120  0.63800  0.79630  Biso   1.000  H
  H37      1.0000 0.61990  0.54270  0.79760  Biso   1.000  H
  H38      1.0000 0.89560  0.54060  0.76690  Biso   1.000  H
  H39      1.0000 0.93200  0.66820  0.75120  Biso   1.000  H
  H40      1.0000 0.90020  0.74660  0.77890  Biso   1.000  H
  H41      1.0000 0.99330  0.72450  0.79370  Biso   1.000  H
  H42      1.0000 0.94290  0.69350  0.87120  Biso   1.000  H
  H43      1.0000 0.87440  0.74300  0.84730  Biso   1.000  H
  H44      1.0000 0.84530  0.65370  0.85950  Biso   1.000  H
  H45      1.0000 0.89980  0.19820  0.84660  Biso   1.000  H
  H46      1.0000 0.82720  0.22140  0.87480  Biso   1.000  H
  H47      1.0000 0.28460  0.01840  0.83600  Biso   1.000  H
  H48      1.0000 0.37570  0.96370  0.78660  Biso   1.000  H
  H49      1.0000 0.64330  0.79850  0.80700  Biso   1.000  H
  H50      1.0000 0.69080  0.70600  0.85720  Biso   1.000  H
  H51      1.0000 0.60260  0.63260  0.00430  Biso   1.000  H
  H52      1.0000 0.52210  0.70170  0.05740  Biso   1.000  H
  H53      1.0000 0.34610  0.96410  0.06300  Biso   1.000  H
  H54      1.0000 0.30290  0.05290  0.01120  Biso   1.000  H
  H55      1.0000 0.41980  0.82580  0.74080  Biso   1.000  H
  H56      1.0000 0.45610  0.86070  0.67600  Biso   1.000  H
  H57      1.0000 0.66860  0.00600  0.74380  Biso   1.000  H
  H58      1.0000 0.63590  0.96870  0.80920  Biso   1.000  H
  H59      1.0000 0.58230  0.55070  0.89140  Biso   1.000  H
  H60      1.0000 0.67890  0.45590  0.87590  Biso   1.000  H
  H61      1.0000 0.86340  0.61960  0.95860  Biso   1.000  H
  H62      1.0000 0.76450  0.71250  0.97180  Biso   1.000  H
  H63      1.0000 0.32630  0.72430  0.05350  Biso   1.000  H
  H64      1.0000 0.29920  0.71100  0.12210  Biso   1.000  H
  H65      1.0000 0.47680  0.90440  0.17910  Biso   1.000  H
  H66      1.0000 0.50990  0.91910  0.11200  Biso   1.000  H
  H67      1.0000 0.17430  0.99010  0.94210  Biso   1.000  H
  H68      1.0000 0.07580  0.08480  0.93610  Biso   1.000  H
  H69      1.0000 0.24680  0.24800  0.89970  Biso   1.000  H
  H70      1.0000 0.34540  0.15320  0.90560  Biso   1.000  H
  H71      1.0000 0.99500  0.19100  0.93550  Biso   1.000  H
  H72      1.0000 0.06230  0.97370  0.66880  Biso   1.000  H
  H73      1.0000 0.14790  0.91010  0.61720  Biso   1.000  H
  H74      1.0000 0.35880  0.68480  0.61420  Biso   1.000  H
  H75      1.0000 0.41530  0.59990  0.66470  Biso   1.000  H
  H76      1.0000 0.92110  0.89670  0.71100  Biso   1.000  H
  H77      1.0000 0.82250  0.99390  0.71050  Biso   1.000  H
  H78      1.0000 0.19270  0.71930  0.56110  Biso   1.000  H
  H79      1.0000 0.21530  0.76970  0.49680  Biso   1.000  H
  H80      1.0000 0.38090  0.96470  0.56930  Biso   1.000  H
  H81      1.0000 0.35150  0.92250  0.63230  Biso   1.000  H
  H82      1.0000 0.36200  0.47880  0.70370  Biso   1.000  H
  H83      1.0000 0.45730  0.38010  0.70240  Biso   1.000  H
  H84      1.0000 0.45940  0.10440  0.73310  Biso   1.000  H
  H85      1.0000 0.33180  0.06800  0.74880  Biso   1.000  H
  H86      1.0000 0.25340  0.09980  0.72110  Biso   1.000  H
  H87      1.0000 0.27550  0.00670  0.70630  Biso   1.000  H
  H88      1.0000 0.30650  0.05710  0.62880  Biso   1.000  H
  H89      1.0000 0.25700  0.12560  0.65270  Biso   1.000  H
  H90      1.0000 0.34630  0.15470  0.64050  Biso   1.000  H
  H91      1.0000 0.80180  0.10020  0.65340  Biso   1.000  H
  H92      1.0000 0.77860  0.17280  0.62520  Biso   1.000  H
  H93      1.0000 0.01840  0.28460  0.33600  Biso   1.000  H
  H94      1.0000 0.96370  0.37570  0.28660  Biso   1.000  H
  H95      1.0000 0.79850  0.64330  0.30700  Biso   1.000  H
  H96      1.0000 0.70600  0.69080  0.35720  Biso   1.000  H
  H97      1.0000 0.63260  0.60260  0.50430  Biso   1.000  H
  H98      1.0000 0.70170  0.52210  0.55740  Biso   1.000  H
  H99      1.0000 0.96410  0.34610  0.56300  Biso   1.000  H
  H100     1.0000 0.05290  0.30290  0.51120  Biso   1.000  H
  H101     1.0000 0.82580  0.41980  0.24080  Biso   1.000  H
  H102     1.0000 0.86070  0.45610  0.17600  Biso   1.000  H
  H103     1.0000 0.00600  0.66860  0.24380  Biso   1.000  H
  H104     1.0000 0.96870  0.63590  0.30920  Biso   1.000  H
  H105     1.0000 0.55070  0.58230  0.39140  Biso   1.000  H
  H106     1.0000 0.45590  0.67890  0.37590  Biso   1.000  H
  H107     1.0000 0.61960  0.86340  0.45860  Biso   1.000  H
  H108     1.0000 0.71250  0.76450  0.47180  Biso   1.000  H
  H109     1.0000 0.72430  0.32630  0.55350  Biso   1.000  H
  H110     1.0000 0.71100  0.29920  0.62210  Biso   1.000  H
  H111     1.0000 0.90440  0.47680  0.67910  Biso   1.000  H
  H112     1.0000 0.91910  0.50990  0.61200  Biso   1.000  H
  H113     1.0000 0.99010  0.17430  0.44210  Biso   1.000  H
  H114     1.0000 0.08480  0.07580  0.43610  Biso   1.000  H
  H115     1.0000 0.24800  0.24680  0.39970  Biso   1.000  H
  H116     1.0000 0.15320  0.34540  0.40560  Biso   1.000  H
  H117     1.0000 0.19100  0.99500  0.43550  Biso   1.000  H
  H118     1.0000 0.97370  0.06230  0.16880  Biso   1.000  H
  H119     1.0000 0.91010  0.14790  0.11720  Biso   1.000  H
  H120     1.0000 0.68480  0.35880  0.11420  Biso   1.000  H
  H121     1.0000 0.59990  0.41530  0.16470  Biso   1.000  H
  H122     1.0000 0.89670  0.92110  0.21100  Biso   1.000  H
  H123     1.0000 0.99390  0.82250  0.21050  Biso   1.000  H
  H124     1.0000 0.71930  0.19270  0.06110  Biso   1.000  H
  H125     1.0000 0.76970  0.21530  0.99680  Biso   1.000  H
  H126     1.0000 0.96470  0.38090  0.06930  Biso   1.000  H
  H127     1.0000 0.92250  0.35150  0.13230  Biso   1.000  H
  H128     1.0000 0.47880  0.36200  0.20370  Biso   1.000  H
  H129     1.0000 0.38010  0.45730  0.20240  Biso   1.000  H
  H130     1.0000 0.10440  0.45940  0.23310  Biso   1.000  H
  H131     1.0000 0.06800  0.33180  0.24880  Biso   1.000  H
  H132     1.0000 0.09980  0.25340  0.22110  Biso   1.000  H
  H133     1.0000 0.00670  0.27550  0.20630  Biso   1.000  H
  H134     1.0000 0.05710  0.30650  0.12880  Biso   1.000  H
  H135     1.0000 0.12560  0.25700  0.15270  Biso   1.000  H
  H136     1.0000 0.15470  0.34630  0.14050  Biso   1.000  H
  H137     1.0000 0.10020  0.80180  0.15340  Biso   1.000  H
  H138     1.0000 0.17280  0.77860  0.12520  Biso   1.000  H
  H139     1.0000 0.71540  0.98160  0.16400  Biso   1.000  H
  H140     1.0000 0.62430  0.03630  0.21340  Biso   1.000  H
  H141     1.0000 0.35670  0.20150  0.19300  Biso   1.000  H
  H142     1.0000 0.30920  0.29400  0.14280  Biso   1.000  H
  H143     1.0000 0.39740  0.36740  0.99570  Biso   1.000  H
  H144     1.0000 0.47790  0.29830  0.94260  Biso   1.000  H
  H145     1.0000 0.65390  0.03590  0.93700  Biso   1.000  H
  H146     1.0000 0.69710  0.94710  0.98880  Biso   1.000  H
  H147     1.0000 0.58020  0.17420  0.25920  Biso   1.000  H
  H148     1.0000 0.54390  0.13930  0.32400  Biso   1.000  H
  H149     1.0000 0.33140  0.99400  0.25620  Biso   1.000  H
  H150     1.0000 0.36410  0.03130  0.19080  Biso   1.000  H
  H151     1.0000 0.41770  0.44930  0.10860  Biso   1.000  H
  H152     1.0000 0.32110  0.54410  0.12410  Biso   1.000  H
  H153     1.0000 0.13660  0.38040  0.04140  Biso   1.000  H
  H154     1.0000 0.23550  0.28750  0.02820  Biso   1.000  H
  H155     1.0000 0.67370  0.27570  0.94650  Biso   1.000  H
  H156     1.0000 0.70080  0.28900  0.87790  Biso   1.000  H
  H157     1.0000 0.52320  0.09560  0.82090  Biso   1.000  H
  H158     1.0000 0.49010  0.08090  0.88800  Biso   1.000  H
  H159     1.0000 0.82570  0.00990  0.05790  Biso   1.000  H
  H160     1.0000 0.92420  0.91520  0.06390  Biso   1.000  H
  H161     1.0000 0.75320  0.75200  0.10030  Biso   1.000  H
  H162     1.0000 0.65460  0.84680  0.09440  Biso   1.000  H
  H163     1.0000 0.00500  0.80900  0.06450  Biso   1.000  H
  H164     1.0000 0.93770  0.02630  0.33120  Biso   1.000  H
  H165     1.0000 0.85210  0.08990  0.38280  Biso   1.000  H
  H166     1.0000 0.64120  0.31520  0.38580  Biso   1.000  H
  H167     1.0000 0.58470  0.40010  0.33530  Biso   1.000  H
  H168     1.0000 0.07890  0.10330  0.28900  Biso   1.000  H
  H169     1.0000 0.17750  0.00610  0.28950  Biso   1.000  H
  H170     1.0000 0.80730  0.28070  0.43890  Biso   1.000  H
  H171     1.0000 0.78470  0.23030  0.50320  Biso   1.000  H
  H172     1.0000 0.61910  0.03530  0.43070  Biso   1.000  H
  H173     1.0000 0.64850  0.07750  0.36770  Biso   1.000  H
  H174     1.0000 0.63800  0.52120  0.29630  Biso   1.000  H
  H175     1.0000 0.54270  0.61990  0.29760  Biso   1.000  H
  H176     1.0000 0.54060  0.89560  0.26690  Biso   1.000  H
  H177     1.0000 0.66820  0.93200  0.25120  Biso   1.000  H
  H178     1.0000 0.74660  0.90020  0.27890  Biso   1.000  H
  H179     1.0000 0.72450  0.99330  0.29370  Biso   1.000  H
  H180     1.0000 0.69350  0.94290  0.37120  Biso   1.000  H
  H181     1.0000 0.74300  0.87440  0.34730  Biso   1.000  H
  H182     1.0000 0.65370  0.84530  0.35950  Biso   1.000  H
  H183     1.0000 0.19820  0.89980  0.34660  Biso   1.000  H
  H184     1.0000 0.22140  0.82720  0.37480  Biso   1.000  H
  Pt1      1.0000 0.14396  0.52832  0.57205  Biso   1.000  Pt
  Pt2      1.0000 0.47168  0.85604  0.92795  Biso   1.000  Pt
  Pt3      1.0000 0.85604  0.47168  0.42795  Biso   1.000  Pt
  Pt4      1.0000 0.52832  0.14396  0.07205  Biso   1.000  Pt
  Pt5      1.0000 0.22725  0.77275  0.75000  Biso   1.000  Pt
  Pt6      1.0000 0.77275  0.22725  0.25000  Biso   1.000  Pt
  C1       1.0000 0.03080  0.64220  0.61430  Biso   1.000  C
  C2       1.0000 0.01160  0.66960  0.65640  Biso   1.000  C
  C3       1.0000 0.04240  0.62100  0.68360  Biso   1.000  C
  C4       1.0000 0.08630  0.56270  0.65970  Biso   1.000  C
  C5       1.0000 0.12030  0.49710  0.67540  Biso   1.000  C
  C6       1.0000 0.16880  0.44420  0.65320  Biso   1.000  C
  C7       1.0000 0.20860  0.37860  0.66730  Biso   1.000  C
  C8       1.0000 0.25820  0.35120  0.63970  Biso   1.000  C
  C9       1.0000 0.24730  0.39710  0.60470  Biso   1.000  C
  C10      1.0000 0.29060  0.39020  0.57000  Biso   1.000  C
  C11      1.0000 0.27620  0.43400  0.53440  Biso   1.000  C
  C12      1.0000 0.32090  0.42750  0.49880  Biso   1.000  C
  C13      1.0000 0.28400  0.47240  0.47020  Biso   1.000  C
  C14      1.0000 0.21970  0.50990  0.48900  Biso   1.000  C
  C15      1.0000 0.16490  0.55930  0.46820  Biso   1.000  C
  C16      1.0000 0.10150  0.59350  0.48650  Biso   1.000  C
  C17      1.0000 0.04050  0.64230  0.46600  Biso   1.000  C
  C18      1.0000 0.99390  0.66730  0.49430  Biso   1.000  C
  C19      1.0000 0.02430  0.64270  0.53500  Biso   1.000  C
  C20      1.0000 0.00050  0.67070  0.57540  Biso   1.000  C
  C21      1.0000 0.10350  0.47650  0.71890  Biso   1.000  C
  C22      1.0000 0.13720  0.53000  0.75820  Biso   1.000  C
  C23      1.0000 0.11520  0.50840  0.79650  Biso   1.000  C
  C24      1.0000 0.06040  0.43820  0.79570  Biso   1.000  C
  C25      1.0000 0.02960  0.38240  0.75680  Biso   1.000  C
  C26      1.0000 0.05180  0.40200  0.71790  Biso   1.000  C
  C27      1.0000 0.03130  0.42290  0.83730  Biso   1.000  C
  C28      1.0000 0.35540  0.33180  0.57200  Biso   1.000  C
  C29      1.0000 0.43330  0.35930  0.59670  Biso   1.000  C
  C30      1.0000 0.49120  0.30200  0.60490  Biso   1.000  C
  C31      1.0000 0.47060  0.21940  0.58530  Biso   1.000  C
  C32      1.0000 0.39460  0.19360  0.55640  Biso   1.000  C
  C33      1.0000 0.33820  0.25240  0.54930  Biso   1.000  C
  C34      1.0000 0.52770  0.15730  0.59510  Biso   1.000  C
  C35      1.0000 0.17630  0.57630  0.42420  Biso   1.000  C
  C36      1.0000 0.23900  0.64180  0.42090  Biso   1.000  C
  C37      1.0000 0.24580  0.65820  0.38020  Biso   1.000  C
  C38      1.0000 0.19320  0.61620  0.34280  Biso   1.000  C
  C39      1.0000 0.13270  0.55370  0.34670  Biso   1.000  C
  C40      1.0000 0.12380  0.53380  0.38650  Biso   1.000  C
  C41      1.0000 0.19820  0.63820  0.29910  Biso   1.000  C
  C42      1.0000 0.93730  0.73090  0.57560  Biso   1.000  C
  C43      1.0000 0.95760  0.81100  0.56653  Biso   1.000  C
  C44      1.0000 0.90130  0.86950  0.57005  Biso   1.000  C
  C45      1.0000 0.82470  0.84790  0.58265  Biso   1.000  C
  C46      1.0000 0.80434  0.76794  0.59173  Biso   1.000  C
  C47      1.0000 0.86070  0.70930  0.58820  Biso   1.000  C
  C48      1.0000 0.76190  0.90930  0.58929  Biso   1.000  C
  C49      1.0000 0.10216  0.88084  0.78682  Biso   1.000  C
  C50      1.0000 0.06606  0.89994  0.82618  Biso   1.000  C
  C51      1.0000 0.10100  0.85280  0.85410  Biso   1.000  C
  C52      1.0000 0.15630  0.80530  0.83420  Biso   1.000  C
  C53      1.0000 0.20360  0.74900  0.85350  Biso   1.000  C
  C54      1.0000 0.26400  0.70700  0.83640  Biso   1.000  C
  C55      1.0000 0.31490  0.65270  0.85710  Biso   1.000  C
  C56      1.0000 0.36010  0.62210  0.82970  Biso   1.000  C
  C57      1.0000 0.34000  0.65460  0.78770  Biso   1.000  C
  C58      1.0000 0.04710  0.06170  0.77330  Biso   1.000  C
  C59      1.0000 0.98930  0.12110  0.77370  Biso   1.000  C
  C60      1.0000 0.18200  0.73220  0.89650  Biso   1.000  C
  C61      1.0000 0.22960  0.77100  0.93690  Biso   1.000  C
  C62      1.0000 0.20020  0.75540  0.97530  Biso   1.000  C
  C63      1.0000 0.12940  0.69900  0.97330  Biso   1.000  C
  C64      1.0000 0.08420  0.65860  0.93270  Biso   1.000  C
  C65      1.0000 0.11000  0.67600  0.89550  Biso   1.000  C
  C66      1.0000 0.10130  0.67790  0.01590  Biso   1.000  C
  C67      1.0000 0.50810  0.58470  0.77700  Biso   1.000  C
  C68      1.0000 0.56720  0.52800  0.77780  Biso   1.000  C
  C69      1.0000 0.88590  0.56370  0.79520  Biso   1.000  C
  C70      1.0000 0.93450  0.70070  0.78080  Biso   1.000  C
  C71      1.0000 0.89030  0.68710  0.84980  Biso   1.000  C
  C72      1.0000 0.35780  0.96920  0.88570  Biso   1.000  C
  C73      1.0000 0.33040  0.98840  0.84360  Biso   1.000  C
  C74      1.0000 0.37900  0.95760  0.81640  Biso   1.000  C
  C75      1.0000 0.43730  0.91370  0.84030  Biso   1.000  C
  C76      1.0000 0.50290  0.87970  0.82460  Biso   1.000  C
  C77      1.0000 0.55580  0.83120  0.84680  Biso   1.000  C
  C78      1.0000 0.62140  0.79140  0.83270  Biso   1.000  C
  C79      1.0000 0.64880  0.74180  0.86030  Biso   1.000  C
  C80      1.0000 0.60290  0.75270  0.89530  Biso   1.000  C
  C81      1.0000 0.60980  0.70940  0.93000  Biso   1.000  C
  C82      1.0000 0.56600  0.72380  0.96560  Biso   1.000  C
  C83      1.0000 0.57250  0.67910  0.00120  Biso   1.000  C
  C84      1.0000 0.52760  0.71600  0.02980  Biso   1.000  C
  C85      1.0000 0.49010  0.78030  0.01100  Biso   1.000  C
  C86      1.0000 0.44070  0.83510  0.03180  Biso   1.000  C
  C87      1.0000 0.40650  0.89850  0.01350  Biso   1.000  C
  C88      1.0000 0.35770  0.95950  0.03400  Biso   1.000  C
  C89      1.0000 0.33270  0.00610  0.00570  Biso   1.000  C
  C90      1.0000 0.35730  0.97570  0.96500  Biso   1.000  C
  C91      1.0000 0.32930  0.99950  0.92460  Biso   1.000  C
  C92      1.0000 0.52350  0.89650  0.78110  Biso   1.000  C
  C93      1.0000 0.47000  0.86280  0.74180  Biso   1.000  C
  C94      1.0000 0.49160  0.88480  0.70350  Biso   1.000  C
  C95      1.0000 0.56180  0.93960  0.70430  Biso   1.000  C
  C96      1.0000 0.61760  0.97040  0.74320  Biso   1.000  C
  C97      1.0000 0.59800  0.94820  0.78210  Biso   1.000  C
  C98      1.0000 0.57710  0.96870  0.66270  Biso   1.000  C
  C99      1.0000 0.66820  0.64460  0.92800  Biso   1.000  C
  C100     1.0000 0.64070  0.56670  0.90330  Biso   1.000  C
  C101     1.0000 0.69800  0.50880  0.89510  Biso   1.000  C
  C102     1.0000 0.78060  0.52940  0.91470  Biso   1.000  C
  C103     1.0000 0.80640  0.60540  0.94360  Biso   1.000  C
  C104     1.0000 0.74760  0.66180  0.95070  Biso   1.000  C
  C105     1.0000 0.84270  0.47230  0.90490  Biso   1.000  C
  C106     1.0000 0.42370  0.82370  0.07580  Biso   1.000  C
  C107     1.0000 0.35820  0.76100  0.07910  Biso   1.000  C
  C108     1.0000 0.34180  0.75420  0.11980  Biso   1.000  C
  C109     1.0000 0.38380  0.80680  0.15720  Biso   1.000  C
  C110     1.0000 0.44630  0.86730  0.15330  Biso   1.000  C
  C111     1.0000 0.46620  0.87620  0.11350  Biso   1.000  C
  C112     1.0000 0.36180  0.80180  0.20090  Biso   1.000  C
  C113     1.0000 0.26910  0.06270  0.92440  Biso   1.000  C
  C114     1.0000 0.18900  0.04240  0.93347  Biso   1.000  C
  C115     1.0000 0.13050  0.09870  0.92995  Biso   1.000  C
  C116     1.0000 0.15210  0.17530  0.91735  Biso   1.000  C
  C117     1.0000 0.23206  0.19566  0.90827  Biso   1.000  C
  C118     1.0000 0.29070  0.13930  0.91180  Biso   1.000  C
  C119     1.0000 0.09070  0.23810  0.91071  Biso   1.000  C
  C120     1.0000 0.11916  0.89784  0.71318  Biso   1.000  C
  C121     1.0000 0.10006  0.93394  0.67382  Biso   1.000  C
  C122     1.0000 0.14720  0.89900  0.64590  Biso   1.000  C
  C123     1.0000 0.19470  0.84370  0.66580  Biso   1.000  C
  C124     1.0000 0.25100  0.79640  0.64650  Biso   1.000  C
  C125     1.0000 0.29300  0.73600  0.66360  Biso   1.000  C
  C126     1.0000 0.34730  0.68510  0.64290  Biso   1.000  C
  C127     1.0000 0.37790  0.63990  0.67030  Biso   1.000  C
  C128     1.0000 0.34540  0.66000  0.71230  Biso   1.000  C
  C129     1.0000 0.93830  0.95290  0.72670  Biso   1.000  C
  C130     1.0000 0.87890  0.01070  0.72630  Biso   1.000  C
  C131     1.0000 0.26780  0.81800  0.60350  Biso   1.000  C
  C132     1.0000 0.22900  0.77040  0.56310  Biso   1.000  C
  C133     1.0000 0.24460  0.79980  0.52470  Biso   1.000  C
  C134     1.0000 0.30100  0.87060  0.52670  Biso   1.000  C
  C135     1.0000 0.34140  0.91580  0.56730  Biso   1.000  C
  C136     1.0000 0.32400  0.89000  0.60450  Biso   1.000  C
  C137     1.0000 0.32210  0.89870  0.48410  Biso   1.000  C
  C138     1.0000 0.41530  0.49190  0.72300  Biso   1.000  C
  C139     1.0000 0.47200  0.43280  0.72220  Biso   1.000  C
  C140     1.0000 0.43630  0.11410  0.70480  Biso   1.000  C
  C141     1.0000 0.29930  0.06550  0.71920  Biso   1.000  C
  C142     1.0000 0.31290  0.10970  0.65020  Biso   1.000  C
  C143     1.0000 0.96920  0.35780  0.38570  Biso   1.000  C
  C144     1.0000 0.98840  0.33040  0.34360  Biso   1.000  C
  C145     1.0000 0.95760  0.37900  0.31640  Biso   1.000  C
  C146     1.0000 0.91370  0.43730  0.34030  Biso   1.000  C
  C147     1.0000 0.87970  0.50290  0.32460  Biso   1.000  C
  C148     1.0000 0.83120  0.55580  0.34680  Biso   1.000  C
  C149     1.0000 0.79140  0.62140  0.33270  Biso   1.000  C
  C150     1.0000 0.74180  0.64880  0.36030  Biso   1.000  C
  C151     1.0000 0.75270  0.60290  0.39530  Biso   1.000  C
  C152     1.0000 0.70940  0.60980  0.43000  Biso   1.000  C
  C153     1.0000 0.72380  0.56600  0.46560  Biso   1.000  C
  C154     1.0000 0.67910  0.57250  0.50120  Biso   1.000  C
  C155     1.0000 0.71600  0.52760  0.52980  Biso   1.000  C
  C156     1.0000 0.78030  0.49010  0.51100  Biso   1.000  C
  C157     1.0000 0.83510  0.44070  0.53180  Biso   1.000  C
  C158     1.0000 0.89850  0.40650  0.51350  Biso   1.000  C
  C159     1.0000 0.95950  0.35770  0.53400  Biso   1.000  C
  C160     1.0000 0.00610  0.33270  0.50570  Biso   1.000  C
  C161     1.0000 0.97570  0.35730  0.46500  Biso   1.000  C
  C162     1.0000 0.99950  0.32930  0.42460  Biso   1.000  C
  C163     1.0000 0.89650  0.52350  0.28110  Biso   1.000  C
  C164     1.0000 0.86280  0.47000  0.24180  Biso   1.000  C
  C165     1.0000 0.88480  0.49160  0.20350  Biso   1.000  C
  C166     1.0000 0.93960  0.56180  0.20430  Biso   1.000  C
  C167     1.0000 0.97040  0.61760  0.24320  Biso   1.000  C
  C168     1.0000 0.94820  0.59800  0.28210  Biso   1.000  C
  C169     1.0000 0.96870  0.57710  0.16270  Biso   1.000  C
  C170     1.0000 0.64460  0.66820  0.42800  Biso   1.000  C
  C171     1.0000 0.56670  0.64070  0.40330  Biso   1.000  C
  C172     1.0000 0.50880  0.69800  0.39510  Biso   1.000  C
  C173     1.0000 0.52940  0.78060  0.41470  Biso   1.000  C
  C174     1.0000 0.60540  0.80640  0.44360  Biso   1.000  C
  C175     1.0000 0.66180  0.74760  0.45070  Biso   1.000  C
  C176     1.0000 0.47230  0.84270  0.40490  Biso   1.000  C
  C177     1.0000 0.82370  0.42370  0.57580  Biso   1.000  C
  C178     1.0000 0.76100  0.35820  0.57910  Biso   1.000  C
  C179     1.0000 0.75420  0.34180  0.61980  Biso   1.000  C
  C180     1.0000 0.80680  0.38380  0.65720  Biso   1.000  C
  C181     1.0000 0.86730  0.44630  0.65330  Biso   1.000  C
  C182     1.0000 0.87620  0.46620  0.61350  Biso   1.000  C
  C183     1.0000 0.80180  0.36180  0.70090  Biso   1.000  C
  C184     1.0000 0.06270  0.26910  0.42440  Biso   1.000  C
  C185     1.0000 0.04240  0.18900  0.43347  Biso   1.000  C
  C186     1.0000 0.09870  0.13050  0.42995  Biso   1.000  C
  C187     1.0000 0.17530  0.15210  0.41735  Biso   1.000  C
  C188     1.0000 0.19566  0.23206  0.40827  Biso   1.000  C
  C189     1.0000 0.13930  0.29070  0.41180  Biso   1.000  C
  C190     1.0000 0.23810  0.09070  0.41071  Biso   1.000  C
  C191     1.0000 0.89784  0.11916  0.21318  Biso   1.000  C
  C192     1.0000 0.93394  0.10006  0.17382  Biso   1.000  C
  C193     1.0000 0.89900  0.14720  0.14590  Biso   1.000  C
  C194     1.0000 0.84370  0.19470  0.16580  Biso   1.000  C
  C195     1.0000 0.79640  0.25100  0.14650  Biso   1.000  C
  C196     1.0000 0.73600  0.29300  0.16360  Biso   1.000  C
  C197     1.0000 0.68510  0.34730  0.14290  Biso   1.000  C
  C198     1.0000 0.63990  0.37790  0.17030  Biso   1.000  C
  C199     1.0000 0.66000  0.34540  0.21230  Biso   1.000  C
  C200     1.0000 0.95290  0.93830  0.22670  Biso   1.000  C
  C201     1.0000 0.01070  0.87890  0.22630  Biso   1.000  C
  C202     1.0000 0.81800  0.26780  0.10350  Biso   1.000  C
  C203     1.0000 0.77040  0.22900  0.06310  Biso   1.000  C
  C204     1.0000 0.79980  0.24460  0.02470  Biso   1.000  C
  C205     1.0000 0.87060  0.30100  0.02670  Biso   1.000  C
  C206     1.0000 0.91580  0.34140  0.06730  Biso   1.000  C
  C207     1.0000 0.89000  0.32400  0.10450  Biso   1.000  C
  C208     1.0000 0.89870  0.32210  0.98410  Biso   1.000  C
  C209     1.0000 0.49190  0.41530  0.22300  Biso   1.000  C
  C210     1.0000 0.43280  0.47200  0.22220  Biso   1.000  C
  C211     1.0000 0.11410  0.43630  0.20480  Biso   1.000  C
  C212     1.0000 0.06550  0.29930  0.21920  Biso   1.000  C
  C213     1.0000 0.10970  0.31290  0.15020  Biso   1.000  C
  C214     1.0000 0.64220  0.03080  0.11430  Biso   1.000  C
  C215     1.0000 0.66960  0.01160  0.15640  Biso   1.000  C
  C216     1.0000 0.62100  0.04240  0.18360  Biso   1.000  C
  C217     1.0000 0.56270  0.08630  0.15970  Biso   1.000  C
  C218     1.0000 0.49710  0.12030  0.17540  Biso   1.000  C
  C219     1.0000 0.44420  0.16880  0.15320  Biso   1.000  C
  C220     1.0000 0.37860  0.20860  0.16730  Biso   1.000  C
  C221     1.0000 0.35120  0.25820  0.13970  Biso   1.000  C
  C222     1.0000 0.39710  0.24730  0.10470  Biso   1.000  C
  C223     1.0000 0.39020  0.29060  0.07000  Biso   1.000  C
  C224     1.0000 0.43400  0.27620  0.03440  Biso   1.000  C
  C225     1.0000 0.42750  0.32090  0.99880  Biso   1.000  C
  C226     1.0000 0.47240  0.28400  0.97020  Biso   1.000  C
  C227     1.0000 0.50990  0.21970  0.98900  Biso   1.000  C
  C228     1.0000 0.55930  0.16490  0.96820  Biso   1.000  C
  C229     1.0000 0.59350  0.10150  0.98650  Biso   1.000  C
  C230     1.0000 0.64230  0.04050  0.96600  Biso   1.000  C
  C231     1.0000 0.66730  0.99390  0.99430  Biso   1.000  C
  C232     1.0000 0.64270  0.02430  0.03500  Biso   1.000  C
  C233     1.0000 0.67070  0.00050  0.07540  Biso   1.000  C
  C234     1.0000 0.47650  0.10350  0.21890  Biso   1.000  C
  C235     1.0000 0.53000  0.13720  0.25820  Biso   1.000  C
  C236     1.0000 0.50840  0.11520  0.29650  Biso   1.000  C
  C237     1.0000 0.43820  0.06040  0.29570  Biso   1.000  C
  C238     1.0000 0.38240  0.02960  0.25680  Biso   1.000  C
  C239     1.0000 0.40200  0.05180  0.21790  Biso   1.000  C
  C240     1.0000 0.42290  0.03130  0.33730  Biso   1.000  C
  C241     1.0000 0.33180  0.35540  0.07200  Biso   1.000  C
  C242     1.0000 0.35930  0.43330  0.09670  Biso   1.000  C
  C243     1.0000 0.30200  0.49120  0.10490  Biso   1.000  C
  C244     1.0000 0.21940  0.47060  0.08530  Biso   1.000  C
  C245     1.0000 0.19360  0.39460  0.05640  Biso   1.000  C
  C246     1.0000 0.25240  0.33820  0.04930  Biso   1.000  C
  C247     1.0000 0.15730  0.52770  0.09510  Biso   1.000  C
  C248     1.0000 0.57630  0.17630  0.92420  Biso   1.000  C
  C249     1.0000 0.64180  0.23900  0.92090  Biso   1.000  C
  C250     1.0000 0.65820  0.24580  0.88020  Biso   1.000  C
  C251     1.0000 0.61620  0.19320  0.84280  Biso   1.000  C
  C252     1.0000 0.55370  0.13270  0.84670  Biso   1.000  C
  C253     1.0000 0.53380  0.12380  0.88650  Biso   1.000  C
  C254     1.0000 0.63820  0.19820  0.79910  Biso   1.000  C
  C255     1.0000 0.73090  0.93730  0.07560  Biso   1.000  C
  C256     1.0000 0.81100  0.95760  0.06653  Biso   1.000  C
  C257     1.0000 0.86950  0.90130  0.07005  Biso   1.000  C
  C258     1.0000 0.84790  0.82470  0.08265  Biso   1.000  C
  C259     1.0000 0.76794  0.80434  0.09173  Biso   1.000  C
  C260     1.0000 0.70930  0.86070  0.08820  Biso   1.000  C
  C261     1.0000 0.90930  0.76190  0.08929  Biso   1.000  C
  C262     1.0000 0.88084  0.10216  0.28682  Biso   1.000  C
  C263     1.0000 0.89994  0.06606  0.32618  Biso   1.000  C
  C264     1.0000 0.85280  0.10100  0.35410  Biso   1.000  C
  C265     1.0000 0.80530  0.15630  0.33420  Biso   1.000  C
  C266     1.0000 0.74900  0.20360  0.35350  Biso   1.000  C
  C267     1.0000 0.70700  0.26400  0.33640  Biso   1.000  C
  C268     1.0000 0.65270  0.31490  0.35710  Biso   1.000  C
  C269     1.0000 0.62210  0.36010  0.32970  Biso   1.000  C
  C270     1.0000 0.65460  0.34000  0.28770  Biso   1.000  C
  C271     1.0000 0.06170  0.04710  0.27330  Biso   1.000  C
  C272     1.0000 0.12110  0.98930  0.27370  Biso   1.000  C
  C273     1.0000 0.73220  0.18200  0.39650  Biso   1.000  C
  C274     1.0000 0.77100  0.22960  0.43690  Biso   1.000  C
  C275     1.0000 0.75540  0.20020  0.47530  Biso   1.000  C
  C276     1.0000 0.69900  0.12940  0.47330  Biso   1.000  C
  C277     1.0000 0.65860  0.08420  0.43270  Biso   1.000  C
  C278     1.0000 0.67600  0.11000  0.39550  Biso   1.000  C
  C279     1.0000 0.67790  0.10130  0.51590  Biso   1.000  C
  C280     1.0000 0.58470  0.50810  0.27700  Biso   1.000  C
  C281     1.0000 0.52800  0.56720  0.27780  Biso   1.000  C
  C282     1.0000 0.56370  0.88590  0.29520  Biso   1.000  C
  C283     1.0000 0.70070  0.93450  0.28080  Biso   1.000  C
  C284     1.0000 0.68710  0.89030  0.34980  Biso   1.000  C
  C285     1.0000 0.08471  0.91529  0.75000  Biso   1.000  C
  C286     1.0000 0.36980  0.63020  0.75000  Biso   1.000  C
  C287     1.0000 0.02320  0.97680  0.75000  Biso   1.000  C
  C288     1.0000 0.90530  0.09470  0.75000  Biso   1.000  C
  C289     1.0000 0.84210  0.15790  0.75000  Biso   1.000  C
  C290     1.0000 0.43450  0.56550  0.75000  Biso   1.000  C
  C291     1.0000 0.54900  0.45100  0.75000  Biso   1.000  C
  C292     1.0000 0.61150  0.38850  0.75000  Biso   1.000  C
  C293     1.0000 0.91529  0.08471  0.25000  Biso   1.000  C
  C294     1.0000 0.63020  0.36980  0.25000  Biso   1.000  C
  C295     1.0000 0.97680  0.02320  0.25000  Biso   1.000  C
  C296     1.0000 0.09470  0.90530  0.25000  Biso   1.000  C
  C297     1.0000 0.15790  0.84210  0.25000  Biso   1.000  C
  C298     1.0000 0.56550  0.43450  0.25000  Biso   1.000  C
  C299     1.0000 0.45100  0.54900  0.25000  Biso   1.000  C
  C300     1.0000 0.38850  0.61150  0.25000  Biso   1.000  C
  N1       1.0000 0.08170  0.57970  0.61790  Biso   1.000  N
  N2       1.0000 0.19130  0.45330  0.61300  Biso   1.000  N
  N3       1.0000 0.21610  0.48590  0.52820  Biso   1.000  N
  N4       1.0000 0.08830  0.59330  0.52880  Biso   1.000  N
  N5       1.0000 0.15970  0.82390  0.79410  Biso   1.000  N
  N6       1.0000 0.28100  0.70760  0.79360  Biso   1.000  N
  N7       1.0000 0.90210  0.64550  0.80810  Biso   1.000  N
  N8       1.0000 0.42030  0.91830  0.88210  Biso   1.000  N
  N9       1.0000 0.54670  0.80870  0.88700  Biso   1.000  N
  N10      1.0000 0.51410  0.78390  0.97180  Biso   1.000  N
  N11      1.0000 0.40670  0.91170  0.97120  Biso   1.000  N
  N12      1.0000 0.17610  0.84030  0.70590  Biso   1.000  N
  N13      1.0000 0.29240  0.71900  0.70640  Biso   1.000  N
  N14      1.0000 0.35450  0.09790  0.69190  Biso   1.000  N
  N15      1.0000 0.91830  0.42030  0.38210  Biso   1.000  N
  N16      1.0000 0.80870  0.54670  0.38700  Biso   1.000  N
  N17      1.0000 0.78390  0.51410  0.47180  Biso   1.000  N
  N18      1.0000 0.91170  0.40670  0.47120  Biso   1.000  N
  N19      1.0000 0.84030  0.17610  0.20590  Biso   1.000  N
  N20      1.0000 0.71900  0.29240  0.20640  Biso   1.000  N
  N21      1.0000 0.09790  0.35450  0.19190  Biso   1.000  N
  N22      1.0000 0.57970  0.08170  0.11790  Biso   1.000  N
  N23      1.0000 0.45330  0.19130  0.11300  Biso   1.000  N
  N24      1.0000 0.48590  0.21610  0.02820  Biso   1.000  N
  N25      1.0000 0.59330  0.08830  0.02880  Biso   1.000  N
  N26      1.0000 0.82390  0.15970  0.29410  Biso   1.000  N
  N27      1.0000 0.70760  0.28100  0.29360  Biso   1.000  N
  N28      1.0000 0.64550  0.90210  0.30810  Biso   1.000  N
  O1       1.0000 0.96110  0.37150  0.83238  Biso   1.000  O
  O2       1.0000 0.07120  0.45740  0.87430  Biso   1.000  O
  O3       1.0000 0.50940  0.08200  0.57540  Biso   1.000  O
  O4       1.0000 0.59570  0.18050  0.62299  Biso   1.000  O
  O5       1.0000 0.15190  0.59610  0.26590  Biso   1.000  O
  O6       1.0000 0.24990  0.70070  0.29613  Biso   1.000  O
  O7       1.0000 0.72640  0.91600  0.61768  Biso   1.000  O
  O8       1.0000 0.75780  0.96280  0.55982  Biso   1.000  O
  O9       1.0000 0.86950  0.23130  0.77025  Biso   1.000  O
  O10      1.0000 0.14120  0.70640  0.04840  Biso   1.000  O
  O11      1.0000 0.03360  0.63380  0.01000  Biso   1.000  O
  O12      1.0000 0.68370  0.41090  0.77390  Biso   1.000  O
  O13      1.0000 0.85830  0.51330  0.81800  Biso   1.000  O
  O14      1.0000 0.87260  0.24460  0.86070  Biso   1.000  O
  O15      1.0000 0.62850  0.03890  0.66762  Biso   1.000  O
  O16      1.0000 0.54260  0.92880  0.62570  Biso   1.000  O
  O17      1.0000 0.91800  0.49060  0.92460  Biso   1.000  O
  O18      1.0000 0.81950  0.40430  0.87701  Biso   1.000  O
  O19      1.0000 0.40390  0.84810  0.23410  Biso   1.000  O
  O20      1.0000 0.29930  0.75010  0.20387  Biso   1.000  O
  O21      1.0000 0.08400  0.27360  0.88232  Biso   1.000  O
  O22      1.0000 0.03720  0.24220  0.94018  Biso   1.000  O
  O23      1.0000 0.76870  0.13050  0.72975  Biso   1.000  O
  O24      1.0000 0.29360  0.85880  0.45160  Biso   1.000  O
  O25      1.0000 0.36620  0.96640  0.49000  Biso   1.000  O
  O26      1.0000 0.58910  0.31630  0.72610  Biso   1.000  O
  O27      1.0000 0.48670  0.14170  0.68200  Biso   1.000  O
  O28      1.0000 0.75540  0.12740  0.63930  Biso   1.000  O
  O29      1.0000 0.03890  0.62850  0.16762  Biso   1.000  O
  O30      1.0000 0.92880  0.54260  0.12570  Biso   1.000  O
  O31      1.0000 0.49060  0.91800  0.42460  Biso   1.000  O
  O32      1.0000 0.40430  0.81950  0.37701  Biso   1.000  O
  O33      1.0000 0.84810  0.40390  0.73410  Biso   1.000  O
  O34      1.0000 0.75010  0.29930  0.70387  Biso   1.000  O
  O35      1.0000 0.27360  0.08400  0.38232  Biso   1.000  O
  O36      1.0000 0.24220  0.03720  0.44018  Biso   1.000  O
  O37      1.0000 0.13050  0.76870  0.22975  Biso   1.000  O
  O38      1.0000 0.85880  0.29360  0.95160  Biso   1.000  O
  O39      1.0000 0.96640  0.36620  0.99000  Biso   1.000  O
  O40      1.0000 0.31630  0.58910  0.22610  Biso   1.000  O
  O41      1.0000 0.14170  0.48670  0.18200  Biso   1.000  O
  O42      1.0000 0.12740  0.75540  0.13930  Biso   1.000  O
  O43      1.0000 0.37150  0.96110  0.33238  Biso   1.000  O
  O44      1.0000 0.45740  0.07120  0.37430  Biso   1.000  O
  O45      1.0000 0.08200  0.50940  0.07540  Biso   1.000  O
  O46      1.0000 0.18050  0.59570  0.12299  Biso   1.000  O
  O47      1.0000 0.59610  0.15190  0.76590  Biso   1.000  O
  O48      1.0000 0.70070  0.24990  0.79613  Biso   1.000  O
  O49      1.0000 0.91600  0.72640  0.11768  Biso   1.000  O
  O50      1.0000 0.96280  0.75780  0.05982  Biso   1.000  O
  O51      1.0000 0.23130  0.86950  0.27025  Biso   1.000  O
  O52      1.0000 0.70640  0.14120  0.54840  Biso   1.000  O
  O53      1.0000 0.63380  0.03360  0.51000  Biso   1.000  O
  O54      1.0000 0.41090  0.68370  0.27390  Biso   1.000  O
  O55      1.0000 0.51330  0.85830  0.31800  Biso   1.000  O
  O56      1.0000 0.24460  0.87260  0.36070  Biso   1.000  O
