data_image0
_cell_length_a       16.1312
_cell_length_b       16.1312
_cell_length_c       16.2674
_cell_angle_alpha    73.6582
_cell_angle_beta     68.1988
_cell_angle_gamma    109.983

_symmetry_space_group_name_H-M    P 1
_symmetry_int_tables_number       1

loop_
  _symmetry_equiv_pos_as_xyz
  'x, y, z'

loop_
  _atom_site_label
  _atom_site_occupancy
  _atom_site_fract_x
  _atom_site_fract_y
  _atom_site_fract_z
  _atom_site_thermal_displace_type
  _atom_site_B_iso_or_equiv
  _atom_site_type_symbol
  Ni1      1.0000 0.50000  0.00000  0.00000  Biso   1.000  Ni
  Ni2      1.0000 0.50000  0.50000  0.50000  Biso   1.000  Ni
  Ni3      1.0000 0.50000  0.00000  0.50000  Biso   1.000  Ni
  Ni4      1.0000 0.00000  0.00000  0.00000  Biso   1.000  Ni
  H1       1.0000 0.44160  0.01540  0.21660  Biso   1.000  H
  H2       1.0000 0.37170  0.06230  0.24140  Biso   1.000  H
  H3       1.0000 0.30780  0.00090  0.14430  Biso   1.000  H
  H4       1.0000 0.72960  0.14170  0.90090  Biso   1.000  H
  H5       1.0000 0.75580  0.22260  0.80000  Biso   1.000  H
  H6       1.0000 0.60590  0.23140  0.89170  Biso   1.000  H
  H7       1.0000 0.68270  0.26080  0.93010  Biso   1.000  H
  H8       1.0000 0.41270  0.22000  0.09070  Biso   1.000  H
  H9       1.0000 0.39260  0.14500  0.04720  Biso   1.000  H
  H10      1.0000 0.49650  0.24700  0.98410  Biso   1.000  H
  H11      1.0000 0.58010  0.17620  0.16130  Biso   1.000  H
  H12      1.0000 0.51340  0.22840  0.17000  Biso   1.000  H
  H13      1.0000 0.61370  0.27100  0.06770  Biso   1.000  H
  H14      1.0000 0.18520  0.83780  0.28860  Biso   1.000  H
  H15      1.0000 0.19130  0.92710  0.31160  Biso   1.000  H
  H16      1.0000 0.24640  0.87060  0.34000  Biso   1.000  H
  H17      1.0000 0.25310  0.87240  0.69030  Biso   1.000  H
  H18      1.0000 0.18080  0.78460  0.68360  Biso   1.000  H
  H19      1.0000 0.30370  0.88540  0.49970  Biso   1.000  H
  H20      1.0000 0.58640  0.93840  0.63020  Biso   1.000  H
  H21      1.0000 0.64630  0.89390  0.57420  Biso   1.000  H
  H22      1.0000 0.50400  0.80210  0.56790  Biso   1.000  H
  H23      1.0000 0.47280  0.77520  0.67980  Biso   1.000  H
  H24      1.0000 0.19000  0.66350  0.79170  Biso   1.000  H
  H25      1.0000 0.25280  0.74790  0.80950  Biso   1.000  H
  H26      1.0000 0.29540  0.67950  0.78190  Biso   1.000  H
  H27      1.0000 0.33160  0.76940  0.53640  Biso   1.000  H
  H28      1.0000 0.24460  0.67110  0.63610  Biso   1.000  H
  H29      1.0000 0.36080  0.70400  0.59880  Biso   1.000  H
  H30      1.0000 0.15330  0.92580  0.61010  Biso   1.000  H
  H31      1.0000 0.14380  0.86700  0.54900  Biso   1.000  H
  H32      1.0000 0.21500  0.98330  0.49270  Biso   1.000  H
  H33      1.0000 0.59750  0.10660  0.05030  Biso   1.000  H
  H34      1.0000 0.38780  0.87860  0.18340  Biso   1.000  H
  H35      1.0000 0.41250  0.87830  0.67700  Biso   1.000  H
  H36      1.0000 0.34560  0.02170  0.56570  Biso   1.000  H
  H37      1.0000 0.73200  0.65820  0.28340  Biso   1.000  H
  H38      1.0000 0.80370  0.61310  0.25860  Biso   1.000  H
  H39      1.0000 0.64520  0.45210  0.35570  Biso   1.000  H
  H40      1.0000 0.54260  0.63050  0.59910  Biso   1.000  H
  H41      1.0000 0.52260  0.55580  0.70000  Biso   1.000  H
  H42      1.0000 0.62310  0.49760  0.60830  Biso   1.000  H
  H43      1.0000 0.69090  0.61280  0.56990  Biso   1.000  H
  H44      1.0000 0.81070  0.50340  0.40930  Biso   1.000  H
  H45      1.0000 0.69220  0.43980  0.45280  Biso   1.000  H
  H46      1.0000 0.73110  0.48060  0.51590  Biso   1.000  H
  H47      1.0000 0.83750  0.74140  0.33870  Biso   1.000  H
  H48      1.0000 0.89840  0.68340  0.33000  Biso   1.000  H
  H49      1.0000 0.83870  0.68140  0.43230  Biso   1.000  H
  H50      1.0000 0.62640  0.47380  0.21140  Biso   1.000  H
  H51      1.0000 0.73870  0.50290  0.18840  Biso   1.000  H
  H52      1.0000 0.71060  0.58640  0.16000  Biso   1.000  H
  H53      1.0000 0.06270  0.94340  0.80970  Biso   1.000  H
  H54      1.0000 0.96820  0.86440  0.81640  Biso   1.000  H
  H55      1.0000 0.88510  0.80340  0.00030  Biso   1.000  H
  H56      1.0000 0.06860  0.21660  0.86980  Biso   1.000  H
  H57      1.0000 0.96810  0.22050  0.92580  Biso   1.000  H
  H58      1.0000 0.87000  0.07190  0.93210  Biso   1.000  H
  H59      1.0000 0.95500  0.15260  0.82020  Biso   1.000  H
  H60      1.0000 0.95520  0.98170  0.70830  Biso   1.000  H
  H61      1.0000 0.05740  0.06230  0.69050  Biso   1.000  H
  H62      1.0000 0.96140  0.07730  0.71810  Biso   1.000  H
  H63      1.0000 0.80580  0.86800  0.96360  Biso   1.000  H
  H64      1.0000 0.80720  0.88070  0.86390  Biso   1.000  H
  H65      1.0000 0.80280  0.95960  0.90120  Biso   1.000  H
  H66      1.0000 0.03590  0.76340  0.88990  Biso   1.000  H
  H67      1.0000 0.91600  0.69280  0.95100  Biso   1.000  H
  H68      1.0000 0.97600  0.70770  0.00730  Biso   1.000  H
  H69      1.0000 0.65690  0.64780  0.44970  Biso   1.000  H
  H70      1.0000 0.56200  0.57120  0.31660  Biso   1.000  H
  H71      1.0000 0.05530  0.08950  0.82300  Biso   1.000  H
  H72      1.0000 0.08740  0.91130  0.93430  Biso   1.000  H
  H73      1.0000 0.55840  0.98460  0.78340  Biso   1.000  H
  H74      1.0000 0.62830  0.93770  0.75860  Biso   1.000  H
  H75      1.0000 0.69220  0.99910  0.85570  Biso   1.000  H
  H76      1.0000 0.27040  0.85830  0.09910  Biso   1.000  H
  H77      1.0000 0.24420  0.77740  0.20000  Biso   1.000  H
  H78      1.0000 0.39410  0.76860  0.10830  Biso   1.000  H
  H79      1.0000 0.31730  0.73920  0.06990  Biso   1.000  H
  H80      1.0000 0.58730  0.78000  0.90930  Biso   1.000  H
  H81      1.0000 0.60740  0.85500  0.95280  Biso   1.000  H
  H82      1.0000 0.50350  0.75300  0.01590  Biso   1.000  H
  H83      1.0000 0.41990  0.82380  0.83870  Biso   1.000  H
  H84      1.0000 0.48660  0.77160  0.83000  Biso   1.000  H
  H85      1.0000 0.38630  0.72900  0.93230  Biso   1.000  H
  H86      1.0000 0.81480  0.16220  0.71140  Biso   1.000  H
  H87      1.0000 0.80870  0.07290  0.68840  Biso   1.000  H
  H88      1.0000 0.75360  0.12940  0.66000  Biso   1.000  H
  H89      1.0000 0.74690  0.12760  0.30970  Biso   1.000  H
  H90      1.0000 0.81920  0.21540  0.31640  Biso   1.000  H
  H91      1.0000 0.69630  0.11460  0.50030  Biso   1.000  H
  H92      1.0000 0.41360  0.06160  0.36980  Biso   1.000  H
  H93      1.0000 0.35370  0.10610  0.42580  Biso   1.000  H
  H94      1.0000 0.49600  0.19790  0.43210  Biso   1.000  H
  H95      1.0000 0.52720  0.22480  0.32020  Biso   1.000  H
  H96      1.0000 0.81000  0.33650  0.20830  Biso   1.000  H
  H97      1.0000 0.74720  0.25210  0.19050  Biso   1.000  H
  H98      1.0000 0.70460  0.32050  0.21810  Biso   1.000  H
  H99      1.0000 0.66840  0.23060  0.46360  Biso   1.000  H
  H100     1.0000 0.75540  0.32890  0.36390  Biso   1.000  H
  H101     1.0000 0.63920  0.29600  0.40120  Biso   1.000  H
  H102     1.0000 0.84670  0.07420  0.38990  Biso   1.000  H
  H103     1.0000 0.85620  0.13300  0.45100  Biso   1.000  H
  H104     1.0000 0.78500  0.01670  0.50730  Biso   1.000  H
  H105     1.0000 0.40250  0.89340  0.94970  Biso   1.000  H
  H106     1.0000 0.61220  0.12140  0.81660  Biso   1.000  H
  H107     1.0000 0.58750  0.12170  0.32300  Biso   1.000  H
  H108     1.0000 0.65440  0.97830  0.43430  Biso   1.000  H
  H109     1.0000 0.26800  0.34180  0.71660  Biso   1.000  H
  H110     1.0000 0.19630  0.38690  0.74140  Biso   1.000  H
  H111     1.0000 0.35480  0.54790  0.64430  Biso   1.000  H
  H112     1.0000 0.45740  0.36950  0.40090  Biso   1.000  H
  H113     1.0000 0.47740  0.44420  0.30000  Biso   1.000  H
  H114     1.0000 0.37690  0.50240  0.39170  Biso   1.000  H
  H115     1.0000 0.30910  0.38720  0.43010  Biso   1.000  H
  H116     1.0000 0.18930  0.49660  0.59070  Biso   1.000  H
  H117     1.0000 0.30780  0.56020  0.54720  Biso   1.000  H
  H118     1.0000 0.26890  0.51940  0.48410  Biso   1.000  H
  H119     1.0000 0.16250  0.25860  0.66130  Biso   1.000  H
  H120     1.0000 0.10160  0.31660  0.67000  Biso   1.000  H
  H121     1.0000 0.16130  0.31860  0.56770  Biso   1.000  H
  H122     1.0000 0.37360  0.52620  0.78860  Biso   1.000  H
  H123     1.0000 0.26130  0.49710  0.81160  Biso   1.000  H
  H124     1.0000 0.28940  0.41360  0.84000  Biso   1.000  H
  H125     1.0000 0.93730  0.05660  0.19030  Biso   1.000  H
  H126     1.0000 0.03180  0.13560  0.18360  Biso   1.000  H
  H127     1.0000 0.11490  0.19660  0.99970  Biso   1.000  H
  H128     1.0000 0.93140  0.78340  0.13020  Biso   1.000  H
  H129     1.0000 0.03190  0.77950  0.07420  Biso   1.000  H
  H130     1.0000 0.13000  0.92810  0.06790  Biso   1.000  H
  H131     1.0000 0.04500  0.84740  0.17980  Biso   1.000  H
  H132     1.0000 0.04480  0.01830  0.29170  Biso   1.000  H
  H133     1.0000 0.94260  0.93770  0.30950  Biso   1.000  H
  H134     1.0000 0.03860  0.92270  0.28190  Biso   1.000  H
  H135     1.0000 0.19420  0.13200  0.03640  Biso   1.000  H
  H136     1.0000 0.19280  0.11930  0.13610  Biso   1.000  H
  H137     1.0000 0.19720  0.04040  0.09880  Biso   1.000  H
  H138     1.0000 0.96410  0.23660  0.11010  Biso   1.000  H
  H139     1.0000 0.08400  0.30720  0.04900  Biso   1.000  H
  H140     1.0000 0.02400  0.29230  0.99270  Biso   1.000  H
  H141     1.0000 0.34310  0.35220  0.55030  Biso   1.000  H
  H142     1.0000 0.43800  0.42880  0.68340  Biso   1.000  H
  H143     1.0000 0.94470  0.91050  0.17700  Biso   1.000  H
  H144     1.0000 0.91260  0.08870  0.06570  Biso   1.000  H
  W1       1.0000 0.39543  0.14543  0.75000  Biso   1.000  W
  W2       1.0000 0.60457  0.85457  0.25000  Biso   1.000  W
  C1       1.0000 0.40720  0.08130  0.87710  Biso   1.000  C
  C2       1.0000 0.46810  0.09580  0.64990  Biso   1.000  C
  C3       1.0000 0.30010  0.98540  0.82310  Biso   1.000  C
  C4       1.0000 0.55930  0.21940  0.69810  Biso   1.000  C
  C5       1.0000 0.49310  0.14460  0.09730  Biso   1.000  C
  C6       1.0000 0.40790  0.04600  0.19150  Biso   1.000  C
  C7       1.0000 0.32700  0.96690  0.18790  Biso   1.000  C
  C8       1.0000 0.70000  0.16850  0.86590  Biso   1.000  C
  C9       1.0000 0.63840  0.20710  0.92450  Biso   1.000  C
  C10      1.0000 0.44410  0.19370  0.05040  Biso   1.000  C
  C11      1.0000 0.55580  0.21120  0.12680  Biso   1.000  C
  C12      1.0000 0.22820  0.89380  0.29180  Biso   1.000  C
  C13      1.0000 0.31430  0.78530  0.66060  Biso   1.000  C
  C14      1.0000 0.25190  0.83660  0.65130  Biso   1.000  C
  C15      1.0000 0.28150  0.91040  0.54730  Biso   1.000  C
  C16      1.0000 0.59520  0.91460  0.58080  Biso   1.000  C
  C17      1.0000 0.49620  0.82780  0.61580  Biso   1.000  C
  C18      1.0000 0.25790  0.71240  0.77110  Biso   1.000  C
  C19      1.0000 0.31270  0.72720  0.60270  Biso   1.000  C
  C20      1.0000 0.18970  0.92280  0.55010  Biso   1.000  C
  C21      1.0000 0.45840  0.28430  0.62290  Biso   1.000  C
  C22      1.0000 0.24570  0.11800  0.85010  Biso   1.000  C
  C23      1.0000 0.30850  0.12320  0.67690  Biso   1.000  C
  C24      1.0000 0.41750  0.25740  0.80190  Biso   1.000  C
  C25      1.0000 0.74190  0.59040  0.40270  Biso   1.000  C
  C26      1.0000 0.73750  0.59940  0.30850  Biso   1.000  C
  C27      1.0000 0.65480  0.51490  0.31210  Biso   1.000  C
  C28      1.0000 0.53440  0.56590  0.63410  Biso   1.000  C
  C29      1.0000 0.63160  0.56290  0.57550  Biso   1.000  C
  C30      1.0000 0.74410  0.49450  0.44960  Biso   1.000  C
  C31      1.0000 0.83800  0.68260  0.37320  Biso   1.000  C
  C32      1.0000 0.68560  0.52000  0.20820  Biso   1.000  C
  C33      1.0000 0.94590  0.97490  0.83940  Biso   1.000  C
  C34      1.0000 0.98790  0.90320  0.84870  Biso   1.000  C
  C35      1.0000 0.95770  0.82880  0.95270  Biso   1.000  C
  C36      1.0000 0.99540  0.17600  0.91920  Biso   1.000  C
  C37      1.0000 0.94360  0.11200  0.88420  Biso   1.000  C
  C38      1.0000 0.98350  0.02900  0.72890  Biso   1.000  C
  C39      1.0000 0.82990  0.91540  0.89730  Biso   1.000  C
  C40      1.0000 0.97290  0.73980  0.94990  Biso   1.000  C
  C41      1.0000 0.59280  0.91870  0.12290  Biso   1.000  C
  C42      1.0000 0.53190  0.90420  0.35010  Biso   1.000  C
  C43      1.0000 0.69990  0.01460  0.17690  Biso   1.000  C
  C44      1.0000 0.44070  0.78060  0.30190  Biso   1.000  C
  C45      1.0000 0.50690  0.85540  0.90270  Biso   1.000  C
  C46      1.0000 0.59210  0.95400  0.80850  Biso   1.000  C
  C47      1.0000 0.67300  0.03310  0.81210  Biso   1.000  C
  C48      1.0000 0.30000  0.83150  0.13410  Biso   1.000  C
  C49      1.0000 0.36160  0.79290  0.07550  Biso   1.000  C
  C50      1.0000 0.55590  0.80630  0.94960  Biso   1.000  C
  C51      1.0000 0.44420  0.78880  0.87320  Biso   1.000  C
  C52      1.0000 0.77180  0.10620  0.70820  Biso   1.000  C
  C53      1.0000 0.68570  0.21470  0.33940  Biso   1.000  C
  C54      1.0000 0.74810  0.16340  0.34870  Biso   1.000  C
  C55      1.0000 0.71850  0.08960  0.45270  Biso   1.000  C
  C56      1.0000 0.40480  0.08540  0.41920  Biso   1.000  C
  C57      1.0000 0.50380  0.17220  0.38420  Biso   1.000  C
  C58      1.0000 0.74210  0.28760  0.22890  Biso   1.000  C
  C59      1.0000 0.68730  0.27280  0.39730  Biso   1.000  C
  C60      1.0000 0.81030  0.07720  0.44990  Biso   1.000  C
  C61      1.0000 0.54160  0.71570  0.37710  Biso   1.000  C
  C62      1.0000 0.75430  0.88200  0.14990  Biso   1.000  C
  C63      1.0000 0.69150  0.87680  0.32310  Biso   1.000  C
  C64      1.0000 0.58250  0.74260  0.19810  Biso   1.000  C
  C65      1.0000 0.25810  0.40960  0.59730  Biso   1.000  C
  C66      1.0000 0.26250  0.40060  0.69150  Biso   1.000  C
  C67      1.0000 0.34520  0.48510  0.68790  Biso   1.000  C
  C68      1.0000 0.46560  0.43410  0.36590  Biso   1.000  C
  C69      1.0000 0.36840  0.43710  0.42450  Biso   1.000  C
  C70      1.0000 0.25590  0.50550  0.55040  Biso   1.000  C
  C71      1.0000 0.16200  0.31740  0.62680  Biso   1.000  C
  C72      1.0000 0.31440  0.48000  0.79180  Biso   1.000  C
  C73      1.0000 0.05410  0.02510  0.16060  Biso   1.000  C
  C74      1.0000 0.01210  0.09680  0.15130  Biso   1.000  C
  C75      1.0000 0.04230  0.17120  0.04730  Biso   1.000  C
  C76      1.0000 0.00460  0.82400  0.08080  Biso   1.000  C
  C77      1.0000 0.05640  0.88800  0.11580  Biso   1.000  C
  C78      1.0000 0.01650  0.97100  0.27110  Biso   1.000  C
  C79      1.0000 0.17010  0.08460  0.10270  Biso   1.000  C
  C80      1.0000 0.02710  0.26020  0.05010  Biso   1.000  C
  N1       1.0000 0.41730  0.04850  0.94200  Biso   1.000  N
  N2       1.0000 0.49690  0.06430  0.59800  Biso   1.000  N
  N3       1.0000 0.25090  0.90000  0.86530  Biso   1.000  N
  N4       1.0000 0.64410  0.25830  0.67220  Biso   1.000  N
  N5       1.0000 0.55970  0.12020  0.02430  Biso   1.000  N
  N6       1.0000 0.36880  0.90860  0.14320  Biso   1.000  N
  N7       1.0000 0.42090  0.86290  0.62580  Biso   1.000  N
  N8       1.0000 0.36650  0.00210  0.51800  Biso   1.000  N
  N9       1.0000 0.49050  0.35930  0.55800  Biso   1.000  N
  N10      1.0000 0.16230  0.09490  0.90200  Biso   1.000  N
  N11      1.0000 0.26530  0.11620  0.63470  Biso   1.000  N
  N12      1.0000 0.43050  0.31630  0.82780  Biso   1.000  N
  N13      1.0000 0.64450  0.58400  0.47570  Biso   1.000  N
  N14      1.0000 0.55180  0.51200  0.35680  Biso   1.000  N
  N15      1.0000 0.98870  0.04670  0.87420  Biso   1.000  N
  N16      1.0000 0.02010  0.88450  0.98200  Biso   1.000  N
  N17      1.0000 0.58270  0.95150  0.05800  Biso   1.000  N
  N18      1.0000 0.50310  0.93570  0.40200  Biso   1.000  N
  N19      1.0000 0.74910  0.10000  0.13470  Biso   1.000  N
  N20      1.0000 0.35590  0.74170  0.32780  Biso   1.000  N
  N21      1.0000 0.44030  0.87980  0.97570  Biso   1.000  N
  N22      1.0000 0.63120  0.09140  0.85680  Biso   1.000  N
  N23      1.0000 0.57910  0.13710  0.37420  Biso   1.000  N
  N24      1.0000 0.63350  0.99790  0.48200  Biso   1.000  N
  N25      1.0000 0.50950  0.64070  0.44200  Biso   1.000  N
  N26      1.0000 0.83770  0.90510  0.09800  Biso   1.000  N
  N27      1.0000 0.73470  0.88380  0.36530  Biso   1.000  N
  N28      1.0000 0.56950  0.68370  0.17220  Biso   1.000  N
  N29      1.0000 0.35550  0.41600  0.52430  Biso   1.000  N
  N30      1.0000 0.44820  0.48800  0.64320  Biso   1.000  N
  N31      1.0000 0.01130  0.95330  0.12580  Biso   1.000  N
  N32      1.0000 0.97990  0.11550  0.01800  Biso   1.000  N
