data_image0
_cell_length_a       6.56
_cell_length_b       18.929
_cell_length_c       11.411
_cell_angle_alpha    90
_cell_angle_beta     90
_cell_angle_gamma    90

_symmetry_space_group_name_H-M    P 1
_symmetry_int_tables_number       1

loop_
  _symmetry_equiv_pos_as_xyz
  'x, y, z'

loop_
  _atom_site_label
  _atom_site_occupancy
  _atom_site_fract_x
  _atom_site_fract_y
  _atom_site_fract_z
  _atom_site_thermal_displace_type
  _atom_site_B_iso_or_equiv
  _atom_site_type_symbol
  La1      1.0000 0.13752  0.75286  0.00000  Biso   1.000  La
  La2      1.0000 0.86248  0.24714  0.00000  Biso   1.000  La
  La3      1.0000 0.63752  0.74714  0.50000  Biso   1.000  La
  La4      1.0000 0.36248  0.25286  0.50000  Biso   1.000  La
  La5      1.0000 0.24753  0.91935  0.50000  Biso   1.000  La
  La6      1.0000 0.75247  0.08065  0.50000  Biso   1.000  La
  La7      1.0000 0.74753  0.58065  0.00000  Biso   1.000  La
  La8      1.0000 0.25247  0.41935  0.00000  Biso   1.000  La
  C1       1.0000 0.25680  0.79409  0.72230  Biso   1.000  C
  C2       1.0000 0.14540  0.86030  0.77020  Biso   1.000  C
  C3       1.0000 0.74320  0.20591  0.72230  Biso   1.000  C
  C4       1.0000 0.85460  0.13970  0.77020  Biso   1.000  C
  C5       1.0000 0.75680  0.70591  0.77770  Biso   1.000  C
  C6       1.0000 0.64540  0.63970  0.72980  Biso   1.000  C
  C7       1.0000 0.24320  0.29409  0.77770  Biso   1.000  C
  C8       1.0000 0.35460  0.36030  0.72980  Biso   1.000  C
  C9       1.0000 0.74320  0.20591  0.27770  Biso   1.000  C
  C10      1.0000 0.85460  0.13970  0.22980  Biso   1.000  C
  C11      1.0000 0.25680  0.79409  0.27770  Biso   1.000  C
  C12      1.0000 0.14540  0.86030  0.22980  Biso   1.000  C
  C13      1.0000 0.24320  0.29409  0.22230  Biso   1.000  C
  C14      1.0000 0.35460  0.36030  0.27020  Biso   1.000  C
  C15      1.0000 0.75680  0.70591  0.22230  Biso   1.000  C
  C16      1.0000 0.64540  0.63970  0.27020  Biso   1.000  C
  N1       1.0000 0.29520  0.60770  0.00000  Biso   1.000  N
  N2       1.0000 0.70480  0.39230  0.00000  Biso   1.000  N
  N3       1.0000 0.79520  0.89230  0.50000  Biso   1.000  N
  N4       1.0000 0.20480  0.10770  0.50000  Biso   1.000  N
  O1       1.0000 0.26780  0.74215  0.78870  Biso   1.000  O
  O2       1.0000 0.32590  0.79918  0.61990  Biso   1.000  O
  O3       1.0000 0.07300  0.85572  0.87250  Biso   1.000  O
  O4       1.0000 0.13200  0.91312  0.70640  Biso   1.000  O
  O5       1.0000 0.73220  0.25785  0.78870  Biso   1.000  O
  O6       1.0000 0.67410  0.20082  0.61990  Biso   1.000  O
  O7       1.0000 0.92700  0.14428  0.87250  Biso   1.000  O
  O8       1.0000 0.86800  0.08688  0.70640  Biso   1.000  O
  O9       1.0000 0.76780  0.75785  0.71130  Biso   1.000  O
  O10      1.0000 0.82590  0.70082  0.88010  Biso   1.000  O
  O11      1.0000 0.57300  0.64428  0.62750  Biso   1.000  O
  O12      1.0000 0.63200  0.58688  0.79360  Biso   1.000  O
  O13      1.0000 0.23220  0.24215  0.71130  Biso   1.000  O
  O14      1.0000 0.17410  0.29918  0.88010  Biso   1.000  O
  O15      1.0000 0.42700  0.35572  0.62750  Biso   1.000  O
  O16      1.0000 0.36800  0.41312  0.79360  Biso   1.000  O
  O17      1.0000 0.73220  0.25785  0.21130  Biso   1.000  O
  O18      1.0000 0.67410  0.20082  0.38010  Biso   1.000  O
  O19      1.0000 0.92700  0.14428  0.12750  Biso   1.000  O
  O20      1.0000 0.86800  0.08688  0.29360  Biso   1.000  O
  O21      1.0000 0.26780  0.74215  0.21130  Biso   1.000  O
  O22      1.0000 0.32590  0.79918  0.38010  Biso   1.000  O
  O23      1.0000 0.07300  0.85572  0.12750  Biso   1.000  O
  O24      1.0000 0.13200  0.91312  0.29360  Biso   1.000  O
  O25      1.0000 0.23220  0.24215  0.28870  Biso   1.000  O
  O26      1.0000 0.17410  0.29918  0.11990  Biso   1.000  O
  O27      1.0000 0.42700  0.35572  0.37250  Biso   1.000  O
  O28      1.0000 0.36800  0.41312  0.20640  Biso   1.000  O
  O29      1.0000 0.76780  0.75785  0.28870  Biso   1.000  O
  O30      1.0000 0.82590  0.70082  0.11990  Biso   1.000  O
  O31      1.0000 0.57300  0.64428  0.37250  Biso   1.000  O
  O32      1.0000 0.63200  0.58688  0.20640  Biso   1.000  O
  O33      1.0000 0.10390  0.62190  0.00000  Biso   1.000  O
  O34      1.0000 0.42070  0.66014  0.00000  Biso   1.000  O
  O35      1.0000 0.36280  0.54541  0.00000  Biso   1.000  O
  O36      1.0000 0.48660  0.81730  0.00000  Biso   1.000  O
  O37      1.0000 0.89610  0.37810  0.00000  Biso   1.000  O
  O38      1.0000 0.57930  0.33986  0.00000  Biso   1.000  O
  O39      1.0000 0.63720  0.45459  0.00000  Biso   1.000  O
  O40      1.0000 0.51340  0.18270  0.00000  Biso   1.000  O
  O41      1.0000 0.60390  0.87810  0.50000  Biso   1.000  O
  O42      1.0000 0.92070  0.83986  0.50000  Biso   1.000  O
  O43      1.0000 0.86280  0.95459  0.50000  Biso   1.000  O
  O44      1.0000 0.98660  0.68270  0.50000  Biso   1.000  O
  O45      1.0000 0.39610  0.12190  0.50000  Biso   1.000  O
  O46      1.0000 0.07930  0.16014  0.50000  Biso   1.000  O
  O47      1.0000 0.13720  0.04541  0.50000  Biso   1.000  O
  O48      1.0000 0.01340  0.31730  0.50000  Biso   1.000  O
  O49      1.0000 0.50000  0.00000  0.36310  Biso   1.000  O
  O50      1.0000 0.00000  0.50000  0.13690  Biso   1.000  O
  O51      1.0000 0.50000  0.00000  0.63690  Biso   1.000  O
  O52      1.0000 0.00000  0.50000  0.86310  Biso   1.000  O
