data_image0
_cell_length_a       13.4664
_cell_length_b       14.4449
_cell_length_c       14.4449
_cell_angle_alpha    69.1974
_cell_angle_beta     71.8954
_cell_angle_gamma    108.105

_symmetry_space_group_name_H-M    P 1
_symmetry_int_tables_number       1

loop_
  _symmetry_equiv_pos_as_xyz
  'x, y, z'

loop_
  _atom_site_label
  _atom_site_occupancy
  _atom_site_fract_x
  _atom_site_fract_y
  _atom_site_fract_z
  _atom_site_thermal_displace_type
  _atom_site_B_iso_or_equiv
  _atom_site_type_symbol
  Ga1      1.0000 0.14640  0.17390  0.37320  Biso   1.000  Ga
  Ga2      1.0000 0.19250  0.86420  0.54320  Biso   1.000  Ga
  Ga3      1.0000 0.51960  0.37320  0.45290  Biso   1.000  Ga
  Ga4      1.0000 0.73570  0.54320  0.59260  Biso   1.000  Ga
  Ga5      1.0000 0.97250  0.45290  0.17390  Biso   1.000  Ga
  Ga6      1.0000 0.32830  0.59260  0.86420  Biso   1.000  Ga
  Ga7      1.0000 0.85360  0.82610  0.62680  Biso   1.000  Ga
  Ga8      1.0000 0.80750  0.13580  0.45680  Biso   1.000  Ga
  Ga9      1.0000 0.48040  0.62680  0.54710  Biso   1.000  Ga
  Ga10     1.0000 0.26430  0.45680  0.40740  Biso   1.000  Ga
  Ga11     1.0000 0.02750  0.54710  0.82610  Biso   1.000  Ga
  Ga12     1.0000 0.67170  0.40740  0.13580  Biso   1.000  Ga
  P1       1.0000 0.06390  0.94660  0.39910  Biso   1.000  P
  P2       1.0000 0.06160  0.35230  0.33350  Biso   1.000  P
  P3       1.0000 0.46300  0.39910  0.65430  Biso   1.000  P
  P4       1.0000 0.39510  0.33350  0.31420  Biso   1.000  P
  P5       1.0000 0.11730  0.65430  0.94660  Biso   1.000  P
  P6       1.0000 0.70930  0.31420  0.35230  Biso   1.000  P
  P7       1.0000 0.93610  0.05340  0.60090  Biso   1.000  P
  P8       1.0000 0.93840  0.64770  0.66650  Biso   1.000  P
  P9       1.0000 0.53700  0.60090  0.34570  Biso   1.000  P
  P10      1.0000 0.60490  0.66650  0.68580  Biso   1.000  P
  P11      1.0000 0.88270  0.34570  0.05340  Biso   1.000  P
  P12      1.0000 0.29070  0.68580  0.64770  Biso   1.000  P
  H1       1.0000 0.32510  0.84740  0.39110  Biso   1.000  H
  H2       1.0000 0.25570  0.88740  0.34980  Biso   1.000  H
  H3       1.0000 0.30790  0.08230  0.45860  Biso   1.000  H
  H4       1.0000 0.11190  0.81720  0.75000  Biso   1.000  H
  H5       1.0000 0.04960  0.86940  0.70140  Biso   1.000  H
  H6       1.0000 0.46330  0.01600  0.26720  Biso   1.000  H
  H7       1.0000 0.36970  0.06750  0.29140  Biso   1.000  H
  H8       1.0000 0.37950  0.09350  0.57540  Biso   1.000  H
  H9       1.0000 0.35360  0.96870  0.62550  Biso   1.000  H
  H10      1.0000 0.49840  0.11350  0.36830  Biso   1.000  H
  H11      1.0000 0.45710  0.97740  0.45000  Biso   1.000  H
  H12      1.0000 0.19570  0.97090  0.74200  Biso   1.000  H
  H13      1.0000 0.17000  0.03530  0.64170  Biso   1.000  H
  H14      1.0000 0.71620  0.39110  0.76150  Biso   1.000  H
  H15      1.0000 0.60550  0.34980  0.76280  Biso   1.000  H
  H16      1.0000 0.76650  0.45860  0.45910  Biso   1.000  H
  H17      1.0000 0.86190  0.75000  0.43280  Biso   1.000  H
  H18      1.0000 0.75100  0.70140  0.42920  Biso   1.000  H
  H19      1.0000 0.73050  0.26720  0.71680  Biso   1.000  H
  H20      1.0000 0.66110  0.29140  0.64110  Biso   1.000  H
  H21      1.0000 0.95490  0.57540  0.33110  Biso   1.000  H
  H22      1.0000 0.97910  0.62550  0.40580  Biso   1.000  H
  H23      1.0000 0.86670  0.36830  0.51820  Biso   1.000  H
  H24      1.0000 0.90710  0.45000  0.57260  Biso   1.000  H
  H25      1.0000 0.93770  0.74200  0.28710  Biso   1.000  H
  H26      1.0000 0.81170  0.64170  0.32300  Biso   1.000  H
  H27      1.0000 0.47770  0.76150  0.84740  Biso   1.000  H
  H28      1.0000 0.36830  0.76280  0.88740  Biso   1.000  H
  H29      1.0000 0.22560  0.45910  0.08230  Biso   1.000  H
  H30      1.0000 0.29470  0.43280  0.81720  Biso   1.000  H
  H31      1.0000 0.18020  0.42920  0.86940  Biso   1.000  H
  H32      1.0000 0.44730  0.71680  0.01600  Biso   1.000  H
  H33      1.0000 0.30220  0.64110  0.06750  Biso   1.000  H
  H34      1.0000 0.28600  0.33110  0.09350  Biso   1.000  H
  H35      1.0000 0.38490  0.40580  0.96870  Biso   1.000  H
  H36      1.0000 0.38490  0.51820  0.11350  Biso   1.000  H
  H37      1.0000 0.47970  0.57260  0.97740  Biso   1.000  H
  H38      1.0000 0.22480  0.28710  0.97090  Biso   1.000  H
  H39      1.0000 0.13470  0.32300  0.03530  Biso   1.000  H
  H40      1.0000 0.67490  0.15260  0.60890  Biso   1.000  H
  H41      1.0000 0.74430  0.11260  0.65020  Biso   1.000  H
  H42      1.0000 0.69210  0.91770  0.54140  Biso   1.000  H
  H43      1.0000 0.88810  0.18280  0.25000  Biso   1.000  H
  H44      1.0000 0.95040  0.13060  0.29860  Biso   1.000  H
  H45      1.0000 0.53670  0.98400  0.73280  Biso   1.000  H
  H46      1.0000 0.63030  0.93250  0.70860  Biso   1.000  H
  H47      1.0000 0.62050  0.90650  0.42460  Biso   1.000  H
  H48      1.0000 0.64640  0.03130  0.37450  Biso   1.000  H
  H49      1.0000 0.50160  0.88650  0.63170  Biso   1.000  H
  H50      1.0000 0.54290  0.02260  0.55000  Biso   1.000  H
  H51      1.0000 0.80430  0.02910  0.25800  Biso   1.000  H
  H52      1.0000 0.83000  0.96470  0.35830  Biso   1.000  H
  H53      1.0000 0.28380  0.60890  0.23850  Biso   1.000  H
  H54      1.0000 0.39450  0.65020  0.23720  Biso   1.000  H
  H55      1.0000 0.23350  0.54140  0.54090  Biso   1.000  H
  H56      1.0000 0.13810  0.25000  0.56720  Biso   1.000  H
  H57      1.0000 0.24900  0.29860  0.57080  Biso   1.000  H
  H58      1.0000 0.26950  0.73280  0.28320  Biso   1.000  H
  H59      1.0000 0.33890  0.70860  0.35890  Biso   1.000  H
  H60      1.0000 0.04510  0.42460  0.66890  Biso   1.000  H
  H61      1.0000 0.02090  0.37450  0.59420  Biso   1.000  H
  H62      1.0000 0.13330  0.63170  0.48180  Biso   1.000  H
  H63      1.0000 0.09290  0.55000  0.42740  Biso   1.000  H
  H64      1.0000 0.06230  0.25800  0.71290  Biso   1.000  H
  H65      1.0000 0.18830  0.35830  0.67700  Biso   1.000  H
  H66      1.0000 0.52230  0.23850  0.15260  Biso   1.000  H
  H67      1.0000 0.63170  0.23720  0.11260  Biso   1.000  H
  H68      1.0000 0.77440  0.54090  0.91770  Biso   1.000  H
  H69      1.0000 0.70530  0.56720  0.18280  Biso   1.000  H
  H70      1.0000 0.81980  0.57080  0.13060  Biso   1.000  H
  H71      1.0000 0.55270  0.28320  0.98400  Biso   1.000  H
  H72      1.0000 0.69780  0.35890  0.93250  Biso   1.000  H
  H73      1.0000 0.71400  0.66890  0.90650  Biso   1.000  H
  H74      1.0000 0.61510  0.59420  0.03130  Biso   1.000  H
  H75      1.0000 0.61510  0.48180  0.88650  Biso   1.000  H
  H76      1.0000 0.52030  0.42740  0.02260  Biso   1.000  H
  H77      1.0000 0.77520  0.71290  0.02910  Biso   1.000  H
  H78      1.0000 0.86530  0.67700  0.96470  Biso   1.000  H
  C1       1.0000 0.39850  0.01010  0.32340  Biso   1.000  C
  C2       1.0000 0.43250  0.03950  0.40320  Biso   1.000  C
  C3       1.0000 0.32510  0.01990  0.59300  Biso   1.000  C
  C4       1.0000 0.19960  0.98040  0.67350  Biso   1.000  C
  C5       1.0000 0.72190  0.32340  0.66650  Biso   1.000  C
  C6       1.0000 0.83570  0.40320  0.55730  Biso   1.000  C
  C7       1.0000 0.91810  0.59300  0.38710  Biso   1.000  C
  C8       1.0000 0.87310  0.67350  0.34610  Biso   1.000  C
  C9       1.0000 0.38840  0.66650  0.01010  Biso   1.000  C
  C10      1.0000 0.39300  0.55730  0.03950  Biso   1.000  C
  C11      1.0000 0.30520  0.38710  0.01990  Biso   1.000  C
  C12      1.0000 0.21920  0.34610  0.98040  Biso   1.000  C
  C13      1.0000 0.60150  0.98990  0.67660  Biso   1.000  C
  C14      1.0000 0.56750  0.96050  0.59680  Biso   1.000  C
  C15      1.0000 0.67490  0.98010  0.40700  Biso   1.000  C
  C16      1.0000 0.80040  0.01960  0.32650  Biso   1.000  C
  C17      1.0000 0.27810  0.67660  0.33350  Biso   1.000  C
  C18      1.0000 0.16430  0.59680  0.44270  Biso   1.000  C
  C19      1.0000 0.08190  0.40700  0.61290  Biso   1.000  C
  C20      1.0000 0.12690  0.32650  0.65390  Biso   1.000  C
  C21      1.0000 0.61160  0.33350  0.98990  Biso   1.000  C
  C22      1.0000 0.60700  0.44270  0.96050  Biso   1.000  C
  C23      1.0000 0.69480  0.61290  0.98010  Biso   1.000  C
  C24      1.0000 0.78080  0.65390  0.01960  Biso   1.000  C
  N1       1.0000 0.29970  0.89370  0.38700  Biso   1.000  N
  N2       1.0000 0.32510  0.01910  0.49200  Biso   1.000  N
  N3       1.0000 0.12180  0.87270  0.68700  Biso   1.000  N
  N4       1.0000 0.68670  0.38700  0.71930  Biso   1.000  N
  N5       1.0000 0.81710  0.49200  0.48890  Biso   1.000  N
  N6       1.0000 0.80880  0.68700  0.44030  Biso   1.000  N
  N7       1.0000 0.40600  0.71930  0.89370  Biso   1.000  N
  N8       1.0000 0.30600  0.48890  0.01910  Biso   1.000  N
  N9       1.0000 0.24910  0.44030  0.87270  Biso   1.000  N
  N10      1.0000 0.70030  0.10630  0.61300  Biso   1.000  N
  N11      1.0000 0.67490  0.98090  0.50800  Biso   1.000  N
  N12      1.0000 0.87820  0.12730  0.31300  Biso   1.000  N
  N13      1.0000 0.31330  0.61300  0.28070  Biso   1.000  N
  N14      1.0000 0.18290  0.50800  0.51110  Biso   1.000  N
  N15      1.0000 0.19120  0.31300  0.55970  Biso   1.000  N
  N16      1.0000 0.59400  0.28070  0.10630  Biso   1.000  N
  N17      1.0000 0.69400  0.51110  0.98090  Biso   1.000  N
  N18      1.0000 0.75090  0.55970  0.12730  Biso   1.000  N
  O1       1.0000 0.11950  0.94660  0.47680  Biso   1.000  O
  O2       1.0000 0.09060  0.07120  0.33200  Biso   1.000  O
  O3       1.0000 0.92610  0.87360  0.47610  Biso   1.000  O
  O4       1.0000 0.10670  0.90550  0.32200  Biso   1.000  O
  O5       1.0000 0.11810  0.28550  0.29490  Biso   1.000  O
  O6       1.0000 0.08150  0.44810  0.22440  Biso   1.000  O
  O7       1.0000 0.11820  0.40150  0.39140  Biso   1.000  O
  O8       1.0000 0.92840  0.27850  0.41030  Biso   1.000  O
  O9       1.0000 0.59630  0.47680  0.57660  Biso   1.000  O
  O10      1.0000 0.42260  0.33200  0.59680  Biso   1.000  O
  O11      1.0000 0.40220  0.47610  0.65030  Biso   1.000  O
  O12      1.0000 0.42870  0.32200  0.77250  Biso   1.000  O
  O13      1.0000 0.41300  0.29490  0.41960  Biso   1.000  O
  O14      1.0000 0.30590  0.22440  0.32750  Biso   1.000  O
  O15      1.0000 0.50960  0.39140  0.20710  Biso   1.000  O
  O16      1.0000 0.33870  0.41030  0.31120  Biso   1.000  O
  O17      1.0000 0.17290  0.57660  0.94660  Biso   1.000  O
  O18      1.0000 0.01940  0.59680  0.07120  Biso   1.000  O
  O19      1.0000 0.05250  0.65030  0.87360  Biso   1.000  O
  O20      1.0000 0.20120  0.77250  0.90550  Biso   1.000  O
  O21      1.0000 0.83260  0.41960  0.28550  Biso   1.000  O
  O22      1.0000 0.63340  0.32750  0.44810  Biso   1.000  O
  O23      1.0000 0.71670  0.20710  0.40150  Biso   1.000  O
  O24      1.0000 0.64990  0.31120  0.27850  Biso   1.000  O
  O25      1.0000 0.88050  0.05340  0.52320  Biso   1.000  O
  O26      1.0000 0.90940  0.92880  0.66800  Biso   1.000  O
  O27      1.0000 0.07390  0.12640  0.52390  Biso   1.000  O
  O28      1.0000 0.89330  0.09450  0.67800  Biso   1.000  O
  O29      1.0000 0.88190  0.71450  0.70510  Biso   1.000  O
  O30      1.0000 0.91850  0.55190  0.77560  Biso   1.000  O
  O31      1.0000 0.88180  0.59850  0.60860  Biso   1.000  O
  O32      1.0000 0.07160  0.72150  0.58970  Biso   1.000  O
  O33      1.0000 0.40370  0.52320  0.42340  Biso   1.000  O
  O34      1.0000 0.57740  0.66800  0.40320  Biso   1.000  O
  O35      1.0000 0.59780  0.52390  0.34970  Biso   1.000  O
  O36      1.0000 0.57130  0.67800  0.22750  Biso   1.000  O
  O37      1.0000 0.58700  0.70510  0.58040  Biso   1.000  O
  O38      1.0000 0.69410  0.77560  0.67250  Biso   1.000  O
  O39      1.0000 0.49040  0.60860  0.79290  Biso   1.000  O
  O40      1.0000 0.66130  0.58970  0.68880  Biso   1.000  O
  O41      1.0000 0.82710  0.42340  0.05340  Biso   1.000  O
  O42      1.0000 0.98060  0.40320  0.92880  Biso   1.000  O
  O43      1.0000 0.94750  0.34970  0.12640  Biso   1.000  O
  O44      1.0000 0.79880  0.22750  0.09450  Biso   1.000  O
  O45      1.0000 0.16740  0.58040  0.71450  Biso   1.000  O
  O46      1.0000 0.36660  0.67250  0.55190  Biso   1.000  O
  O47      1.0000 0.28330  0.79290  0.59850  Biso   1.000  O
  O48      1.0000 0.35010  0.68880  0.72150  Biso   1.000  O
