data_image0
_cell_length_a       6.6169
_cell_length_b       9.43
_cell_length_c       9.4642
_cell_angle_alpha    107.577
_cell_angle_beta     107.725
_cell_angle_gamma    93.2088

_symmetry_space_group_name_H-M    "P 1"
_symmetry_int_tables_number       1

loop_
  _symmetry_equiv_pos_as_xyz
  'x, y, z'

loop_
  _atom_site_label
  _atom_site_occupancy
  _atom_site_fract_x
  _atom_site_fract_y
  _atom_site_fract_z
  _atom_site_thermal_displace_type
  _atom_site_B_iso_or_equiv
  _atom_site_type_symbol
  O1       1.0000 0.25330  0.93290  0.01700  Biso   1.000  O
  O2       1.0000 0.49470  0.17840  0.17360  Biso   1.000  O
  O3       1.0000 0.17960  0.17040  0.16640  Biso   1.000  O
  O4       1.0000 0.96250  0.91150  0.16700  Biso   1.000  O
  O5       1.0000 0.63830  0.89560  0.15470  Biso   1.000  O
  C1       1.0000 0.36380  0.23200  0.23070  Biso   1.000  C
  C2       1.0000 0.44310  0.34700  0.39330  Biso   1.000  C
  C3       1.0000 0.65030  0.43670  0.39130  Biso   1.000  C
  C4       1.0000 0.27940  0.43880  0.44670  Biso   1.000  C
  C5       1.0000 0.82700  0.89040  0.23126  Biso   1.000  C
  C6       1.0000 0.88080  0.84670  0.37470  Biso   1.000  C
  C7       1.0000 0.74860  0.95110  0.44970  Biso   1.000  C
  C8       1.0000 0.88180  0.09290  0.55250  Biso   1.000  C
  O6       1.0000 0.74670  0.06710  0.98300  Biso   1.000  O
  O7       1.0000 0.50530  0.82160  0.82640  Biso   1.000  O
  O8       1.0000 0.82040  0.82960  0.83360  Biso   1.000  O
  O9       1.0000 0.03750  0.08850  0.83300  Biso   1.000  O
  O10      1.0000 0.36170  0.10440  0.84530  Biso   1.000  O
  C9       1.0000 0.63620  0.76800  0.76930  Biso   1.000  C
  C10      1.0000 0.55690  0.65300  0.60670  Biso   1.000  C
  C11      1.0000 0.34970  0.56330  0.60870  Biso   1.000  C
  C12      1.0000 0.72060  0.56120  0.55330  Biso   1.000  C
  C13      1.0000 0.17300  0.10960  0.76874  Biso   1.000  C
  C14      1.0000 0.11920  0.15330  0.62530  Biso   1.000  C
  C15      1.0000 0.25140  0.04890  0.55030  Biso   1.000  C
  C16      1.0000 0.11820  0.90710  0.44750  Biso   1.000  C
  Al1      1.0000 0.00000  0.00000  0.00000  Biso   1.000  Al
  Al2      1.0000 0.50000  0.00000  0.00000  Biso   1.000  Al
