data_MIMDAP_freeONLY
_audit_creation_date              2015-10-16
_audit_creation_method            'Materials Studio'
_symmetry_space_group_name_H-M    'P1'
_symmetry_Int_Tables_number       1
_symmetry_cell_setting            triclinic
loop_
_symmetry_equiv_pos_as_xyz
  x,y,z
_cell_length_a                    10.6610
_cell_length_b                    11.9980
_cell_length_c                    13.8780
_cell_angle_alpha                 72.7740
_cell_angle_beta                  79.8590
_cell_angle_gamma                 81.1060
loop_
_atom_site_label
_atom_site_type_symbol
_atom_site_fract_x
_atom_site_fract_y
_atom_site_fract_z
_atom_site_U_iso_or_equiv
_atom_site_adp_type
_atom_site_occupancy
Ni1    Ni    0.00000   0.00000   0.00000   0.01267  Uiso   1.00
Ni2    Ni    0.00000   0.50000   0.50000   0.01267  Uiso   1.00
Mo1    Mo    0.87685   0.21404   0.54577   0.01267  Uiso   1.00
Mo2    Mo    0.14817   0.01247   0.53183   0.01267  Uiso   1.00
Mo3    Mo    0.90915   0.00061   0.74627   0.01267  Uiso   1.00
Mo4    Mo    0.09085   0.99939   0.25373   0.01267  Uiso   1.00
Mo5    Mo    0.12315   0.78596   0.45423   0.01267  Uiso   1.00
Mo6    Mo    0.87851   0.22137   0.26338   0.01267  Uiso   1.00
Mo7    Mo    0.12149   0.77863   0.73662   0.01267  Uiso   1.00
Mo8    Mo    0.85183   0.98753   0.46817   0.01267  Uiso   1.00
H1     H     0.61230   0.19260   0.18830   0.01267  Uiso   1.00
H2     H     0.25730   0.60170   0.34840   0.01267  Uiso   1.00
H3     H     0.48710   0.94580   0.28660   0.01267  Uiso   1.00
H4     H     0.74270   0.39830   0.65160   0.01267  Uiso   1.00
H5     H     0.30370   0.99020   0.03900   0.01267  Uiso   1.00
H6     H     0.51890   0.75570   0.39060   0.01267  Uiso   1.00
H7     H     0.71060   0.82520   0.68450   0.01267  Uiso   1.00
H8     H     0.05940   0.42220   0.73430   0.01267  Uiso   1.00
H9     H     0.07810   0.51810   0.90350   0.01267  Uiso   1.00
H10    H     0.37260   0.15390   0.21590   0.01267  Uiso   1.00
H11    H     0.64060   0.63910   0.85720   0.01267  Uiso   1.00
H12    H     0.38630   0.74940   0.55280   0.01267  Uiso   1.00
H13    H     0.12630   0.44140   0.00590   0.01267  Uiso   1.00
H14    H     0.91580   0.65330   0.65920   0.01267  Uiso   1.00
H15    H     0.22490   0.31370   0.16570   0.01267  Uiso   1.00
H16    H     0.38770   0.80740   0.81170   0.01267  Uiso   1.00
H17    H     0.69630   0.00980   0.96100   0.01267  Uiso   1.00
H18    H     0.82600   0.24810   0.88280   0.01267  Uiso   1.00
H19    H     0.82280   0.95240   0.21430   0.01267  Uiso   1.00
H20    H     0.17720   0.04760   0.78570   0.01267  Uiso   1.00
H21    H     0.73160   0.68520   0.48340   0.01267  Uiso   1.00
H22    H     0.61200   0.93570   0.33540   0.01267  Uiso   1.00
H23    H     0.92190   0.48190   0.09650   0.01267  Uiso   1.00
H24    H     0.26840   0.31480   0.51660   0.01267  Uiso   1.00
H25    H     0.88050   0.77710   0.97950   0.01267  Uiso   1.00
H26    H     0.08420   0.34670   0.34080   0.01267  Uiso   1.00
H27    H     0.46090   0.25060   0.72230   0.01267  Uiso   1.00
H28    H     0.11950   0.22290   0.02050   0.01267  Uiso   1.00
H29    H     0.53910   0.74940   0.27770   0.01267  Uiso   1.00
H30    H     0.28940   0.17480   0.31550   0.01267  Uiso   1.00
H31    H     0.77510   0.68630   0.83430   0.01267  Uiso   1.00
H32    H     0.94060   0.57780   0.26570   0.01267  Uiso   1.00
H33    H     0.38800   0.06430   0.66460   0.01267  Uiso   1.00
H34    H     0.17400   0.75190   0.11720   0.01267  Uiso   1.00
H35    H     0.35940   0.36090   0.14280   0.01267  Uiso   1.00
H36    H     0.87370   0.55860   0.99410   0.01267  Uiso   1.00
H37    H     0.62740   0.84610   0.78410   0.01267  Uiso   1.00
H38    H     0.48110   0.24430   0.60940   0.01267  Uiso   1.00
H39    H     0.51290   0.05420   0.71340   0.01267  Uiso   1.00
H40    H     0.61370   0.25060   0.44720   0.01267  Uiso   1.00
C1     C     0.35180   0.20760   0.25810   0.01267  Uiso   1.00
C2     C     0.76990   0.96030   0.16550   0.01267  Uiso   1.00
C3     C     0.14350   0.40030   0.32840   0.01267  Uiso   1.00
C4     C     0.57470   0.90900   0.28830   0.01267  Uiso   1.00
C5     C     0.70530   0.67470   0.80320   0.01267  Uiso   1.00
C6     C     0.11090   0.73300   0.08810   0.01267  Uiso   1.00
C7     C     0.29860   0.00850   0.96980   0.01267  Uiso   1.00
C8     C     0.76230   0.67040   0.42090   0.01267  Uiso   1.00
C9     C     0.23800   0.53760   0.33140   0.01267  Uiso   1.00
C10    C     0.41270   0.79100   0.74920   0.01267  Uiso   1.00
C11    C     0.76200   0.46240   0.66860   0.01267  Uiso   1.00
C12    C     0.42530   0.09100   0.71170   0.01267  Uiso   1.00
C13    C     0.05190   0.46650   0.97020   0.01267  Uiso   1.00
C14    C     0.58550   0.24100   0.39070   0.01267  Uiso   1.00
C15    C     0.23010   0.03970   0.83450   0.01267  Uiso   1.00
C16    C     0.58730   0.20900   0.25080   0.01267  Uiso   1.00
C17    C     0.64820   0.79240   0.74190   0.01267  Uiso   1.00
C18    C     0.04870   0.25190   0.98630   0.01267  Uiso   1.00
C19    C     0.70140   0.99150   0.03020   0.01267  Uiso   1.00
C20    C     0.88910   0.26700   0.91190   0.01267  Uiso   1.00
C21    C     0.87320   0.61420   0.30170   0.01267  Uiso   1.00
C22    C     0.41450   0.75900   0.60930   0.01267  Uiso   1.00
C23    C     0.57460   0.77540   0.32610   0.01267  Uiso   1.00
C24    C     0.94810   0.53350   0.02980   0.01267  Uiso   1.00
C25    C     0.29470   0.32530   0.19680   0.01267  Uiso   1.00
C26    C     0.42540   0.22460   0.67390   0.01267  Uiso   1.00
C27    C     0.95130   0.74810   0.01370   0.01267  Uiso   1.00
C28    C     0.12680   0.38580   0.69830   0.01267  Uiso   1.00
C29    C     0.23770   0.32960   0.57910   0.01267  Uiso   1.00
C30    C     0.85650   0.59970   0.67160   0.01267  Uiso   1.00
N1     N     0.90130   0.37440   0.91180   0.01267  Uiso   1.00
N2     N     0.87050   0.60650   0.40210   0.01267  Uiso   1.00
N3     N     0.97940   0.18650   0.95950   0.01267  Uiso   1.00
N4     N     0.33210   0.77460   0.69020   0.01267  Uiso   1.00
N5     N     0.99600   0.63730   0.04180   0.01267  Uiso   1.00
N6     N     0.09870   0.62560   0.08820   0.01267  Uiso   1.00
N7     N     0.19190   0.01090   0.93530   0.01267  Uiso   1.00
N8     N     0.29720   0.28920   0.66030   0.01267  Uiso   1.00
N9     N     0.66790   0.22540   0.30980   0.01267  Uiso   1.00
N10    N     0.59870   0.96550   0.10170   0.01267  Uiso   1.00
N11    N     0.00400   0.36270   0.95820   0.01267  Uiso   1.00
N12    N     0.31120   0.49340   0.25970   0.01267  Uiso   1.00
N13    N     0.77600   0.67550   0.25970   0.01267  Uiso   1.00
N14    N     0.64820   0.94490   0.18600   0.01267  Uiso   1.00
N15    N     0.35180   0.05510   0.81400   0.01267  Uiso   1.00
N16    N     0.86520   0.51810   0.62360   0.01267  Uiso   1.00
N17    N     0.46890   0.22010   0.29550   0.01267  Uiso   1.00
N18    N     0.75360   0.59500   0.73880   0.01267  Uiso   1.00
N19    N     0.12950   0.39350   0.59790   0.01267  Uiso   1.00
N20    N     0.24640   0.40500   0.26120   0.01267  Uiso   1.00
N21    N     0.13480   0.48190   0.37640   0.01267  Uiso   1.00
N22    N     0.40130   0.03450   0.89830   0.01267  Uiso   1.00
N23    N     0.53110   0.77990   0.70450   0.01267  Uiso   1.00
N24    N     0.53530   0.75770   0.61330   0.01267  Uiso   1.00
N25    N     0.70280   0.71080   0.33970   0.01267  Uiso   1.00
N26    N     0.80810   0.98910   0.06470   0.01267  Uiso   1.00
N27    N     0.22400   0.32450   0.74030   0.01267  Uiso   1.00
N28    N     0.02060   0.81350   0.04050   0.01267  Uiso   1.00
N29    N     0.46470   0.24230   0.38670   0.01267  Uiso   1.00
N30    N     0.68880   0.50660   0.74030   0.01267  Uiso   1.00
O1     O     0.74820   0.00630   0.77090   0.01267  Uiso   1.00
O2     O     0.05400   0.16670   0.24580   0.01267  Uiso   1.00
O3     O     0.09720   0.16110   0.49960   0.01267  Uiso   1.00
O4     O     0.83740   0.22590   0.15010   0.01267  Uiso   1.00
O5     O     0.90280   0.83890   0.50040   0.01267  Uiso   1.00
O6     O     0.08940   0.97730   0.41910   0.01267  Uiso   1.00
O7     O     0.69170   0.99530   0.49840   0.01267  Uiso   1.00
O8     O     0.06730   0.83920   0.32250   0.01267  Uiso   1.00
O9     O     0.87920   0.02880   0.32470   0.01267  Uiso   1.00
O10    O     0.94600   0.83330   0.75420   0.01267  Uiso   1.00
O11    O     0.95430   0.99890   0.86020   0.01267  Uiso   1.00
O12    O     0.91060   0.02270   0.58090   0.01267  Uiso   1.00
O13    O     0.28370   0.76700   0.41450   0.01267  Uiso   1.00
O14    O     0.91980   0.35580   0.50020   0.01267  Uiso   1.00
O15    O     0.12080   0.97120   0.67530   0.01267  Uiso   1.00
O16    O     0.11480   0.63490   0.74190   0.01267  Uiso   1.00
O17    O     0.88520   0.36510   0.25810   0.01267  Uiso   1.00
O18    O     0.30830   0.00470   0.50160   0.01267  Uiso   1.00
O19    O     0.25180   0.99370   0.22910   0.01267  Uiso   1.00
O20    O     0.08020   0.64420   0.49980   0.01267  Uiso   1.00
O21    O     0.16260   0.77410   0.84990   0.01267  Uiso   1.00
O22    O     0.71630   0.23300   0.58550   0.01267  Uiso   1.00
O23    O     0.93270   0.16080   0.67750   0.01267  Uiso   1.00
O24    O     0.04570   0.00110   0.13980   0.01267  Uiso   1.00
O25    O     0.13390   0.82660   0.57580   0.01267  Uiso   1.00
O26    O     0.86610   0.17340   0.42420   0.01267  Uiso   1.00
