data_image0
_cell_length_a       9.2164
_cell_length_b       10.2248
_cell_length_c       12.6094
_cell_angle_alpha    98.098
_cell_angle_beta     106.227
_cell_angle_gamma    106.147

_symmetry_space_group_name_H-M    "P 1"
_symmetry_int_tables_number       1

loop_
  _symmetry_equiv_pos_as_xyz
  'x, y, z'

loop_
  _atom_site_label
  _atom_site_occupancy
  _atom_site_fract_x
  _atom_site_fract_y
  _atom_site_fract_z
  _atom_site_thermal_displace_type
  _atom_site_B_iso_or_equiv
  _atom_site_type_symbol
  Al1      1.0000 0.51309  0.19975  0.21989  Biso   1.000  Al
  Al2      1.0000 0.21272  0.90005  0.48137  Biso   1.000  Al
  Al3      1.0000 0.50107  0.70758  0.22639  Biso   1.000  Al
  Al4      1.0000 0.78207  0.59730  0.51514  Biso   1.000  Al
  O1       1.0000 0.47990  0.19050  0.07516  Biso   1.000  O
  O2       1.0000 0.33520  0.33350  0.98154  Biso   1.000  O
  H1       1.0000 0.34100  0.40100  0.95100  Biso   1.000  H
  O3       1.0000 0.63090  0.44590  0.10015  Biso   1.000  O
  O4       1.0000 0.27660  0.95330  0.36684  Biso   1.000  O
  O5       1.0000 0.43340  0.82170  0.29889  Biso   1.000  O
  O6       1.0000 0.57790  0.06230  0.42891  Biso   1.000  O
  O7       1.0000 0.72440  0.57530  0.63765  Biso   1.000  O
  O8       1.0000 0.40690  0.03450  0.23094  Biso   1.000  O
  O9       1.0000 0.54630  0.27590  0.91358  Biso   1.000  O
  O10      1.0000 0.16190  0.72430  0.49898  Biso   1.000  O
  O11      1.0000 0.70770  0.74910  0.28435  Biso   1.000  O
  O12      1.0000 0.82850  0.77290  0.49465  Biso   1.000  O
  O13      1.0000 0.28310  0.75720  0.71128  Biso   1.000  O
  O14      1.0000 0.99370  0.64700  0.62148  Biso   1.000  O
  O15      1.0000 0.00010  0.84990  0.37374  Biso   1.000  O
  O16      1.0000 0.56810  0.68300  0.72679  Biso   1.000  O
  O17      1.0000 0.17460  0.51940  0.58165  Biso   1.000  O
  O18      1.0000 0.82790  0.98490  0.41858  Biso   1.000  O
  O19      1.0000 0.42620  0.45440  0.57799  Biso   1.000  O
  O20      1.0000 0.60470  0.46060  0.76782  Biso   1.000  O
  P1       1.0000 0.50413  0.31559  0.01993  Biso   1.000  P
  P2       1.0000 0.15230  0.66154  0.60088  Biso   1.000  P
  P3       1.0000 0.57582  0.54145  0.67439  Biso   1.000  P
  P4       1.0000 0.42842  0.96869  0.33447  Biso   1.000  P
  P5       1.0000 0.84208  0.83939  0.39487  Biso   1.000  P
  Al5      1.0000 0.48691  0.80025  0.78011  Biso   1.000  Al
  Al6      1.0000 0.78728  0.09995  0.51863  Biso   1.000  Al
  Al7      1.0000 0.49893  0.29242  0.77361  Biso   1.000  Al
  Al8      1.0000 0.21793  0.40270  0.48486  Biso   1.000  Al
  O21      1.0000 0.52010  0.80950  0.92484  Biso   1.000  O
  O22      1.0000 0.66480  0.66650  0.01846  Biso   1.000  O
  H2       1.0000 0.65900  0.59900  0.04900  Biso   1.000  H
  O23      1.0000 0.36910  0.55410  0.89985  Biso   1.000  O
  O24      1.0000 0.72340  0.04670  0.63316  Biso   1.000  O
  O25      1.0000 0.56660  0.17830  0.70111  Biso   1.000  O
  O26      1.0000 0.42210  0.93770  0.57109  Biso   1.000  O
  O27      1.0000 0.27560  0.42470  0.36235  Biso   1.000  O
  O28      1.0000 0.59310  0.96550  0.76906  Biso   1.000  O
  O29      1.0000 0.45370  0.72410  0.08642  Biso   1.000  O
  O30      1.0000 0.83810  0.27570  0.50102  Biso   1.000  O
  O31      1.0000 0.29230  0.25090  0.71565  Biso   1.000  O
  O32      1.0000 0.17150  0.22710  0.50535  Biso   1.000  O
  O33      1.0000 0.71690  0.24280  0.28872  Biso   1.000  O
  O34      1.0000 0.00630  0.35300  0.37852  Biso   1.000  O
  O35      1.0000 0.99990  0.15010  0.62626  Biso   1.000  O
  O36      1.0000 0.43190  0.31700  0.27321  Biso   1.000  O
  O37      1.0000 0.82540  0.48060  0.41835  Biso   1.000  O
  O38      1.0000 0.17210  0.01510  0.58142  Biso   1.000  O
  O39      1.0000 0.57380  0.54560  0.42201  Biso   1.000  O
  O40      1.0000 0.39530  0.53940  0.23218  Biso   1.000  O
  P6       1.0000 0.49587  0.68441  0.98007  Biso   1.000  P
  P7       1.0000 0.84770  0.33846  0.39912  Biso   1.000  P
  P8       1.0000 0.42418  0.45855  0.32561  Biso   1.000  P
  P9       1.0000 0.57158  0.03131  0.66553  Biso   1.000  P
  P10      1.0000 0.15792  0.16061  0.60513  Biso   1.000  P
