data_image0
_cell_length_a       6.91832
_cell_length_b       15.4887
_cell_length_c       15.4887
_cell_angle_alpha    87.141
_cell_angle_beta     77.0951
_cell_angle_gamma    77.0951

_symmetry_space_group_name_H-M    P 1
_symmetry_int_tables_number       1

loop_
  _symmetry_equiv_pos_as_xyz
  'x, y, z'

loop_
  _atom_site_label
  _atom_site_occupancy
  _atom_site_fract_x
  _atom_site_fract_y
  _atom_site_fract_z
  _atom_site_thermal_displace_type
  _atom_site_B_iso_or_equiv
  _atom_site_type_symbol
  Zn1      1.0000 0.12500  0.76077  0.73923  Biso   1.000  Zn
  Zn2      1.0000 0.62500  0.23923  0.26077  Biso   1.000  Zn
  Zn3      1.0000 0.13577  0.73923  0.23923  Biso   1.000  Zn
  Zn4      1.0000 0.11423  0.26077  0.76077  Biso   1.000  Zn
  H1       1.0000 0.57380  0.73750  0.15250  Biso   1.000  H
  H2       1.0000 0.77660  0.74740  0.01120  Biso   1.000  H
  H3       1.0000 0.63690  0.75210  0.88750  Biso   1.000  H
  H4       1.0000 0.09720  0.74550  0.05090  Biso   1.000  H
  H5       1.0000 0.46380  0.26250  0.84750  Biso   1.000  H
  H6       1.0000 0.53520  0.25260  0.98880  Biso   1.000  H
  H7       1.0000 0.27650  0.24790  0.11250  Biso   1.000  H
  H8       1.0000 0.89360  0.25450  0.94910  Biso   1.000  H
  H9       1.0000 0.27370  0.15250  0.26250  Biso   1.000  H
  H10      1.0000 0.21220  0.01120  0.25260  Biso   1.000  H
  H11      1.0000 0.47560  0.88750  0.24790  Biso   1.000  H
  H12      1.0000 0.85190  0.05090  0.25450  Biso   1.000  H
  H13      1.0000 0.68870  0.84750  0.73750  Biso   1.000  H
  H14      1.0000 0.47600  0.98880  0.74740  Biso   1.000  H
  H15      1.0000 0.61100  0.11250  0.75210  Biso   1.000  H
  H16      1.0000 0.15730  0.94910  0.74550  Biso   1.000  H
  H17      1.0000 0.78620  0.65250  0.23750  Biso   1.000  H
  H18      1.0000 0.71480  0.51120  0.24740  Biso   1.000  H
  H19      1.0000 0.97350  0.38750  0.25210  Biso   1.000  H
  H20      1.0000 0.35640  0.55090  0.24550  Biso   1.000  H
  H21      1.0000 0.67620  0.34750  0.76250  Biso   1.000  H
  H22      1.0000 0.47340  0.48880  0.75260  Biso   1.000  H
  H23      1.0000 0.61310  0.61250  0.74790  Biso   1.000  H
  H24      1.0000 0.15280  0.44910  0.75450  Biso   1.000  H
  H25      1.0000 0.56130  0.76250  0.65250  Biso   1.000  H
  H26      1.0000 0.77400  0.75260  0.51120  Biso   1.000  H
  H27      1.0000 0.63900  0.74790  0.38750  Biso   1.000  H
  H28      1.0000 0.09270  0.75450  0.55090  Biso   1.000  H
  H29      1.0000 0.97630  0.23750  0.34750  Biso   1.000  H
  H30      1.0000 0.03780  0.24740  0.48880  Biso   1.000  H
  H31      1.0000 0.77440  0.25210  0.61250  Biso   1.000  H
  H32      1.0000 0.39810  0.24550  0.44910  Biso   1.000  H
  C1       1.0000 0.51430  0.74170  0.10250  Biso   1.000  C
  C2       1.0000 0.63710  0.74670  0.01790  Biso   1.000  C
  C3       1.0000 0.55450  0.75040  0.94520  Biso   1.000  C
  C4       1.0000 0.34800  0.75170  0.95630  Biso   1.000  C
  C5       1.0000 0.23700  0.74650  0.04250  Biso   1.000  C
  C6       1.0000 0.24730  0.75810  0.88090  Biso   1.000  C
  C7       1.0000 0.35850  0.25830  0.89750  Biso   1.000  C
  C8       1.0000 0.40170  0.25330  0.98210  Biso   1.000  C
  C9       1.0000 0.25010  0.24960  0.05480  Biso   1.000  C
  C10      1.0000 0.05600  0.24830  0.04370  Biso   1.000  C
  C11      1.0000 0.02600  0.25350  0.95750  Biso   1.000  C
  C12      1.0000 0.88630  0.24190  0.11910  Biso   1.000  C
  C13      1.0000 0.38320  0.10250  0.25830  Biso   1.000  C
  C14      1.0000 0.34500  0.01790  0.25330  Biso   1.000  C
  C15      1.0000 0.50030  0.94520  0.24960  Biso   1.000  C
  C16      1.0000 0.69570  0.95630  0.24830  Biso   1.000  C
  C17      1.0000 0.72050  0.04250  0.25350  Biso   1.000  C
  C18      1.0000 0.87180  0.88090  0.24190  Biso   1.000  C
  C19      1.0000 0.74400  0.89750  0.74170  Biso   1.000  C
  C20      1.0000 0.61620  0.98210  0.74670  Biso   1.000  C
  C21      1.0000 0.69510  0.05480  0.75040  Biso   1.000  C
  C22      1.0000 0.90030  0.04370  0.75170  Biso   1.000  C
  C23      1.0000 0.01650  0.95750  0.74650  Biso   1.000  C
  C24      1.0000 0.99460  0.11910  0.75810  Biso   1.000  C
  C25      1.0000 0.89150  0.60250  0.24170  Biso   1.000  C
  C26      1.0000 0.84830  0.51790  0.24670  Biso   1.000  C
  C27      1.0000 0.99990  0.44520  0.25040  Biso   1.000  C
  C28      1.0000 0.19400  0.45630  0.25170  Biso   1.000  C
  C29      1.0000 0.22400  0.54250  0.24650  Biso   1.000  C
  C30      1.0000 0.36370  0.38090  0.25810  Biso   1.000  C
  C31      1.0000 0.73570  0.39750  0.75830  Biso   1.000  C
  C32      1.0000 0.61290  0.48210  0.75330  Biso   1.000  C
  C33      1.0000 0.69550  0.55480  0.74960  Biso   1.000  C
  C34      1.0000 0.90200  0.54370  0.74830  Biso   1.000  C
  C35      1.0000 0.01300  0.45750  0.75350  Biso   1.000  C
  C36      1.0000 0.00270  0.61910  0.74190  Biso   1.000  C
  C37      1.0000 0.50600  0.75830  0.60250  Biso   1.000  C
  C38      1.0000 0.63380  0.75330  0.51790  Biso   1.000  C
  C39      1.0000 0.55490  0.74960  0.44520  Biso   1.000  C
  C40      1.0000 0.34970  0.74830  0.45630  Biso   1.000  C
  C41      1.0000 0.23350  0.75350  0.54250  Biso   1.000  C
  C42      1.0000 0.25540  0.74190  0.38090  Biso   1.000  C
  C43      1.0000 0.86680  0.24170  0.39750  Biso   1.000  C
  C44      1.0000 0.90500  0.24670  0.48210  Biso   1.000  C
  C45      1.0000 0.74970  0.25040  0.55480  Biso   1.000  C
  C46      1.0000 0.55430  0.25170  0.54370  Biso   1.000  C
  C47      1.0000 0.52950  0.24650  0.45750  Biso   1.000  C
  C48      1.0000 0.37820  0.25810  0.61910  Biso   1.000  C
  N1       1.0000 0.31670  0.74270  0.11470  Biso   1.000  N
  N2       1.0000 0.17410  0.25730  0.88530  Biso   1.000  N
  N3       1.0000 0.56860  0.11470  0.25730  Biso   1.000  N
  N4       1.0000 0.94060  0.88530  0.74270  Biso   1.000  N
  N5       1.0000 0.07590  0.61470  0.24270  Biso   1.000  N
  N6       1.0000 0.93330  0.38530  0.75730  Biso   1.000  N
  N7       1.0000 0.30940  0.75730  0.61470  Biso   1.000  N
  N8       1.0000 0.68140  0.24270  0.38530  Biso   1.000  N
  O1       1.0000 0.34689  0.77161  0.80441  Biso   1.000  O
  O2       1.0000 0.06567  0.75087  0.89399  Biso   1.000  O
  O3       1.0000 0.92291  0.22839  0.19559  Biso   1.000  O
  O4       1.0000 0.71053  0.24913  0.10601  Biso   1.000  O
  O5       1.0000 0.84870  0.80441  0.22839  Biso   1.000  O
  O6       1.0000 0.04034  0.89399  0.24913  Biso   1.000  O
  O7       1.0000 0.88150  0.19559  0.77161  Biso   1.000  O
  O8       1.0000 0.18346  0.10601  0.75087  Biso   1.000  O
  O9       1.0000 0.32709  0.30441  0.27161  Biso   1.000  O
  O10      1.0000 0.53947  0.39399  0.25087  Biso   1.000  O
  O11      1.0000 0.90311  0.69559  0.72839  Biso   1.000  O
  O12      1.0000 0.18433  0.60601  0.74913  Biso   1.000  O
  O13      1.0000 0.36850  0.72839  0.30441  Biso   1.000  O
  O14      1.0000 0.06654  0.74913  0.39399  Biso   1.000  O
  O15      1.0000 0.40130  0.27161  0.69559  Biso   1.000  O
  O16      1.0000 0.20966  0.25087  0.60601  Biso   1.000  O
