data_image0
_cell_length_a       9.3376
_cell_length_b       9.3376
_cell_length_c       6.991
_cell_angle_alpha    90
_cell_angle_beta     90
_cell_angle_gamma    120

_symmetry_space_group_name_H-M    "P 1"
_symmetry_int_tables_number       1

loop_
  _symmetry_equiv_pos_as_xyz
  'x, y, z'

loop_
  _atom_site_label
  _atom_site_occupancy
  _atom_site_fract_x
  _atom_site_fract_y
  _atom_site_fract_z
  _atom_site_thermal_displace_type
  _atom_site_B_iso_or_equiv
  _atom_site_type_symbol
  Al1      1.0000 0.47881  0.83784  0.94382  Biso   1.000  Al
  O1       1.0000 0.27030  0.69870  0.04040  Biso   1.000  O
  H1       1.0000 0.19360  0.64110  0.95830  Biso   1.000  H
  O2       1.0000 0.57260  0.72150  0.04070  Biso   1.000  O
  O3       1.0000 0.43440  0.46720  0.83070  Biso   1.000  O
  Al2      1.0000 0.16216  0.64097  0.27715  Biso   1.000  Al
  O4       1.0000 0.30130  0.57160  0.37373  Biso   1.000  O
  H2       1.0000 0.35890  0.55250  0.29163  Biso   1.000  H
  O5       1.0000 0.27850  0.85110  0.37403  Biso   1.000  O
  O6       1.0000 0.53280  0.96720  0.16403  Biso   1.000  O
  Al3      1.0000 0.35903  0.52119  0.61049  Biso   1.000  Al
  O7       1.0000 0.42840  0.72970  0.70707  Biso   1.000  O
  H3       1.0000 0.44750  0.80640  0.62497  Biso   1.000  H
  O8       1.0000 0.14890  0.42740  0.70737  Biso   1.000  O
  O9       1.0000 0.03280  0.56560  0.49737  Biso   1.000  O
  Al4      1.0000 0.83784  0.47881  0.05618  Biso   1.000  Al
  O10      1.0000 0.69870  0.27030  0.95960  Biso   1.000  O
  H4       1.0000 0.64110  0.19360  0.04170  Biso   1.000  H
  O11      1.0000 0.72150  0.57260  0.95930  Biso   1.000  O
  O12      1.0000 0.46720  0.43440  0.16930  Biso   1.000  O
  Al5      1.0000 0.64097  0.16216  0.72285  Biso   1.000  Al
  O13      1.0000 0.57160  0.30130  0.62627  Biso   1.000  O
  H5       1.0000 0.55250  0.35890  0.70837  Biso   1.000  H
  O14      1.0000 0.85110  0.27850  0.62597  Biso   1.000  O
  O15      1.0000 0.96720  0.53280  0.83597  Biso   1.000  O
  Al6      1.0000 0.52119  0.35903  0.38951  Biso   1.000  Al
  O16      1.0000 0.72970  0.42840  0.29293  Biso   1.000  O
  H6       1.0000 0.80640  0.44750  0.37503  Biso   1.000  H
  O17      1.0000 0.42740  0.14890  0.29263  Biso   1.000  O
  O18      1.0000 0.56560  0.03280  0.50263  Biso   1.000  O
  P1       1.0000 0.55071  0.55071  0.00000  Biso   1.000  P
  P2       1.0000 0.44929  0.00000  0.33333  Biso   1.000  P
  P3       1.0000 0.00000  0.44929  0.66667  Biso   1.000  P
  F1       1.0000 0.68210  0.00000  0.83333  Biso   1.000  F
  F2       1.0000 0.43190  0.00000  0.83333  Biso   1.000  F
  F3       1.0000 0.00000  0.68210  0.16667  Biso   1.000  F
  F4       1.0000 0.00000  0.43190  0.16667  Biso   1.000  F
  F5       1.0000 0.31790  0.31790  0.50000  Biso   1.000  F
  F6       1.0000 0.56810  0.56810  0.50000  Biso   1.000  F
