data_image0
_cell_length_a       9.3392
_cell_length_b       9.3392
_cell_length_c       6.9942
_cell_angle_alpha    90
_cell_angle_beta     90
_cell_angle_gamma    120

_symmetry_space_group_name_H-M    "P 1"
_symmetry_int_tables_number       1

loop_
  _symmetry_equiv_pos_as_xyz
  'x, y, z'

loop_
  _atom_site_label
  _atom_site_occupancy
  _atom_site_fract_x
  _atom_site_fract_y
  _atom_site_fract_z
  _atom_site_thermal_displace_type
  _atom_site_B_iso_or_equiv
  _atom_site_type_symbol
  O1       1.0000 0.85150  0.27840  0.12600  Biso   1.000  O
  O2       1.0000 0.96730  0.53317  0.33640  Biso   1.000  O
  Al1      1.0000 0.64088  0.16199  0.22298  Biso   1.000  Al
  O3       1.0000 0.57110  0.30130  0.12680  Biso   1.000  O
  H1       1.0000 0.53670  0.35100  0.20930  Biso   1.000  H
  O4       1.0000 0.72160  0.57310  0.45933  Biso   1.000  O
  O5       1.0000 0.46683  0.43413  0.66973  Biso   1.000  O
  Al2      1.0000 0.83801  0.47889  0.55631  Biso   1.000  Al
  O6       1.0000 0.69870  0.26980  0.46013  Biso   1.000  O
  H2       1.0000 0.64900  0.18570  0.54263  Biso   1.000  H
  O7       1.0000 0.42690  0.14850  0.79267  Biso   1.000  O
  O8       1.0000 0.56587  0.03270  0.00307  Biso   1.000  O
  Al3      1.0000 0.52111  0.35912  0.88965  Biso   1.000  Al
  O9       1.0000 0.73020  0.42890  0.79347  Biso   1.000  O
  H3       1.0000 0.81430  0.46330  0.87597  Biso   1.000  H
  O10      1.0000 0.27840  0.85150  0.87400  Biso   1.000  O
  O11      1.0000 0.53317  0.96730  0.66360  Biso   1.000  O
  Al4      1.0000 0.16199  0.64088  0.77702  Biso   1.000  Al
  O12      1.0000 0.30130  0.57110  0.87320  Biso   1.000  O
  H4       1.0000 0.35100  0.53670  0.79070  Biso   1.000  H
  O13      1.0000 0.57310  0.72160  0.54067  Biso   1.000  O
  O14      1.0000 0.43413  0.46683  0.33027  Biso   1.000  O
  Al5      1.0000 0.47889  0.83801  0.44369  Biso   1.000  Al
  O15      1.0000 0.26980  0.69870  0.53987  Biso   1.000  O
  H5       1.0000 0.18570  0.64900  0.45737  Biso   1.000  H
  O16      1.0000 0.14850  0.42690  0.20733  Biso   1.000  O
  O17      1.0000 0.03270  0.56587  0.99693  Biso   1.000  O
  Al6      1.0000 0.35912  0.52111  0.11035  Biso   1.000  Al
  O18      1.0000 0.42890  0.73020  0.20653  Biso   1.000  O
  H6       1.0000 0.46330  0.81430  0.12403  Biso   1.000  H
  P1       1.0000 0.00000  0.44942  0.16667  Biso   1.000  P
  P2       1.0000 0.55058  0.55058  0.50000  Biso   1.000  P
  P3       1.0000 0.44942  0.00000  0.83333  Biso   1.000  P
  F1       1.0000 0.68220  0.00000  0.33333  Biso   1.000  F
  F2       1.0000 0.43160  0.00000  0.33333  Biso   1.000  F
  F3       1.0000 0.00000  0.68220  0.66667  Biso   1.000  F
  F4       1.0000 0.00000  0.43160  0.66667  Biso   1.000  F
  F5       1.0000 0.31780  0.31780  0.00000  Biso   1.000  F
  F6       1.0000 0.56840  0.56840  0.00000  Biso   1.000  F
