data_image0
_cell_length_a       9.3415
_cell_length_b       9.3415
_cell_length_c       6.9955
_cell_angle_alpha    90
_cell_angle_beta     90
_cell_angle_gamma    120

_symmetry_space_group_name_H-M    "P 1"
_symmetry_int_tables_number       1

loop_
  _symmetry_equiv_pos_as_xyz
  'x, y, z'

loop_
  _atom_site_label
  _atom_site_occupancy
  _atom_site_fract_x
  _atom_site_fract_y
  _atom_site_fract_z
  _atom_site_thermal_displace_type
  _atom_site_B_iso_or_equiv
  _atom_site_type_symbol
  Al1      1.0000 0.16196  0.52127  0.05625  Biso   1.000  Al
  O1       1.0000 0.30180  0.73020  0.95990  Biso   1.000  O
  H1       1.0000 0.36050  0.83100  0.04290  Biso   1.000  H
  O2       1.0000 0.27830  0.42700  0.95920  Biso   1.000  O
  O3       1.0000 0.53250  0.56580  0.16910  Biso   1.000  O
  Al2      1.0000 0.47873  0.64069  0.38958  Biso   1.000  Al
  O4       1.0000 0.26980  0.57160  0.29323  Biso   1.000  O
  H2       1.0000 0.16900  0.52950  0.37623  Biso   1.000  H
  O5       1.0000 0.57300  0.85130  0.29253  Biso   1.000  O
  O6       1.0000 0.43420  0.96670  0.50243  Biso   1.000  O
  Al3      1.0000 0.35931  0.83804  0.72292  Biso   1.000  Al
  O7       1.0000 0.42840  0.69820  0.62657  Biso   1.000  O
  H3       1.0000 0.47050  0.63950  0.70957  Biso   1.000  H
  O8       1.0000 0.14870  0.72170  0.62587  Biso   1.000  O
  O9       1.0000 0.03330  0.46750  0.83577  Biso   1.000  O
  Al4      1.0000 0.52127  0.16196  0.94375  Biso   1.000  Al
  O10      1.0000 0.73020  0.30180  0.04010  Biso   1.000  O
  H4       1.0000 0.83100  0.36050  0.95710  Biso   1.000  H
  O11      1.0000 0.42700  0.27830  0.04080  Biso   1.000  O
  O12      1.0000 0.56580  0.53250  0.83090  Biso   1.000  O
  Al5      1.0000 0.64069  0.47873  0.61042  Biso   1.000  Al
  O13      1.0000 0.57160  0.26980  0.70677  Biso   1.000  O
  H5       1.0000 0.52950  0.16900  0.62377  Biso   1.000  H
  O14      1.0000 0.85130  0.57300  0.70747  Biso   1.000  O
  O15      1.0000 0.96670  0.43420  0.49757  Biso   1.000  O
  Al6      1.0000 0.83804  0.35931  0.27708  Biso   1.000  Al
  O16      1.0000 0.69820  0.42840  0.37343  Biso   1.000  O
  H6       1.0000 0.63950  0.47050  0.29043  Biso   1.000  H
  O17      1.0000 0.72170  0.14870  0.37413  Biso   1.000  O
  O18      1.0000 0.46750  0.03330  0.16423  Biso   1.000  O
  P1       1.0000 0.44930  0.44930  0.00000  Biso   1.000  P
  P2       1.0000 0.55070  0.00000  0.33333  Biso   1.000  P
  P3       1.0000 0.00000  0.55070  0.66667  Biso   1.000  P
  F1       1.0000 0.00000  0.31830  0.16667  Biso   1.000  F
  F2       1.0000 0.00000  0.56860  0.16667  Biso   1.000  F
  F3       1.0000 0.68170  0.68170  0.50000  Biso   1.000  F
  F4       1.0000 0.43140  0.43140  0.50000  Biso   1.000  F
  F5       1.0000 0.31830  0.00000  0.83333  Biso   1.000  F
  F6       1.0000 0.56860  0.00000  0.83333  Biso   1.000  F
