data_image0
_cell_length_a       5.7252
_cell_length_b       13.6337
_cell_length_c       13.6337
_cell_angle_alpha    99.5038
_cell_angle_beta     91.7736
_cell_angle_gamma    88.2264

_symmetry_space_group_name_H-M    P 1
_symmetry_int_tables_number       1

loop_
  _symmetry_equiv_pos_as_xyz
  'x, y, z'

loop_
  _atom_site_label
  _atom_site_occupancy
  _atom_site_fract_x
  _atom_site_fract_y
  _atom_site_fract_z
  _atom_site_thermal_displace_type
  _atom_site_B_iso_or_equiv
  _atom_site_type_symbol
  Yb1      1.0000 0.58434  0.37595  0.10033  Biso   1.000  Yb
  Yb2      1.0000 0.41566  0.10033  0.37595  Biso   1.000  Yb
  Yb3      1.0000 0.41566  0.62405  0.89967  Biso   1.000  Yb
  Yb4      1.0000 0.58434  0.89967  0.62405  Biso   1.000  Yb
  H1       1.0000 0.78310  0.62200  0.37800  Biso   1.000  H
  H2       1.0000 0.38290  0.76530  0.23470  Biso   1.000  H
  H3       1.0000 0.21690  0.37800  0.62200  Biso   1.000  H
  H4       1.0000 0.61710  0.23470  0.76530  Biso   1.000  H
  C1       1.0000 0.99420  0.60260  0.26040  Biso   1.000  C
  C2       1.0000 0.17170  0.64460  0.21800  Biso   1.000  C
  C3       1.0000 0.87230  0.51190  0.20670  Biso   1.000  C
  C4       1.0000 0.27960  0.60270  0.11890  Biso   1.000  C
  C5       1.0000 0.78890  0.19030  0.08450  Biso   1.000  C
  C6       1.0000 0.90060  0.09030  0.04810  Biso   1.000  C
  C7       1.0000 0.00580  0.26040  0.60260  Biso   1.000  C
  C8       1.0000 0.82830  0.21800  0.64460  Biso   1.000  C
  C9       1.0000 0.12770  0.20670  0.51190  Biso   1.000  C
  C10      1.0000 0.72040  0.11890  0.60270  Biso   1.000  C
  C11      1.0000 0.21110  0.08450  0.19030  Biso   1.000  C
  C12      1.0000 0.09940  0.04810  0.09030  Biso   1.000  C
  C13      1.0000 0.00580  0.39740  0.73960  Biso   1.000  C
  C14      1.0000 0.82830  0.35540  0.78200  Biso   1.000  C
  C15      1.0000 0.12770  0.48810  0.79330  Biso   1.000  C
  C16      1.0000 0.72040  0.39730  0.88110  Biso   1.000  C
  C17      1.0000 0.21110  0.80970  0.91550  Biso   1.000  C
  C18      1.0000 0.09940  0.90970  0.95190  Biso   1.000  C
  C19      1.0000 0.99420  0.73960  0.39740  Biso   1.000  C
  C20      1.0000 0.17170  0.78200  0.35540  Biso   1.000  C
  C21      1.0000 0.87230  0.79330  0.48810  Biso   1.000  C
  C22      1.0000 0.27960  0.88110  0.39730  Biso   1.000  C
  C23      1.0000 0.78890  0.91550  0.80970  Biso   1.000  C
  C24      1.0000 0.90060  0.95190  0.90970  Biso   1.000  C
  C25      1.0000 0.90500  0.65030  0.34970  Biso   1.000  C
  C26      1.0000 0.26400  0.73610  0.26390  Biso   1.000  C
  C27      1.0000 0.09500  0.34970  0.65030  Biso   1.000  C
  C28      1.0000 0.73600  0.26390  0.73610  Biso   1.000  C
  C29      1.0000 0.80700  0.04160  0.95840  Biso   1.000  C
  C30      1.0000 0.19300  0.95840  0.04160  Biso   1.000  C
  O1       1.0000 0.75130  0.45970  0.25310  Biso   1.000  O
  O2       1.0000 0.88670  0.49260  0.11300  Biso   1.000  O
  O3       1.0000 0.39520  0.52190  0.11370  Biso   1.000  O
  O4       1.0000 0.25220  0.65220  0.05160  Biso   1.000  O
  O5       1.0000 0.90520  0.26390  0.12970  Biso   1.000  O
  O6       1.0000 0.57860  0.20350  0.06210  Biso   1.000  O
  O7       1.0000 0.32280  0.34010  0.21510  Biso   1.000  O
  O8       1.0000 0.25670  0.34270  0.99470  Biso   1.000  O
  O9       1.0000 0.24870  0.25310  0.45970  Biso   1.000  O
  O10      1.0000 0.11330  0.11300  0.49260  Biso   1.000  O
  O11      1.0000 0.60480  0.11370  0.52190  Biso   1.000  O
  O12      1.0000 0.74780  0.05160  0.65220  Biso   1.000  O
  O13      1.0000 0.09480  0.12970  0.26390  Biso   1.000  O
  O14      1.0000 0.42140  0.06210  0.20350  Biso   1.000  O
  O15      1.0000 0.67720  0.21510  0.34010  Biso   1.000  O
  O16      1.0000 0.74330  0.99470  0.34270  Biso   1.000  O
  O17      1.0000 0.24870  0.54030  0.74690  Biso   1.000  O
  O18      1.0000 0.11330  0.50740  0.88700  Biso   1.000  O
  O19      1.0000 0.60480  0.47810  0.88630  Biso   1.000  O
  O20      1.0000 0.74780  0.34780  0.94840  Biso   1.000  O
  O21      1.0000 0.09480  0.73610  0.87030  Biso   1.000  O
  O22      1.0000 0.42140  0.79650  0.93790  Biso   1.000  O
  O23      1.0000 0.67720  0.65990  0.78490  Biso   1.000  O
  O24      1.0000 0.74330  0.65730  0.00530  Biso   1.000  O
  O25      1.0000 0.75130  0.74690  0.54030  Biso   1.000  O
  O26      1.0000 0.88670  0.88700  0.50740  Biso   1.000  O
  O27      1.0000 0.39520  0.88630  0.47810  Biso   1.000  O
  O28      1.0000 0.25220  0.94840  0.34780  Biso   1.000  O
  O29      1.0000 0.90520  0.87030  0.73610  Biso   1.000  O
  O30      1.0000 0.57860  0.93790  0.79650  Biso   1.000  O
  O31      1.0000 0.32280  0.78490  0.65990  Biso   1.000  O
  O32      1.0000 0.25670  0.00530  0.65730  Biso   1.000  O
