data_MITSIS_charged
_audit_creation_date              2014-07-02
_audit_creation_method            'Materials Studio'
_symmetry_space_group_name_H-M    'P1'
_symmetry_Int_Tables_number       1
_symmetry_cell_setting            triclinic
loop_
_symmetry_equiv_pos_as_xyz
  x,y,z
_cell_length_a                    10.2430
_cell_length_b                    17.9710
_cell_length_c                    36.4850
_cell_angle_alpha                 90.0000
_cell_angle_beta                  90.0000
_cell_angle_gamma                 99.7530
loop_
_atom_site_label
_atom_site_type_symbol
_atom_site_fract_x
_atom_site_fract_y
_atom_site_fract_z
_atom_site_U_iso_or_equiv
_atom_site_adp_type
_atom_site_occupancy
Cd1    Cd    0.37450   0.55270   0.96939   0.01267  Uiso   1.00
Cd2    Cd    0.15781   0.00419   0.99520   0.01267  Uiso   1.00
Cd3    Cd    0.47508   0.15301   0.79692   0.01267  Uiso   1.00
Cd4    Cd    0.62550   0.94730   0.46939   0.01267  Uiso   1.00
Cd5    Cd    0.84219   0.49581   0.49520   0.01267  Uiso   1.00
Cd6    Cd    0.52492   0.34699   0.29692   0.01267  Uiso   1.00
Cd7    Cd    0.62550   0.44730   0.03061   0.01267  Uiso   1.00
Cd8    Cd    0.84219   0.99581   0.00480   0.01267  Uiso   1.00
Cd9    Cd    0.52492   0.84699   0.20308   0.01267  Uiso   1.00
Cd10   Cd    0.37450   0.05270   0.53061   0.01267  Uiso   1.00
Cd11   Cd    0.15781   0.50419   0.50480   0.01267  Uiso   1.00
Cd12   Cd    0.47508   0.65301   0.70308   0.01267  Uiso   1.00
H1     H     0.26280   0.25820   0.01170   0.01267  Uiso   1.00
H2     H     0.86970   0.24490   0.01690   0.01267  Uiso   1.00
H3     H     0.10640   0.44560   0.02180   0.01267  Uiso   1.00
H4     H     0.42130   0.37850   0.87490   0.01267  Uiso   1.00
H5     H     0.48420   0.41620   0.76780   0.01267  Uiso   1.00
H6     H     0.42380   0.58470   0.83410   0.01267  Uiso   1.00
H7     H     0.75450   0.06770   0.88740   0.01267  Uiso   1.00
H8     H     0.14450   0.06480   0.88210   0.01267  Uiso   1.00
H9     H     0.96980   0.14990   0.79850   0.01267  Uiso   1.00
H10    H     0.73720   0.24180   0.51170   0.01267  Uiso   1.00
H11    H     0.13030   0.25510   0.51690   0.01267  Uiso   1.00
H12    H     0.89360   0.05440   0.52180   0.01267  Uiso   1.00
H13    H     0.57870   0.12150   0.37490   0.01267  Uiso   1.00
H14    H     0.51580   0.08380   0.26780   0.01267  Uiso   1.00
H15    H     0.57620   0.91530   0.33410   0.01267  Uiso   1.00
H16    H     0.24550   0.43230   0.38740   0.01267  Uiso   1.00
H17    H     0.85550   0.43520   0.38210   0.01267  Uiso   1.00
H18    H     0.03020   0.35010   0.29850   0.01267  Uiso   1.00
H19    H     0.73720   0.74180   0.98830   0.01267  Uiso   1.00
H20    H     0.13030   0.75510   0.98310   0.01267  Uiso   1.00
H21    H     0.89360   0.55440   0.97820   0.01267  Uiso   1.00
H22    H     0.57870   0.62150   0.12510   0.01267  Uiso   1.00
H23    H     0.51580   0.58380   0.23220   0.01267  Uiso   1.00
H24    H     0.57620   0.41530   0.16590   0.01267  Uiso   1.00
H25    H     0.24550   0.93230   0.11260   0.01267  Uiso   1.00
H26    H     0.85550   0.93520   0.11790   0.01267  Uiso   1.00
H27    H     0.03020   0.85010   0.20150   0.01267  Uiso   1.00
H28    H     0.26280   0.75820   0.48830   0.01267  Uiso   1.00
H29    H     0.86970   0.74490   0.48310   0.01267  Uiso   1.00
H30    H     0.10640   0.94560   0.47820   0.01267  Uiso   1.00
H31    H     0.42130   0.87850   0.62510   0.01267  Uiso   1.00
H32    H     0.48420   0.91620   0.73220   0.01267  Uiso   1.00
H33    H     0.42380   0.08470   0.66590   0.01267  Uiso   1.00
H34    H     0.75450   0.56770   0.61260   0.01267  Uiso   1.00
H35    H     0.14450   0.56480   0.61790   0.01267  Uiso   1.00
H36    H     0.96980   0.64990   0.70150   0.01267  Uiso   1.00
C1     C     0.34230   0.40450   0.01746   0.01267  Uiso   1.00
C2     C     0.20490   0.35870   0.01690   0.01267  Uiso   1.00
C3     C     0.18850   0.28140   0.01342   0.01267  Uiso   1.00
C4     C     0.06470   0.23800   0.01242   0.01267  Uiso   1.00
C5     C     0.04740   0.15320   0.00957   0.01267  Uiso   1.00
C6     C     0.95420   0.27370   0.01640   0.01267  Uiso   1.00
C7     C     0.96930   0.35050   0.01962   0.01267  Uiso   1.00
C8     C     0.84930   0.38740   0.02384   0.01267  Uiso   1.00
C9     C     0.09580   0.39330   0.01976   0.01267  Uiso   1.00
C10    C     0.40190   0.51330   0.89810   0.01267  Uiso   1.00
C11    C     0.42140   0.48510   0.86080   0.01267  Uiso   1.00
C12    C     0.43170   0.41150   0.85502   0.01267  Uiso   1.00
C13    C     0.45720   0.38340   0.82052   0.01267  Uiso   1.00
C14    C     0.47380   0.30320   0.81548   0.01267  Uiso   1.00
C15    C     0.46710   0.43330   0.79104   0.01267  Uiso   1.00
C16    C     0.45180   0.50860   0.79572   0.01267  Uiso   1.00
C17    C     0.45920   0.55960   0.76330   0.01267  Uiso   1.00
C18    C     0.43120   0.53430   0.83057   0.01267  Uiso   1.00
C19    C     0.71760   0.12840   0.82270   0.01267  Uiso   1.00
C20    C     0.84020   0.10920   0.84021   0.01267  Uiso   1.00
C21    C     0.83470   0.07770   0.87484   0.01267  Uiso   1.00
C22    C     0.94840   0.06110   0.89070   0.01267  Uiso   1.00
C23    C     0.94280   0.03050   0.92940   0.01267  Uiso   1.00
C24    C     0.06790   0.07620   0.87140   0.01267  Uiso   1.00
C25    C     0.07420   0.10670   0.83790   0.01267  Uiso   1.00
C26    C     0.20950   0.12180   0.81950   0.01267  Uiso   1.00
C27    C     0.96390   0.12630   0.82130   0.01267  Uiso   1.00
C28    C     0.65770   0.09550   0.51746   0.01267  Uiso   1.00
C29    C     0.79510   0.14130   0.51690   0.01267  Uiso   1.00
C30    C     0.81150   0.21860   0.51342   0.01267  Uiso   1.00
C31    C     0.93530   0.26200   0.51242   0.01267  Uiso   1.00
C32    C     0.95260   0.34680   0.50957   0.01267  Uiso   1.00
C33    C     0.04580   0.22630   0.51640   0.01267  Uiso   1.00
C34    C     0.03070   0.14950   0.51962   0.01267  Uiso   1.00
C35    C     0.15070   0.11260   0.52384   0.01267  Uiso   1.00
C36    C     0.90420   0.10670   0.51976   0.01267  Uiso   1.00
C37    C     0.59810   0.98670   0.39810   0.01267  Uiso   1.00
C38    C     0.57860   0.01490   0.36080   0.01267  Uiso   1.00
C39    C     0.56830   0.08850   0.35502   0.01267  Uiso   1.00
C40    C     0.54280   0.11660   0.32052   0.01267  Uiso   1.00
C41    C     0.52620   0.19680   0.31548   0.01267  Uiso   1.00
C42    C     0.53290   0.06670   0.29104   0.01267  Uiso   1.00
C43    C     0.54820   0.99140   0.29572   0.01267  Uiso   1.00
C44    C     0.54080   0.94040   0.26330   0.01267  Uiso   1.00
C45    C     0.56880   0.96570   0.33057   0.01267  Uiso   1.00
C46    C     0.28240   0.37160   0.32270   0.01267  Uiso   1.00
C47    C     0.15980   0.39080   0.34021   0.01267  Uiso   1.00
C48    C     0.16530   0.42230   0.37484   0.01267  Uiso   1.00
C49    C     0.05160   0.43890   0.39070   0.01267  Uiso   1.00
C50    C     0.05720   0.46950   0.42940   0.01267  Uiso   1.00
C51    C     0.93210   0.42380   0.37140   0.01267  Uiso   1.00
C52    C     0.92580   0.39330   0.33790   0.01267  Uiso   1.00
C53    C     0.79050   0.37820   0.31950   0.01267  Uiso   1.00
C54    C     0.03610   0.37370   0.32130   0.01267  Uiso   1.00
C55    C     0.65770   0.59550   0.98254   0.01267  Uiso   1.00
C56    C     0.79510   0.64130   0.98310   0.01267  Uiso   1.00
C57    C     0.81150   0.71860   0.98658   0.01267  Uiso   1.00
C58    C     0.93530   0.76200   0.98758   0.01267  Uiso   1.00
C59    C     0.95260   0.84680   0.99043   0.01267  Uiso   1.00
C60    C     0.04580   0.72630   0.98360   0.01267  Uiso   1.00
C61    C     0.03070   0.64950   0.98038   0.01267  Uiso   1.00
C62    C     0.15070   0.61260   0.97616   0.01267  Uiso   1.00
C63    C     0.90420   0.60670   0.98024   0.01267  Uiso   1.00
C64    C     0.59810   0.48670   0.10190   0.01267  Uiso   1.00
C65    C     0.57860   0.51490   0.13920   0.01267  Uiso   1.00
C66    C     0.56830   0.58850   0.14498   0.01267  Uiso   1.00
C67    C     0.54280   0.61660   0.17948   0.01267  Uiso   1.00
C68    C     0.52620   0.69680   0.18452   0.01267  Uiso   1.00
C69    C     0.53290   0.56670   0.20896   0.01267  Uiso   1.00
C70    C     0.54820   0.49140   0.20428   0.01267  Uiso   1.00
C71    C     0.54080   0.44040   0.23670   0.01267  Uiso   1.00
C72    C     0.56880   0.46570   0.16943   0.01267  Uiso   1.00
C73    C     0.28240   0.87160   0.17730   0.01267  Uiso   1.00
C74    C     0.15980   0.89080   0.15979   0.01267  Uiso   1.00
C75    C     0.16530   0.92230   0.12516   0.01267  Uiso   1.00
C76    C     0.05160   0.93890   0.10930   0.01267  Uiso   1.00
C77    C     0.05720   0.96950   0.07060   0.01267  Uiso   1.00
C78    C     0.93210   0.92380   0.12860   0.01267  Uiso   1.00
C79    C     0.92580   0.89330   0.16210   0.01267  Uiso   1.00
C80    C     0.79050   0.87820   0.18050   0.01267  Uiso   1.00
C81    C     0.03610   0.87370   0.17870   0.01267  Uiso   1.00
C82    C     0.34230   0.90450   0.48254   0.01267  Uiso   1.00
C83    C     0.20490   0.85870   0.48310   0.01267  Uiso   1.00
C84    C     0.18850   0.78140   0.48658   0.01267  Uiso   1.00
C85    C     0.06470   0.73800   0.48758   0.01267  Uiso   1.00
C86    C     0.04740   0.65320   0.49043   0.01267  Uiso   1.00
C87    C     0.95420   0.77370   0.48360   0.01267  Uiso   1.00
C88    C     0.96930   0.85050   0.48038   0.01267  Uiso   1.00
C89    C     0.84930   0.88740   0.47616   0.01267  Uiso   1.00
C90    C     0.09580   0.89330   0.48024   0.01267  Uiso   1.00
C91    C     0.40190   0.01330   0.60190   0.01267  Uiso   1.00
C92    C     0.42140   0.98510   0.63920   0.01267  Uiso   1.00
C93    C     0.43170   0.91150   0.64498   0.01267  Uiso   1.00
C94    C     0.45720   0.88340   0.67948   0.01267  Uiso   1.00
C95    C     0.47380   0.80320   0.68452   0.01267  Uiso   1.00
C96    C     0.46710   0.93330   0.70896   0.01267  Uiso   1.00
C97    C     0.45180   0.00860   0.70428   0.01267  Uiso   1.00
C98    C     0.45920   0.05960   0.73670   0.01267  Uiso   1.00
C99    C     0.43120   0.03430   0.66943   0.01267  Uiso   1.00
C100   C     0.71760   0.62840   0.67730   0.01267  Uiso   1.00
C101   C     0.84020   0.60920   0.65979   0.01267  Uiso   1.00
C102   C     0.83470   0.57770   0.62516   0.01267  Uiso   1.00
C103   C     0.94840   0.56110   0.60930   0.01267  Uiso   1.00
C104   C     0.94280   0.53050   0.57060   0.01267  Uiso   1.00
C105   C     0.06790   0.57620   0.62860   0.01267  Uiso   1.00
C106   C     0.07420   0.60670   0.66210   0.01267  Uiso   1.00
C107   C     0.20950   0.62180   0.68050   0.01267  Uiso   1.00
C108   C     0.96390   0.62630   0.67870   0.01267  Uiso   1.00
O1     O     0.35620   0.47493   0.01815   0.01267  Uiso   1.00
O2     O     0.43780   0.36930   0.01870   0.01267  Uiso   1.00
O3     O     0.38670   0.46630   0.92438   0.01267  Uiso   1.00
O4     O     0.40000   0.58110   0.90401   0.01267  Uiso   1.00
O5     O     0.15070   0.12570   0.00460   0.01267  Uiso   1.00
O6     O     0.93170   0.11790   0.01094   0.01267  Uiso   1.00
O7     O     0.48070   0.27800   0.78404   0.01267  Uiso   1.00
O8     O     0.48060   0.26340   0.84302   0.01267  Uiso   1.00
O9     O     0.72300   0.16440   0.79424   0.01267  Uiso   1.00
O10    O     0.60900   0.10530   0.83937   0.01267  Uiso   1.00
O11    O     0.46770   0.62990   0.76794   0.01267  Uiso   1.00
O12    O     0.45930   0.53120   0.73215   0.01267  Uiso   1.00
O13    O     0.86160   0.45400   0.03435   0.01267  Uiso   1.00
O14    O     0.73820   0.35010   0.01616   0.01267  Uiso   1.00
O15    O     0.21820   0.15430   0.78950   0.01267  Uiso   1.00
O16    O     0.30170   0.10140   0.83350   0.01267  Uiso   1.00
O17    O     0.05420   0.02100   0.94211   0.01267  Uiso   1.00
O18    O     0.83230   0.01920   0.94593   0.01267  Uiso   1.00
O19    O     0.64380   0.02507   0.51815   0.01267  Uiso   1.00
O20    O     0.56220   0.13070   0.51870   0.01267  Uiso   1.00
O21    O     0.61330   0.03370   0.42438   0.01267  Uiso   1.00
O22    O     0.60000   0.91890   0.40401   0.01267  Uiso   1.00
O23    O     0.84930   0.37430   0.50460   0.01267  Uiso   1.00
O24    O     0.06830   0.38210   0.51094   0.01267  Uiso   1.00
O25    O     0.51930   0.22200   0.28404   0.01267  Uiso   1.00
O26    O     0.51940   0.23660   0.34302   0.01267  Uiso   1.00
O27    O     0.27700   0.33560   0.29424   0.01267  Uiso   1.00
O28    O     0.39100   0.39470   0.33937   0.01267  Uiso   1.00
O29    O     0.53230   0.87010   0.26794   0.01267  Uiso   1.00
O30    O     0.54070   0.96880   0.23215   0.01267  Uiso   1.00
O31    O     0.13840   0.04600   0.53435   0.01267  Uiso   1.00
O32    O     0.26180   0.14990   0.51616   0.01267  Uiso   1.00
O33    O     0.78180   0.34570   0.28950   0.01267  Uiso   1.00
O34    O     0.69830   0.39860   0.33350   0.01267  Uiso   1.00
O35    O     0.94580   0.47900   0.44211   0.01267  Uiso   1.00
O36    O     0.16770   0.48080   0.44593   0.01267  Uiso   1.00
O37    O     0.64380   0.52507   0.98185   0.01267  Uiso   1.00
O38    O     0.56220   0.63070   0.98130   0.01267  Uiso   1.00
O39    O     0.61330   0.53370   0.07562   0.01267  Uiso   1.00
O40    O     0.60000   0.41890   0.09599   0.01267  Uiso   1.00
O41    O     0.84930   0.87430   0.99540   0.01267  Uiso   1.00
O42    O     0.06830   0.88210   0.98906   0.01267  Uiso   1.00
O43    O     0.51930   0.72200   0.21596   0.01267  Uiso   1.00
O44    O     0.51940   0.73660   0.15698   0.01267  Uiso   1.00
O45    O     0.27700   0.83560   0.20576   0.01267  Uiso   1.00
O46    O     0.39100   0.89470   0.16063   0.01267  Uiso   1.00
O47    O     0.53230   0.37010   0.23206   0.01267  Uiso   1.00
O48    O     0.54070   0.46880   0.26785   0.01267  Uiso   1.00
O49    O     0.13840   0.54600   0.96565   0.01267  Uiso   1.00
O50    O     0.26180   0.64990   0.98384   0.01267  Uiso   1.00
O51    O     0.78180   0.84570   0.21050   0.01267  Uiso   1.00
O52    O     0.69830   0.89860   0.16650   0.01267  Uiso   1.00
O53    O     0.94580   0.97900   0.05789   0.01267  Uiso   1.00
O54    O     0.16770   0.98080   0.05407   0.01267  Uiso   1.00
O55    O     0.35620   0.97493   0.48185   0.01267  Uiso   1.00
O56    O     0.43780   0.86930   0.48130   0.01267  Uiso   1.00
O57    O     0.38670   0.96630   0.57562   0.01267  Uiso   1.00
O58    O     0.40000   0.08110   0.59599   0.01267  Uiso   1.00
O59    O     0.15070   0.62570   0.49540   0.01267  Uiso   1.00
O60    O     0.93170   0.61790   0.48906   0.01267  Uiso   1.00
O61    O     0.48070   0.77800   0.71596   0.01267  Uiso   1.00
O62    O     0.48060   0.76340   0.65698   0.01267  Uiso   1.00
O63    O     0.72300   0.66440   0.70576   0.01267  Uiso   1.00
O64    O     0.60900   0.60530   0.66063   0.01267  Uiso   1.00
O65    O     0.46770   0.12990   0.73206   0.01267  Uiso   1.00
O66    O     0.45930   0.03120   0.76785   0.01267  Uiso   1.00
O67    O     0.86160   0.95400   0.46565   0.01267  Uiso   1.00
O68    O     0.73820   0.85010   0.48384   0.01267  Uiso   1.00
O69    O     0.21820   0.65430   0.71050   0.01267  Uiso   1.00
O70    O     0.30170   0.60140   0.66650   0.01267  Uiso   1.00
O71    O     0.05420   0.52100   0.55789   0.01267  Uiso   1.00
O72    O     0.83230   0.51920   0.55407   0.01267  Uiso   1.00
H37    H     0.49600   0.35760   0.93640   0.01267  Uiso   1.00
H38    H     0.58570   0.31900   0.96240   0.01267  Uiso   1.00
H39    H     0.69240   0.41890   0.93840   0.01267  Uiso   1.00
H40    H     0.65890   0.38610   0.89900   0.01267  Uiso   1.00
H41    H     0.74890   0.34760   0.92520   0.01267  Uiso   1.00
H42    H     0.70250   0.23550   0.90250   0.01267  Uiso   1.00
H43    H     0.59430   0.16240   0.90060   0.01267  Uiso   1.00
H44    H     0.73170   0.15250   0.95350   0.01267  Uiso   1.00
H45    H     0.58910   0.15810   0.96760   0.01267  Uiso   1.00
H46    H     0.70110   0.22930   0.96880   0.01267  Uiso   1.00
H47    H     0.38110   0.15720   0.91930   0.01267  Uiso   1.00
H48    H     0.39240   0.20320   0.95570   0.01267  Uiso   1.00
H49    H     0.18070   0.20210   0.92900   0.01267  Uiso   1.00
H50    H     0.24640   0.24150   0.89360   0.01267  Uiso   1.00
H51    H     0.25540   0.28570   0.93080   0.01267  Uiso   1.00
C109   C     0.56920   0.32980   0.93700   0.01267  Uiso   1.00
C110   C     0.67440   0.37350   0.92400   0.01267  Uiso   1.00
C111   C     0.62540   0.20770   0.91480   0.01267  Uiso   1.00
C112   C     0.66590   0.18460   0.95520   0.01267  Uiso   1.00
C113   C     0.38860   0.20780   0.92920   0.01267  Uiso   1.00
C114   C     0.25500   0.23720   0.91970   0.01267  Uiso   1.00
N1     N     0.52490   0.25260   0.91650   0.01267  Uiso   1.00
H52    H     0.50400   0.14240   0.43640   0.01267  Uiso   1.00
H53    H     0.41430   0.18100   0.46240   0.01267  Uiso   1.00
H54    H     0.30760   0.08110   0.43840   0.01267  Uiso   1.00
H55    H     0.34110   0.11390   0.39900   0.01267  Uiso   1.00
H56    H     0.25110   0.15240   0.42520   0.01267  Uiso   1.00
H57    H     0.29750   0.26450   0.40250   0.01267  Uiso   1.00
H58    H     0.40570   0.33760   0.40060   0.01267  Uiso   1.00
H59    H     0.26830   0.34750   0.45350   0.01267  Uiso   1.00
H60    H     0.41090   0.34190   0.46760   0.01267  Uiso   1.00
H61    H     0.29890   0.27070   0.46880   0.01267  Uiso   1.00
H62    H     0.61890   0.34280   0.41930   0.01267  Uiso   1.00
H63    H     0.60760   0.29680   0.45570   0.01267  Uiso   1.00
H64    H     0.81930   0.29790   0.42900   0.01267  Uiso   1.00
H65    H     0.75360   0.25850   0.39360   0.01267  Uiso   1.00
H66    H     0.74460   0.21430   0.43080   0.01267  Uiso   1.00
C115   C     0.43080   0.17020   0.43700   0.01267  Uiso   1.00
C116   C     0.32560   0.12650   0.42400   0.01267  Uiso   1.00
C117   C     0.37460   0.29230   0.41480   0.01267  Uiso   1.00
C118   C     0.33410   0.31540   0.45520   0.01267  Uiso   1.00
C119   C     0.61140   0.29220   0.42920   0.01267  Uiso   1.00
C120   C     0.74500   0.26280   0.41970   0.01267  Uiso   1.00
N2     N     0.47510   0.24740   0.41650   0.01267  Uiso   1.00
H67    H     0.50400   0.64240   0.06360   0.01267  Uiso   1.00
H68    H     0.41430   0.68100   0.03760   0.01267  Uiso   1.00
H69    H     0.30760   0.58110   0.06160   0.01267  Uiso   1.00
H70    H     0.34110   0.61390   0.10100   0.01267  Uiso   1.00
H71    H     0.25110   0.65240   0.07480   0.01267  Uiso   1.00
H72    H     0.29750   0.76450   0.09750   0.01267  Uiso   1.00
H73    H     0.40570   0.83760   0.09940   0.01267  Uiso   1.00
H74    H     0.26830   0.84750   0.04650   0.01267  Uiso   1.00
H75    H     0.41090   0.84190   0.03240   0.01267  Uiso   1.00
H76    H     0.29890   0.77070   0.03120   0.01267  Uiso   1.00
H77    H     0.61890   0.84280   0.08070   0.01267  Uiso   1.00
H78    H     0.60760   0.79680   0.04430   0.01267  Uiso   1.00
H79    H     0.81930   0.79790   0.07100   0.01267  Uiso   1.00
H80    H     0.75360   0.75850   0.10640   0.01267  Uiso   1.00
H81    H     0.74460   0.71430   0.06920   0.01267  Uiso   1.00
C121   C     0.43080   0.67020   0.06300   0.01267  Uiso   1.00
C122   C     0.32560   0.62650   0.07600   0.01267  Uiso   1.00
C123   C     0.37460   0.79230   0.08520   0.01267  Uiso   1.00
C124   C     0.33410   0.81540   0.04480   0.01267  Uiso   1.00
C125   C     0.61140   0.79220   0.07080   0.01267  Uiso   1.00
C126   C     0.74500   0.76280   0.08030   0.01267  Uiso   1.00
N3     N     0.47510   0.74740   0.08350   0.01267  Uiso   1.00
H82    H     0.49600   0.85760   0.56360   0.01267  Uiso   1.00
H83    H     0.58570   0.81900   0.53760   0.01267  Uiso   1.00
H84    H     0.69240   0.91890   0.56160   0.01267  Uiso   1.00
H85    H     0.65890   0.88610   0.60100   0.01267  Uiso   1.00
H86    H     0.74890   0.84760   0.57480   0.01267  Uiso   1.00
H87    H     0.70250   0.73550   0.59750   0.01267  Uiso   1.00
H88    H     0.59430   0.66240   0.59940   0.01267  Uiso   1.00
H89    H     0.73170   0.65250   0.54650   0.01267  Uiso   1.00
H90    H     0.58910   0.65810   0.53240   0.01267  Uiso   1.00
H91    H     0.70110   0.72930   0.53120   0.01267  Uiso   1.00
H92    H     0.38110   0.65720   0.58070   0.01267  Uiso   1.00
H93    H     0.39240   0.70320   0.54430   0.01267  Uiso   1.00
H94    H     0.18070   0.70210   0.57100   0.01267  Uiso   1.00
H95    H     0.24640   0.74150   0.60640   0.01267  Uiso   1.00
H96    H     0.25540   0.78570   0.56920   0.01267  Uiso   1.00
C127   C     0.56920   0.82980   0.56300   0.01267  Uiso   1.00
C128   C     0.67440   0.87350   0.57600   0.01267  Uiso   1.00
C129   C     0.62540   0.70770   0.58520   0.01267  Uiso   1.00
C130   C     0.66590   0.68460   0.54480   0.01267  Uiso   1.00
C131   C     0.38860   0.70780   0.57080   0.01267  Uiso   1.00
C132   C     0.25500   0.73720   0.58030   0.01267  Uiso   1.00
N4     N     0.52490   0.75260   0.58350   0.01267  Uiso   1.00
