data_Cell_opt_MIXBIG
_audit_creation_date              2019-03-13
_audit_creation_method            'Materials Studio'
_symmetry_space_group_name_H-M    'P1'
_symmetry_Int_Tables_number       1
_symmetry_cell_setting            triclinic
loop_
_symmetry_equiv_pos_as_xyz
  x,y,z
_cell_length_a                    18.4966
_cell_length_b                    18.4660
_cell_length_c                    35.3859
_cell_angle_alpha                 89.5895
_cell_angle_beta                  90.2740
_cell_angle_gamma                 120.0971
loop_
_atom_site_label
_atom_site_type_symbol
_atom_site_fract_x
_atom_site_fract_y
_atom_site_fract_z
_atom_site_U_iso_or_equiv
_atom_site_adp_type
_atom_site_occupancy
C1     C     0.29239   0.13915   0.21345   0.00000  Uiso   1.00
C2     C     0.26826   0.19332   0.22924   0.00000  Uiso   1.00
C3     C     0.22175   0.17114   0.26309   0.00000  Uiso   1.00
C4     C     0.19753   0.09303   0.27999   0.00000  Uiso   1.00
C5     C     0.21895   0.03739   0.26359   0.00000  Uiso   1.00
C6     C     0.26768   0.06178   0.23078   0.00000  Uiso   1.00
H7     H     0.28725   0.25300   0.21568   0.00000  Uiso   1.00
H8     H     0.15987   0.07444   0.30540   0.00000  Uiso   1.00
H9     H     0.28555   0.01974   0.21815   0.00000  Uiso   1.00
C10    C     0.87745   0.43209   0.52950   0.00000  Uiso   1.00
C11    C     0.86944   0.49272   0.54960   0.00000  Uiso   1.00
C12    C     0.85786   0.48643   0.58882   0.00000  Uiso   1.00
C13    C     0.85409   0.41774   0.60800   0.00000  Uiso   1.00
C14    C     0.86171   0.35584   0.58828   0.00000  Uiso   1.00
C15    C     0.87549   0.36465   0.54893   0.00000  Uiso   1.00
H16    H     0.86993   0.54400   0.53427   0.00000  Uiso   1.00
H17    H     0.84239   0.41102   0.63814   0.00000  Uiso   1.00
H18    H     0.87903   0.31656   0.53306   0.00000  Uiso   1.00
C19    C     0.62002   0.80191   0.87907   0.00000  Uiso   1.00
C20    C     0.59456   0.72455   0.89665   0.00000  Uiso   1.00
C21    C     0.54343   0.69985   0.92872   0.00000  Uiso   1.00
C22    C     0.51996   0.75504   0.94389   0.00000  Uiso   1.00
C23    C     0.54500   0.83312   0.92666   0.00000  Uiso   1.00
C24    C     0.59394   0.85553   0.89364   0.00000  Uiso   1.00
H25    H     0.61435   0.68313   0.88501   0.00000  Uiso   1.00
H26    H     0.48087   0.73650   0.96885   0.00000  Uiso   1.00
H27    H     0.61407   0.91542   0.88005   0.00000  Uiso   1.00
C28    C     0.85058   0.10829   0.19898   0.00000  Uiso   1.00
C29    C     0.78450   0.04139   0.21823   0.00000  Uiso   1.00
C30    C     0.79016   0.03137   0.25748   0.00000  Uiso   1.00
C31    C     0.86103   0.09156   0.27729   0.00000  Uiso   1.00
C32    C     0.92669   0.15952   0.25828   0.00000  Uiso   1.00
C33    C     0.92062   0.16714   0.21916   0.00000  Uiso   1.00
H34    H     0.73181  -0.00552   0.20228   0.00000  Uiso   1.00
H35    H     0.86665   0.08382   0.30734   0.00000  Uiso   1.00
H36    H     0.97191   0.21795   0.20394   0.00000  Uiso   1.00
C37    C     0.47483   0.47964   0.55053   0.00000  Uiso   1.00
C38    C     0.42226   0.39930   0.56532   0.00000  Uiso   1.00
C39    C     0.44535   0.37279   0.59837   0.00000  Uiso   1.00
C40    C     0.52287   0.42660   0.61545   0.00000  Uiso   1.00
C41    C     0.57708   0.50576   0.59992   0.00000  Uiso   1.00
C42    C     0.55167   0.53230   0.56797   0.00000  Uiso   1.00
H43    H     0.36304   0.35863   0.55163   0.00000  Uiso   1.00
H44    H     0.54226   0.40579   0.64020   0.00000  Uiso   1.00
H45    H     0.59278   0.59367   0.55595   0.00000  Uiso   1.00
C46    C     0.17326   0.76911   0.86714   0.00000  Uiso   1.00
C47    C     0.11134   0.70240   0.88797   0.00000  Uiso   1.00
C48    C     0.11960   0.69502   0.92708   0.00000  Uiso   1.00
C49    C     0.19073   0.75860   0.94548   0.00000  Uiso   1.00
C50    C     0.25279   0.82767   0.92505   0.00000  Uiso   1.00
C51    C     0.24276   0.83288   0.88577   0.00000  Uiso   1.00
H52    H     0.05871   0.65343   0.87274   0.00000  Uiso   1.00
H53    H     0.19936   0.75299   0.97544   0.00000  Uiso   1.00
H54    H     0.29147   0.88304   0.86921   0.00000  Uiso   1.00
C55    C     0.83909   0.73008   0.19961   0.00000  Uiso   1.00
C56    C     0.90835   0.73450   0.21807   0.00000  Uiso   1.00
C57    C     0.91940   0.74990   0.25723   0.00000  Uiso   1.00
C58    C     0.85811   0.75700   0.27782   0.00000  Uiso   1.00
C59    C     0.78762   0.75074   0.25958   0.00000  Uiso   1.00
C60    C     0.77887   0.73697   0.22052   0.00000  Uiso   1.00
H61    H     0.95597   0.73156   0.20154   0.00000  Uiso   1.00
H62    H     0.86681   0.77067   0.30775   0.00000  Uiso   1.00
H63    H     0.72632   0.73483   0.20578   0.00000  Uiso   1.00
C64    C     0.50502   0.05960   0.53440   0.00000  Uiso   1.00
C65    C     0.57181   0.05983   0.55339   0.00000  Uiso   1.00
C66    C     0.58290   0.07571   0.59257   0.00000  Uiso   1.00
C67    C     0.52373   0.08737   0.61264   0.00000  Uiso   1.00
C68    C     0.45560   0.08528   0.59387   0.00000  Uiso   1.00
C69    C     0.44707   0.07112   0.55484   0.00000  Uiso   1.00
H70    H     0.61802   0.05372   0.53720   0.00000  Uiso   1.00
H71    H     0.53246   0.10139   0.64254   0.00000  Uiso   1.00
H72    H     0.39620   0.07172   0.53978   0.00000  Uiso   1.00
C73    C     0.16750   0.38993   0.86763   0.00000  Uiso   1.00
C74    C     0.10862   0.39986   0.88815   0.00000  Uiso   1.00
C75    C     0.11789   0.41537   0.92706   0.00000  Uiso   1.00
C76    C     0.18743   0.42020   0.94563   0.00000  Uiso   1.00
C77    C     0.24746   0.41022   0.92550   0.00000  Uiso   1.00
C78    C     0.23589   0.39312   0.88643   0.00000  Uiso   1.00
H79    H     0.05675   0.39869   0.87320   0.00000  Uiso   1.00
H80    H     0.19656   0.43521   0.97544   0.00000  Uiso   1.00
H81    H     0.28272   0.38819   0.87017   0.00000  Uiso   1.00
C82    C     0.11891   0.29088   0.73509   0.00000  Uiso   1.00
C83    C     0.17276   0.26494   0.72074   0.00000  Uiso   1.00
C84    C     0.15276   0.21915   0.68687   0.00000  Uiso   1.00
C85    C     0.07736   0.19833   0.66811   0.00000  Uiso   1.00
C86    C     0.02119   0.22088   0.68313   0.00000  Uiso   1.00
C87    C     0.04351   0.26802   0.71648   0.00000  Uiso   1.00
H88    H     0.23092   0.28267   0.73527   0.00000  Uiso   1.00
H89    H     0.06123   0.16212   0.64233   0.00000  Uiso   1.00
H90    H     0.00208   0.28738   0.72845   0.00000  Uiso   1.00
C91    C     0.78950   0.63143   0.06744   0.00000  Uiso   1.00
C92    C     0.84352   0.60581   0.05290   0.00000  Uiso   1.00
C93    C     0.82184   0.55739   0.01980   0.00000  Uiso   1.00
C94    C     0.74434   0.53275   0.00232   0.00000  Uiso   1.00
C95    C     0.68889   0.55583   0.01744   0.00000  Uiso   1.00
C96    C     0.71273   0.60619   0.04966   0.00000  Uiso   1.00
H97    H     0.90289   0.62561   0.06670   0.00000  Uiso   1.00
H98    H     0.72630   0.49399  -0.02269   0.00000  Uiso   1.00
H99    H     0.67102   0.62537   0.06144   0.00000  Uiso   1.00
C100   C     0.45672   0.96092   0.40194   0.00000  Uiso   1.00
C101   C     0.37941   0.93455   0.38444   0.00000  Uiso   1.00
C102   C     0.35659   0.88594   0.35166   0.00000  Uiso   1.00
C103   C     0.41338   0.86554   0.33582   0.00000  Uiso   1.00
C104   C     0.49134   0.89121   0.35301   0.00000  Uiso   1.00
C105   C     0.51217   0.93805   0.38660   0.00000  Uiso   1.00
H106   H     0.33683   0.95204   0.39672   0.00000  Uiso   1.00
H107   H     0.39609   0.82817   0.31038   0.00000  Uiso   1.00
H108   H     0.57190   0.95867   0.40021   0.00000  Uiso   1.00
C109   C     0.13079   0.81418   0.73277   0.00000  Uiso   1.00
C110   C     0.18219   0.89541   0.71864   0.00000  Uiso   1.00
C111   C     0.16046   0.92116   0.68496   0.00000  Uiso   1.00
C112   C     0.08529   0.86552   0.66651   0.00000  Uiso   1.00
C113   C     0.03217   0.78529   0.68128   0.00000  Uiso   1.00
C114   C     0.05647   0.75969   0.71391   0.00000  Uiso   1.00
H115   H     0.23952   0.93747   0.73337   0.00000  Uiso   1.00
H116   H     0.06671   0.88564   0.64128   0.00000  Uiso   1.00
H117   H     0.01606   0.69765   0.72545   0.00000  Uiso   1.00
C118   C     0.79728   0.15876   0.06714   0.00000  Uiso   1.00
C119   C     0.84875   0.23711   0.05050   0.00000  Uiso   1.00
C120   C     0.82450   0.26155   0.01742   0.00000  Uiso   1.00
C121   C     0.74722   0.20492   0.00078   0.00000  Uiso   1.00
C122   C     0.69353   0.12670   0.01771   0.00000  Uiso   1.00
C123   C     0.71891   0.10430   0.05128   0.00000  Uiso   1.00
H124   H     0.90855   0.27871   0.06355   0.00000  Uiso   1.00
H125   H     0.72746   0.22268  -0.02481   0.00000  Uiso   1.00
H126   H     0.67926   0.04401   0.06451   0.00000  Uiso   1.00
C127   C     0.42992   0.52857   0.41734   0.00000  Uiso   1.00
C128   C     0.49110   0.59639   0.39667   0.00000  Uiso   1.00
C129   C     0.48469   0.60135   0.35739   0.00000  Uiso   1.00
C130   C     0.41584   0.53636   0.33869   0.00000  Uiso   1.00
C131   C     0.35360   0.46736   0.35898   0.00000  Uiso   1.00
C132   C     0.36211   0.46311   0.39842   0.00000  Uiso   1.00
H133   H     0.54232   0.64720   0.41175   0.00000  Uiso   1.00
H134   H     0.40907   0.54115   0.30850   0.00000  Uiso   1.00
H135   H     0.31365   0.41220   0.41475   0.00000  Uiso   1.00
C136   C     0.72626   0.85393   0.74790   0.00000  Uiso   1.00
C137   C     0.73663   0.79463   0.72800   0.00000  Uiso   1.00
C138   C     0.75095   0.80221   0.68903   0.00000  Uiso   1.00
C139   C     0.75480   0.87083   0.66976   0.00000  Uiso   1.00
C140   C     0.74483   0.93189   0.68917   0.00000  Uiso   1.00
C141   C     0.72817   0.92133   0.72842   0.00000  Uiso   1.00
H142   H     0.73578   0.74336   0.74346   0.00000  Uiso   1.00
H143   H     0.76825   0.87787   0.63975   0.00000  Uiso   1.00
H144   H     0.72230   0.96796   0.74440   0.00000  Uiso   1.00
C145   C     0.38382   0.18342   0.07969   0.00000  Uiso   1.00
C146   C     0.39259   0.12374   0.05925   0.00000  Uiso   1.00
C147   C     0.40704   0.13213   0.02021   0.00000  Uiso   1.00
C148   C     0.41225   0.20189   0.00144   0.00000  Uiso   1.00
C149   C     0.40338   0.26304   0.02143   0.00000  Uiso   1.00
C150   C     0.38659   0.25159   0.06066   0.00000  Uiso   1.00
H151   H     0.39152   0.07209   0.07446   0.00000  Uiso   1.00
H152   H     0.42635   0.20994  -0.02850   0.00000  Uiso   1.00
H153   H     0.38219   0.29856   0.07705   0.00000  Uiso   1.00
C154   C    -0.02257   0.48156   0.39745   0.00000  Uiso   1.00
C155   C     0.00150   0.55851   0.37984   0.00000  Uiso   1.00
C156   C     0.05332   0.58440   0.34802   0.00000  Uiso   1.00
C157   C     0.07901   0.53083   0.33302   0.00000  Uiso   1.00
C158   C     0.05578   0.45331   0.35035   0.00000  Uiso   1.00
C159   C     0.00570   0.42952   0.38308   0.00000  Uiso   1.00
H160   H    -0.01951   0.59888   0.39152   0.00000  Uiso   1.00
H161   H     0.11915   0.55065   0.30839   0.00000  Uiso   1.00
H162   H    -0.01293   0.37016   0.39687   0.00000  Uiso   1.00
O163   O     1.07659   0.46720   0.97954   0.00000  Uiso   1.00
O164   O     0.94030   0.53795   1.02199   0.00000  Uiso   1.00
O165   O     0.94021   0.39542   1.01968   0.00000  Uiso   1.00
O166   O     1.07572   0.60656   0.97962   0.00000  Uiso   1.00
O167   O     0.99837   0.56598   0.92808   0.00000  Uiso   1.00
O168   O     0.85910   0.35919   0.96937   0.00000  Uiso   1.00
O169   O     0.86392   0.50138   0.97008   0.00000  Uiso   1.00
O170   O     0.99537   0.42609   0.92911   0.00000  Uiso   1.00
Cu171  Cu    1.01537   0.50548   1.00566   0.00000  Uiso   1.00
Cu172  Cu    0.92115   0.45955   0.94417   0.00000  Uiso   1.00
C173   C     1.05988   0.43600   0.94657   0.00000  Uiso   1.00
C174   C     0.87857   0.53142   1.00321   0.00000  Uiso   1.00
C175   C     0.87637   0.34122   1.00158   0.00000  Uiso   1.00
C176   C     1.06212   0.62083   0.94587   0.00000  Uiso   1.00
O177   O     0.74476   0.79981   0.31257   0.00000  Uiso   1.00
O178   O     0.61224   0.87597   0.35420   0.00000  Uiso   1.00
O179   O     0.60878   0.73421   0.35456   0.00000  Uiso   1.00
O180   O     0.74389   0.93895   0.31033   0.00000  Uiso   1.00
O181   O     0.66454   0.89850   0.25931   0.00000  Uiso   1.00
O182   O     0.52869   0.69263   0.30380   0.00000  Uiso   1.00
O183   O     0.53269   0.83441   0.30326   0.00000  Uiso   1.00
O184   O     0.66404   0.75934   0.26201   0.00000  Uiso   1.00
Cu185  Cu    0.68530   0.84104   0.33808   0.00000  Uiso   1.00
Cu186  Cu    0.58932   0.79195   0.27708   0.00000  Uiso   1.00
C187   C     0.72854   0.76934   0.27947   0.00000  Uiso   1.00
C188   C     0.54884   0.86675   0.33597   0.00000  Uiso   1.00
C189   C     0.54436   0.67917   0.33727   0.00000  Uiso   1.00
C190   C     0.72884   0.95307   0.27684   0.00000  Uiso   1.00
O191   O     0.27213   0.20086   0.68934   0.00000  Uiso   1.00
O192   O     0.41162   0.13343   0.64696   0.00000  Uiso   1.00
O193   O     0.40653   0.27121   0.64742   0.00000  Uiso   1.00
O194   O     0.27583   0.06071   0.68819   0.00000  Uiso   1.00
O195   O     0.19886   0.02364   0.63645   0.00000  Uiso   1.00
O196   O     0.32826   0.23437   0.59605   0.00000  Uiso   1.00
O197   O     0.33393   0.09743   0.59546   0.00000  Uiso   1.00
O198   O     0.19502   0.16202   0.63764   0.00000  Uiso   1.00
Cu199  Cu    0.34906   0.17024   0.67329   0.00000  Uiso   1.00
Cu200  Cu    0.25609   0.12517   0.61134   0.00000  Uiso   1.00
C201   C     0.20969   0.19291   0.67060   0.00000  Uiso   1.00
C202   C     0.39719   0.10548   0.61339   0.00000  Uiso   1.00
C203   C     0.39038   0.28872   0.61476   0.00000  Uiso   1.00
C204   C     0.21460   0.00601   0.66912   0.00000  Uiso   1.00
O205   O     0.34188   0.45713   0.97761   0.00000  Uiso   1.00
O206   O     0.55107   0.53477   1.01843   0.00000  Uiso   1.00
O207   O     0.48007   0.59943   0.97829   0.00000  Uiso   1.00
O208   O     0.41235   0.39307   1.02150   0.00000  Uiso   1.00
O209   O     0.44704   0.35267   0.96961   0.00000  Uiso   1.00
O210   O     0.52266   0.56172   0.92790   0.00000  Uiso   1.00
O211   O     0.58859   0.49175   0.96811   0.00000  Uiso   1.00
O212   O     0.38159   0.42130   0.92578   0.00000  Uiso   1.00
Cu213  Cu    0.44172   0.49920   1.00412   0.00000  Uiso   1.00
Cu214  Cu    0.48809   0.45234   0.94268   0.00000  Uiso   1.00
C215   C     0.32697   0.42900   0.94408   0.00000  Uiso   1.00
C216   C     0.60556   0.52623   1.00036   0.00000  Uiso   1.00
C217   C     0.51412   0.61633   0.94590   0.00000  Uiso   1.00
C218   C     0.42015   0.33815   1.00343   0.00000  Uiso   1.00
O219   O     0.19591   0.89873   0.26088   0.00000  Uiso   1.00
O220   O     0.11601   0.68622   0.29899   0.00000  Uiso   1.00
O221   O     0.05345   0.76040   0.25756   0.00000  Uiso   1.00
O222   O     0.25837   0.82566   0.30129   0.00000  Uiso   1.00
O223   O     0.21823   0.86344   0.35245   0.00000  Uiso   1.00
O224   O     0.01316   0.79574   0.30939   0.00000  Uiso   1.00
O225   O     0.07592   0.72281   0.35052   0.00000  Uiso   1.00
O226   O     0.15398   0.93464   0.31207   0.00000  Uiso   1.00
Cu227  Cu    0.15967   0.78870   0.27450   0.00000  Uiso   1.00
Cu228  Cu    0.11110   0.83221   0.33640   0.00000  Uiso   1.00
C229   C     0.18843   0.95291   0.27977   0.00000  Uiso   1.00
C230   C     0.08284   0.66845   0.33156   0.00000  Uiso   1.00
C231   C    -0.00119   0.76843   0.27576   0.00000  Uiso   1.00
C232   C     0.27367   0.85686   0.33423   0.00000  Uiso   1.00
O233   O     0.67774   0.12212   0.64449   0.00000  Uiso   1.00
O234   O     0.88888   0.20490   0.68369   0.00000  Uiso   1.00
O235   O     0.81490   0.26346   0.64127   0.00000  Uiso   1.00
O236   O     0.75226   0.06140   0.68795   0.00000  Uiso   1.00
O237   O     0.78492   0.01833   0.63631   0.00000  Uiso   1.00
O238   O     0.85541   0.22344   0.59095   0.00000  Uiso   1.00
O239   O     0.92516   0.15849   0.63427   0.00000  Uiso   1.00
O240   O     0.71598   0.08408   0.59286   0.00000  Uiso   1.00
Cu241  Cu    0.77936   0.16652   0.66948   0.00000  Uiso   1.00
Cu242  Cu    0.82396   0.11653   0.60861   0.00000  Uiso   1.00
C243   C     0.66199   0.09296   0.61116   0.00000  Uiso   1.00
C244   C     0.94287   0.19448   0.66625   0.00000  Uiso   1.00
C245   C     0.84464   0.27768   0.60799   0.00000  Uiso   1.00
C246   C     0.75979   0.00570   0.67040   0.00000  Uiso   1.00
O247   O     0.52840   0.95349   0.92513   0.00000  Uiso   1.00
O248   O     0.45463   1.08788   0.96711   0.00000  Uiso   1.00
O249   O     0.59412   1.08655   0.96776   0.00000  Uiso   1.00
O250   O     0.38707   0.95122   0.92531   0.00000  Uiso   1.00
O251   O     0.34769   0.87369   0.97705   0.00000  Uiso   1.00
O252   O     0.55654   1.00657   1.01876   0.00000  Uiso   1.00
O253   O     0.41819   1.00954   1.01857   0.00000  Uiso   1.00
O254   O     0.48734   0.87395   0.97627   0.00000  Uiso   1.00
Cu255  Cu    0.49460   1.02773   0.94118   0.00000  Uiso   1.00
Cu256  Cu    0.44816   0.93309   1.00278   0.00000  Uiso   1.00
C257   C     0.51937   0.89001   0.94346   0.00000  Uiso   1.00
C258   C     0.42633   1.07304   1.00065   0.00000  Uiso   1.00
C259   C     0.61082   1.07009   1.00052   0.00000  Uiso   1.00
C260   C     0.33254   0.88794   0.94361   0.00000  Uiso   1.00
O261   O     0.20372   0.29017   0.26188   0.00000  Uiso   1.00
O262   O     0.12074   0.41672   0.30223   0.00000  Uiso   1.00
O263   O     0.26240   0.42081   0.30593   0.00000  Uiso   1.00
O264   O     0.06043   0.28252   0.26070   0.00000  Uiso   1.00
O265   O     0.01791   0.20243   0.31165   0.00000  Uiso   1.00
O266   O     0.22068   0.34185   0.35722   0.00000  Uiso   1.00
O267   O     0.07775   0.33653   0.35314   0.00000  Uiso   1.00
O268   O     0.16143   0.20989   0.31277   0.00000  Uiso   1.00
Cu269  Cu    0.16602   0.36068   0.27766   0.00000  Uiso   1.00
Cu270  Cu    0.11573   0.26465   0.33885   0.00000  Uiso   1.00
C271   C     0.19503   0.22698   0.28018   0.00000  Uiso   1.00
C272   C     0.08577   0.39914   0.33445   0.00000  Uiso   1.00
C273   C     0.27555   0.40618   0.33964   0.00000  Uiso   1.00
C274   C     0.00504   0.21816   0.27810   0.00000  Uiso   1.00
O275   O     0.79538   0.75629   0.63579   0.00000  Uiso   1.00
O276   O     0.85152   0.61195   0.59111   0.00000  Uiso   1.00
O277   O     0.71609   0.62033   0.59629   0.00000  Uiso   1.00
O278   O     0.93051   0.74780   0.63240   0.00000  Uiso   1.00
O279   O     0.89456   0.66840   0.68357   0.00000  Uiso   1.00
O280   O     0.68049   0.54136   0.64761   0.00000  Uiso   1.00
O281   O     0.81592   0.53351   0.64257   0.00000  Uiso   1.00
O282   O     0.75992   0.67806   0.68732   0.00000  Uiso   1.00
Cu283  Cu    0.82719   0.69167   0.60861   0.00000  Uiso   1.00
Cu284  Cu    0.78428   0.59766   0.67049   0.00000  Uiso   1.00
C285   C     0.76880   0.74216   0.66956   0.00000  Uiso   1.00
C286   C     0.84195   0.54743   0.60868   0.00000  Uiso   1.00
C287   C     0.66183   0.55881   0.61558   0.00000  Uiso   1.00
C288   C     0.94867   0.73065   0.66465   0.00000  Uiso   1.00
N289   N     0.12064   0.40237   0.77124   0.00000  Uiso   1.00
N290   N     0.13240   0.42996   0.80632   0.00000  Uiso   1.00
C291   C     0.16035   0.38625   0.82613   0.00000  Uiso   1.00
C292   C     0.16615   0.33098   0.80183   0.00000  Uiso   1.00
N293   N     0.14020   0.34292   0.76787   0.00000  Uiso   1.00
H294   H     0.17992   0.28200   0.80884   0.00000  Uiso   1.00
N295   N     0.45816   0.07232   0.43799   0.00000  Uiso   1.00
N296   N     0.46982   0.09979   0.47311   0.00000  Uiso   1.00
C297   C     0.49819   0.05637   0.49286   0.00000  Uiso   1.00
C298   C     0.50442   0.00147   0.46849   0.00000  Uiso   1.00
N299   N     0.47833   0.01334   0.43456   0.00000  Uiso   1.00
H300   H     0.51839  -0.04739   0.47545   0.00000  Uiso   1.00
N301   N     0.79027   0.74248   0.10357   0.00000  Uiso   1.00
N302   N     0.80219   0.76994   0.13869   0.00000  Uiso   1.00
C303   C     0.83187   0.72733   0.15816   0.00000  Uiso   1.00
C304   C     0.83858   0.67299   0.13367   0.00000  Uiso   1.00
N305   N     0.81147   0.68428   0.09991   0.00000  Uiso   1.00
H306   H     0.85336   0.62463   0.14049   0.00000  Uiso   1.00
N307   N     0.14360   0.69382   0.80821   0.00000  Uiso   1.00
N308   N     0.13243   0.70363   0.77205   0.00000  Uiso   1.00
C309   C     0.15197   0.78391   0.76732   0.00000  Uiso   1.00
C310   C     0.17599   0.82353   0.80197   0.00000  Uiso   1.00
N311   N     0.16926   0.76466   0.82671   0.00000  Uiso   1.00
H312   H     0.18876   0.88576   0.80912   0.00000  Uiso   1.00
N313   N     0.46008   0.60229   0.47679   0.00000  Uiso   1.00
N314   N     0.47192   0.59137   0.51274   0.00000  Uiso   1.00
C315   C     0.45212   0.51087   0.51680   0.00000  Uiso   1.00
C316   C     0.42736   0.47233   0.48197   0.00000  Uiso   1.00
N317   N     0.43378   0.53194   0.45779   0.00000  Uiso   1.00
H318   H     0.41471   0.41041   0.47428   0.00000  Uiso   1.00
N319   N     0.90650   0.15290   0.10233   0.00000  Uiso   1.00
N320   N     0.92322   0.14072   0.13736   0.00000  Uiso   1.00
C321   C     0.85259   0.11431   0.15747   0.00000  Uiso   1.00
C322   C     0.79126   0.10991   0.13348   0.00000  Uiso   1.00
N323   N     0.82789   0.13494   0.09935   0.00000  Uiso   1.00
H324   H     0.72954   0.09817   0.14083   0.00000  Uiso   1.00
N325   N     0.76428   0.82153   0.80859   0.00000  Uiso   1.00
N326   N     0.73780   0.80719   0.84393   0.00000  Uiso   1.00
C327   C     0.67611   0.82558   0.84630   0.00000  Uiso   1.00
C328   C     0.66563   0.85219   0.81108   0.00000  Uiso   1.00
N329   N     0.72175   0.84819   0.78835   0.00000  Uiso   1.00
H330   H     0.61694   0.86477   0.80209   0.00000  Uiso   1.00
N331   N     0.86288   0.47546   0.43281   0.00000  Uiso   1.00
N332   N     0.83494   0.46344   0.46790   0.00000  Uiso   1.00
C333   C     0.87973   0.43720   0.48795   0.00000  Uiso   1.00
C334   C     0.93603   0.43281   0.46384   0.00000  Uiso   1.00
N335   N     0.92354   0.45764   0.42970   0.00000  Uiso   1.00
H336   H     0.98639   0.42142   0.47114   0.00000  Uiso   1.00
N337   N     0.42747   0.15333   0.13950   0.00000  Uiso   1.00
N338   N     0.40566   0.14206   0.17549   0.00000  Uiso   1.00
C339   C     0.34483   0.16134   0.17937   0.00000  Uiso   1.00
C340   C     0.32989   0.18513   0.14430   0.00000  Uiso   1.00
N341   N     0.38265   0.17868   0.12021   0.00000  Uiso   1.00
H342   H     0.28052   0.19762   0.13647   0.00000  Uiso   1.00
loop_
_geom_bond_atom_site_label_1
_geom_bond_atom_site_label_2
_geom_bond_distance
_geom_bond_site_symmetry_2
_ccdc_geom_bond_type
C1     C2      1.404   .     A
C1     C6      1.400   .     A
C1     C339    1.473   .     S
C2     C3      1.411   .     A
C2     H7      1.083   .     S
C3     C271    1.482   .     S
C3     C4      1.407   .     A
C4     C5      1.403   .     A
C4     H8      1.083   .     S
C5     C6      1.399   .     A
C5     C229    1.479   1_545 A
C6     H9      1.084   .     S
C10    C333    1.472   .     S
C10    C11     1.400   .     A
C10    C15     1.403   .     A
C11    H16     1.084   .     S
C11    C12     1.400   .     A
C12    C286    1.482   .     S
C12    C13     1.405   .     A
C13    H17     1.083   .     S
C13    C14     1.410   .     A
C14    C245    1.483   .     S
C14    C15     1.410   .     A
C15    H18     1.084   .     S
C19    C327    1.470   .     S
C19    C20     1.402   .     A
C19    C24     1.403   .     A
C20    H25     1.084   .     S
C20    C21     1.400   .     A
C21    C22     1.403   .     A
C21    C217    1.481   .     S
C22    H26     1.083   .     S
C22    C23     1.409   .     A
C23    C24     1.408   .     A
C23    C257    1.481   .     S
C24    H27     1.084   .     S
C28    C33     1.400   .     A
C28    C29     1.402   .     A
C28    C321    1.472   .     S
C29    C30     1.410   .     A
C29    H34     1.083   .     S
C30    C31     1.409   .     A
C30    C190    1.481   1_545 A
C31    H35     1.083   .     S
C31    C32     1.403   .     A
C32    C33     1.400   .     A
C32    C274    1.481   1_655 S
C33    H36     1.084   .     S
C37    C42     1.400   .     A
C37    C38     1.403   .     A
C37    C315    1.470   .     S
C38    C39     1.409   .     A
C38    H43     1.083   .     S
C39    C40     1.407   .     A
C39    C203    1.480   .     S
C40    H44     1.083   .     S
C40    C41     1.403   .     A
C41    C42     1.399   .     A
C41    C287    1.478   .     S
C42    H45     1.084   .     S
C46    C47     1.397   .     A
C46    N311    1.433   .     S
C46    C51     1.400   .     A
C47    C48     1.405   .     A
C47    H52     1.084   .     S
C48    C49     1.410   .     A
C48    C176    1.408   1_455 A
C49    H53     1.083   .     S
C49    C50     1.412   .     A
C50    C260    1.483   .     S
C50    C51     1.410   .     A
C51    H54     1.083   .     S
C55    C303    1.471   .     S
C55    C60     1.398   .     A
C55    C56     1.401   .     A
C56    H61     1.084   .     S
C56    C57     1.410   .     A
C57    C58     1.411   .     A
C57    C231    1.481   1_655 S
C58    H62     1.083   .     S
C58    C59     1.404   .     A
C59    C187    1.481   .     S
C59    C60     1.401   .     A
C60    H63     1.084   .     S
C64    C297    1.474   .     S
C64    C69     1.398   .     A
C64    C65     1.402   .     A
C65    C66     1.412   .     A
C65    H70     1.083   .     S
C66    C243    1.483   .     S
C66    C67     1.412   .     A
C67    C68     1.405   .     A
C67    H71     1.083   .     S
C68    C69     1.401   .     A
C68    C202    1.483   .     S
C69    H72     1.084   .     S
C73    C78     1.401   .     A
C73    C291    1.473   .     S
C73    C74     1.399   .     A
C74    C75     1.400   .     A
C74    H79     1.084   .     S
C75    C76     1.404   .     A
C75    C173    1.481   1_455 S
C76    C77     1.410   .     A
C76    H80     1.083   .     S
C77    C78     1.412   .     A
C77    C215    1.483   .     S
C78    H81     1.084   .     S
C82    N293    1.434   .     S
C82    C83     1.402   .     A
C82    C87     1.401   .     A
C83    H88     1.083   .     S
C83    C84     1.409   .     A
C84    C85     1.411   .     A
C84    C201    1.482   .     S
C85    H89     1.084   .     S
C85    C86     1.406   .     A
C86    C87     1.404   .     A
C86    C244    1.407   1_455 A
C87    H90     1.084   .     S
C91    C92     1.403   .     A
C91    C96     1.400   .     A
C91    N305    1.432   .     S
C92    C93     1.408   .     A
C92    H97     1.083   .     S
C93    C94     1.409   .     A
C93    C174    1.480   1_554 A
C94    C95     1.402   .     A
C94    H98     1.083   .     S
C95    C96     1.399   .     A
C95    C216    1.480   1_554 S
C96    H99     1.083   .     S
C100   C105    1.403   .     A
C100   C101    1.401   .     A
C100   N299    1.433   1_565 A
C101   H106    1.083   .     S
C101   C102    1.400   .     A
C102   C232    1.480   .     S
C102   C103    1.402   .     A
C103   H107    1.083   .     S
C103   C104    1.409   .     A
C104   C188    1.480   .     S
C104   C105    1.409   .     A
C105   H108    1.083   .     S
C109   C309    1.472   .     S
C109   C114    1.400   .     A
C109   C110    1.403   .     A
C110   H115    1.083   .     S
C110   C111    1.410   .     A
C111   C112    1.408   .     A
C111   C204    1.480   1_565 S
C112   H116    1.083   .     S
C112   C113    1.403   .     A
C113   C114    1.400   .     A
C113   C288    1.479   1_455 S
C114   H117    1.084   .     S
C118   C119    1.399   .     A
C118   N323    1.432   .     S
C118   C123    1.402   .     A
C119   C120    1.402   .     A
C119   H124    1.084   .     S
C120   C121    1.409   .     A
C120   C175    1.406   1_554 A
C121   C122    1.409   .     A
C121   H125    1.083   .     S
C122   C123    1.409   .     A
C122   C259    1.483   1_544 A
C123   H126    1.083   .     S
C127   N317    1.433   .     S
C127   C128    1.399   .     A
C127   C132    1.402   .     A
C128   C129    1.401   .     A
C128   H133    1.083   .     S
C129   C130    1.404   .     A
C129   C189    1.481   .     S
C130   H134    1.083   .     S
C130   C131    1.410   .     A
C131   C273    1.481   .     S
C131   C132    1.410   .     A
C132   H135    1.083   .     S
C136   C137    1.398   .     A
C136   C141    1.403   .     A
C136   N329    1.434   .     S
C137   H142    1.083   .     S
C137   C138    1.398   .     A
C138   C285    1.481   .     S
C138   C139    1.405   .     A
C139   H143    1.084   .     S
C139   C140    1.413   .     A
C140   C141    1.415   .     A
C140   C246    1.409   1_565 S
C141   H144    1.084   .     S
C145   C150    1.402   .     A
C145   N341    1.435   .     S
C145   C146    1.399   .     A
C146   H151    1.083   .     S
C146   C147    1.401   .     A
C147   C148    1.405   .     A
C147   C258    1.483   1_544 A
C148   H152    1.084   .     S
C148   C149    1.414   .     A
C149   C150    1.415   .     A
C149   C218    1.408   1_554 S
C150   H153    1.083   .     S
C154   C155    1.400   .     A
C154   C159    1.403   .     A
C154   N335    1.433   1_455 A
C155   C156    1.399   .     A
C155   H160    1.084   .     S
C156   C230    1.479   .     S
C156   C157    1.403   .     A
C157   H161    1.083   .     S
C157   C158    1.408   .     A
C158   C159    1.410   .     A
C158   C272    1.481   .     S
C159   H162    1.083   .     S
O163   C173    1.271   .     A
O163   Cu171   1.860   .     S
O164   Cu171   1.863   .     S
O164   C174    1.271   .     A
O165   C175    1.274   .     A
O165   Cu171   1.862   .     S
O166   Cu171   1.864   .     S
O166   C176    1.272   .     A
O167   C176    1.272   .     A
O167   Cu172   1.845   .     S
O168   C175    1.268   .     A
O168   Cu172   1.844   .     S
O169   C174    1.269   .     A
O169   Cu172   1.843   .     S
O170   Cu172   1.847   .     S
O170   C173    1.271   .     A
Cu171  Cu172   2.646   .     S
C173   C75     1.481   1_655 S
C174   C93     1.480   1_556 A
C175   C120    1.406   1_556 A
C176   C48     1.408   1_655 A
O177   C187    1.271   .     A
O177   Cu185   1.861   .     S
O178   C188    1.271   .     A
O178   Cu185   1.859   .     S
O179   Cu185   1.851   .     S
O179   C189    1.271   .     A
O180   C190    1.271   .     A
O180   Cu185   1.851   .     S
O181   C190    1.271   .     A
O181   Cu186   1.857   .     S
O182   C189    1.270   .     A
O182   Cu186   1.854   .     S
O183   C188    1.270   .     A
O183   Cu186   1.848   .     S
O184   C187    1.270   .     A
O184   Cu186   1.845   .     S
Cu185  Cu186   2.648   .     S
C190   C30     1.481   1_565 A
O191   C201    1.272   .     A
O191   Cu199   1.867   .     S
O192   C202    1.271   .     A
O192   Cu199   1.865   .     S
O193   C203    1.272   .     A
O193   Cu199   1.855   .     S
O194   C204    1.270   .     A
O194   Cu199   1.857   .     S
O195   C204    1.270   .     A
O195   Cu200   1.849   .     S
O196   Cu200   1.853   .     S
O196   C203    1.269   .     A
O197   Cu200   1.845   .     S
O197   C202    1.270   .     A
O198   Cu200   1.843   .     S
O198   C201    1.269   .     A
Cu199  Cu200   2.648   .     S
C204   C111    1.480   1_545 S
O205   Cu213   1.857   .     S
O205   C215    1.271   .     A
O206   Cu213   1.855   .     S
O206   C216    1.271   .     A
O207   Cu213   1.852   .     S
O207   C217    1.270   .     A
O208   Cu213   1.853   .     S
O208   C218    1.271   .     A
O209   Cu214   1.858   .     S
O209   C218    1.272   .     A
O210   Cu214   1.859   .     S
O210   C217    1.272   .     A
O211   Cu214   1.852   .     S
O211   C216    1.270   .     A
O212   Cu214   1.851   .     S
O212   C215    1.270   .     A
Cu213  Cu214   2.646   .     S
C216   C95     1.480   1_556 S
C218   C149    1.408   1_556 S
O219   Cu227   1.853   .     S
O219   C229    1.271   .     A
O220   C230    1.270   .     A
O220   Cu227   1.853   .     S
O221   C231    1.271   .     A
O221   Cu227   1.859   .     S
O222   C232    1.270   .     A
O222   Cu227   1.855   .     S
O223   C232    1.271   .     A
O223   Cu228   1.852   .     S
O224   C231    1.270   .     A
O224   Cu228   1.849   .     S
O225   C230    1.270   .     A
O225   Cu228   1.851   .     S
O226   C229    1.270   .     A
O226   Cu228   1.851   .     S
Cu227  Cu228   2.649   .     S
C229   C5      1.479   1_565 A
C231   C57     1.481   1_455 S
O233   C243    1.271   .     A
O233   Cu241   1.854   .     S
O234   Cu241   1.848   .     S
O234   C244    1.271   .     A
O235   C245    1.271   .     A
O235   Cu241   1.853   .     S
O236   C246    1.271   .     A
O236   Cu241   1.859   .     S
O237   Cu242   1.854   .     S
O237   C246    1.272   .     A
O238   Cu242   1.860   .     S
O238   C245    1.271   .     A
O239   Cu242   1.862   .     S
O239   C244    1.272   .     A
O240   C243    1.271   .     A
O240   Cu242   1.858   .     S
Cu241  Cu242   2.642   .     S
C244   C86     1.407   1_655 A
C246   C140    1.409   1_545 S
O247   Cu255   1.862   .     S
O247   C257    1.271   .     A
O248   Cu255   1.862   .     S
O248   C258    1.271   .     A
O249   Cu255   1.856   .     S
O249   C259    1.272   .     A
O250   Cu255   1.857   .     S
O250   C260    1.271   .     A
O251   Cu256   1.855   .     S
O251   C260    1.271   .     A
O252   Cu256   1.858   .     S
O252   C259    1.271   .     A
O253   Cu256   1.847   .     S
O253   C258    1.270   .     A
O254   Cu256   1.847   .     S
O254   C257    1.270   .     A
Cu255  Cu256   2.646   .     S
C258   C147    1.483   1_566 A
C259   C122    1.483   1_566 A
O261   Cu269   1.849   .     S
O261   C271    1.268   .     A
O262   Cu269   1.849   .     S
O262   C272    1.271   .     A
O263   Cu269   1.851   .     S
O263   C273    1.270   .     A
O264   Cu269   1.853   .     S
O264   C274    1.271   .     A
O265   Cu270   1.853   .     S
O265   C274    1.270   .     A
O266   Cu270   1.857   .     S
O266   C273    1.271   .     A
O267   Cu270   1.860   .     S
O267   C272    1.270   .     A
O268   Cu270   1.862   .     S
O268   C271    1.273   .     A
Cu269  Cu270   2.647   .     S
C274   C32     1.481   1_455 S
O275   Cu283   1.850   .     S
O275   C285    1.269   .     A
O276   Cu283   1.853   .     S
O276   C286    1.271   .     A
O277   Cu283   1.853   .     S
O277   C287    1.271   .     A
O278   Cu283   1.856   .     S
O278   C288    1.270   .     A
O279   Cu284   1.846   .     S
O279   C288    1.270   .     A
O280   Cu284   1.849   .     S
O280   C287    1.269   .     A
O281   Cu284   1.855   .     S
O281   C286    1.270   .     A
O282   Cu284   1.857   .     S
O282   C285    1.272   .     A
Cu283  Cu284   2.649   .     S
C288   C113    1.479   1_655 S
N289   N290    1.320   .     A
N289   N293    1.323   .     A
N290   C291    1.348   .     A
C291   C292    1.384   .     A
C292   N293    1.349   .     A
C292   H294    1.082   .     S
N295   N299    1.323   .     A
N295   N296    1.321   .     A
N296   C297    1.348   .     A
C297   C298    1.384   .     A
C298   N299    1.349   .     A
C298   H300    1.082   .     S
N299   C100    1.433   1_545 A
N301   N305    1.323   .     A
N301   N302    1.321   .     A
N302   C303    1.348   .     A
C303   C304    1.383   .     A
C304   N305    1.348   .     A
C304   H306    1.082   .     S
N307   N308    1.321   .     A
N307   N311    1.323   .     A
N308   C309    1.348   .     A
C309   C310    1.385   .     A
C310   H312    1.082   .     S
C310   N311    1.347   .     A
N313   N314    1.321   .     A
N313   N317    1.324   .     A
N314   C315    1.348   .     A
C315   C316    1.384   .     A
C316   N317    1.347   .     A
C316   H318    1.082   .     S
N319   N320    1.321   .     A
N319   N323    1.323   .     A
N320   C321    1.348   .     A
C321   C322    1.383   .     A
C322   N323    1.348   .     A
C322   H324    1.082   .     S
N325   N326    1.321   .     A
N325   N329    1.324   .     A
N326   C327    1.347   .     A
C327   C328    1.384   .     A
C328   H330    1.083   .     S
C328   N329    1.347   .     A
N331   N332    1.321   .     A
N331   N335    1.323   .     A
N332   C333    1.348   .     A
C333   C334    1.383   .     A
C334   N335    1.349   .     A
C334   H336    1.083   .     S
N335   C154    1.433   1_655 A
N337   N341    1.323   .     A
N337   N338    1.321   .     A
N338   C339    1.347   .     A
C339   C340    1.386   .     A
C340   H342    1.082   .     S
C340   N341    1.349   .     A
