data_image0
_cell_length_a       9.3825
_cell_length_b       9.6773
_cell_length_c       21.6939
_cell_angle_alpha    90
_cell_angle_beta     90
_cell_angle_gamma    115.312

_symmetry_space_group_name_H-M    P 1
_symmetry_int_tables_number       1

loop_
  _symmetry_equiv_pos_as_xyz
  'x, y, z'

loop_
  _atom_site_label
  _atom_site_occupancy
  _atom_site_fract_x
  _atom_site_fract_y
  _atom_site_fract_z
  _atom_site_thermal_displace_type
  _atom_site_B_iso_or_equiv
  _atom_site_type_symbol
  La1      1.0000 0.12205  0.36168  0.99143  Biso   1.000  La
  La2      1.0000 0.37795  0.63832  0.49143  Biso   1.000  La
  La3      1.0000 0.87795  0.63832  0.00857  Biso   1.000  La
  La4      1.0000 0.62205  0.36168  0.50857  Biso   1.000  La
  Cu1      1.0000 0.45642  0.30874  0.85610  Biso   1.000  Cu
  Cu2      1.0000 0.04358  0.69126  0.35610  Biso   1.000  Cu
  Cu3      1.0000 0.54358  0.69126  0.14390  Biso   1.000  Cu
  Cu4      1.0000 0.95642  0.30874  0.64390  Biso   1.000  Cu
  H1       1.0000 0.70300  0.20680  0.84650  Biso   1.000  H
  H2       1.0000 0.75590  0.00730  0.87620  Biso   1.000  H
  H3       1.0000 0.56340  0.80290  0.92920  Biso   1.000  H
  H4       1.0000 0.29240  0.02770  0.92740  Biso   1.000  H
  H5       1.0000 0.87800  0.57440  0.65510  Biso   1.000  H
  H6       1.0000 0.84870  0.72130  0.73220  Biso   1.000  H
  H7       1.0000 0.89610  0.67660  0.83410  Biso   1.000  H
  H8       1.0000 0.00230  0.34240  0.77280  Biso   1.000  H
  H9       1.0000 0.79700  0.79320  0.34650  Biso   1.000  H
  H10      1.0000 0.74410  0.99270  0.37620  Biso   1.000  H
  H11      1.0000 0.93660  0.19710  0.42920  Biso   1.000  H
  H12      1.0000 0.20760  0.97230  0.42740  Biso   1.000  H
  H13      1.0000 0.62200  0.42560  0.15510  Biso   1.000  H
  H14      1.0000 0.65130  0.27870  0.23220  Biso   1.000  H
  H15      1.0000 0.60390  0.32340  0.33410  Biso   1.000  H
  H16      1.0000 0.49770  0.65760  0.27280  Biso   1.000  H
  H17      1.0000 0.29700  0.79320  0.15350  Biso   1.000  H
  H18      1.0000 0.24410  0.99270  0.12380  Biso   1.000  H
  H19      1.0000 0.43660  0.19710  0.07080  Biso   1.000  H
  H20      1.0000 0.70760  0.97230  0.07260  Biso   1.000  H
  H21      1.0000 0.12200  0.42560  0.34490  Biso   1.000  H
  H22      1.0000 0.15130  0.27870  0.26780  Biso   1.000  H
  H23      1.0000 0.10390  0.32340  0.16590  Biso   1.000  H
  H24      1.0000 0.99770  0.65760  0.22720  Biso   1.000  H
  H25      1.0000 0.20300  0.20680  0.65350  Biso   1.000  H
  H26      1.0000 0.25590  0.00730  0.62380  Biso   1.000  H
  H27      1.0000 0.06340  0.80290  0.57080  Biso   1.000  H
  H28      1.0000 0.79240  0.02770  0.57260  Biso   1.000  H
  H29      1.0000 0.37800  0.57440  0.84490  Biso   1.000  H
  H30      1.0000 0.34870  0.72130  0.76780  Biso   1.000  H
  H31      1.0000 0.39610  0.67660  0.66590  Biso   1.000  H
  H32      1.0000 0.50230  0.34240  0.72720  Biso   1.000  H
  C1       1.0000 0.62760  0.12790  0.86923  Biso   1.000  C
  C2       1.0000 0.65970  0.00790  0.88600  Biso   1.000  C
  C3       1.0000 0.54590  0.88710  0.91806  Biso   1.000  C
  C4       1.0000 0.40540  0.89380  0.93314  Biso   1.000  C
  C5       1.0000 0.38520  0.02170  0.91604  Biso   1.000  C
  C6       1.0000 0.27590  0.76350  0.96648  Biso   1.000  C
  C7       1.0000 0.89690  0.55530  0.69561  Biso   1.000  C
  C8       1.0000 0.87940  0.64420  0.74160  Biso   1.000  C
  C9       1.0000 0.90800  0.61820  0.80224  Biso   1.000  C
  C10      1.0000 0.95460  0.50310  0.81413  Biso   1.000  C
  C11      1.0000 0.96980  0.41890  0.76481  Biso   1.000  C
  C12      1.0000 0.99250  0.46470  0.87697  Biso   1.000  C
  C13      1.0000 0.50370  0.47680  0.96605  Biso   1.000  C
  C14      1.0000 0.98730  0.99200  0.96426  Biso   1.000  C
  C15      1.0000 0.87240  0.87210  0.36923  Biso   1.000  C
  C16      1.0000 0.84030  0.99210  0.38600  Biso   1.000  C
  C17      1.0000 0.95410  0.11290  0.41806  Biso   1.000  C
  C18      1.0000 0.09460  0.10620  0.43314  Biso   1.000  C
  C19      1.0000 0.11480  0.97830  0.41604  Biso   1.000  C
  C20      1.0000 0.22410  0.23650  0.46648  Biso   1.000  C
  C21      1.0000 0.60310  0.44470  0.19561  Biso   1.000  C
  C22      1.0000 0.62060  0.35580  0.24160  Biso   1.000  C
  C23      1.0000 0.59200  0.38180  0.30224  Biso   1.000  C
  C24      1.0000 0.54540  0.49690  0.31413  Biso   1.000  C
  C25      1.0000 0.53020  0.58110  0.26481  Biso   1.000  C
  C26      1.0000 0.50750  0.53530  0.37697  Biso   1.000  C
  C27      1.0000 0.99630  0.52320  0.46605  Biso   1.000  C
  C28      1.0000 0.51270  0.00800  0.46426  Biso   1.000  C
  C29      1.0000 0.37240  0.87210  0.13077  Biso   1.000  C
  C30      1.0000 0.34030  0.99210  0.11400  Biso   1.000  C
  C31      1.0000 0.45410  0.11290  0.08194  Biso   1.000  C
  C32      1.0000 0.59460  0.10620  0.06686  Biso   1.000  C
  C33      1.0000 0.61480  0.97830  0.08396  Biso   1.000  C
  C34      1.0000 0.72410  0.23650  0.03352  Biso   1.000  C
  C35      1.0000 0.10310  0.44470  0.30439  Biso   1.000  C
  C36      1.0000 0.12060  0.35580  0.25840  Biso   1.000  C
  C37      1.0000 0.09200  0.38180  0.19776  Biso   1.000  C
  C38      1.0000 0.04540  0.49690  0.18587  Biso   1.000  C
  C39      1.0000 0.03020  0.58110  0.23519  Biso   1.000  C
  C40      1.0000 0.00750  0.53530  0.12303  Biso   1.000  C
  C41      1.0000 0.49630  0.52320  0.03395  Biso   1.000  C
  C42      1.0000 0.01270  0.00800  0.03574  Biso   1.000  C
  C43      1.0000 0.12760  0.12790  0.63077  Biso   1.000  C
  C44      1.0000 0.15970  0.00790  0.61400  Biso   1.000  C
  C45      1.0000 0.04590  0.88710  0.58194  Biso   1.000  C
  C46      1.0000 0.90540  0.89380  0.56686  Biso   1.000  C
  C47      1.0000 0.88520  0.02170  0.58396  Biso   1.000  C
  C48      1.0000 0.77590  0.76350  0.53352  Biso   1.000  C
  C49      1.0000 0.39690  0.55530  0.80439  Biso   1.000  C
  C50      1.0000 0.37940  0.64420  0.75840  Biso   1.000  C
  C51      1.0000 0.40800  0.61820  0.69776  Biso   1.000  C
  C52      1.0000 0.45460  0.50310  0.68587  Biso   1.000  C
  C53      1.0000 0.46980  0.41890  0.73519  Biso   1.000  C
  C54      1.0000 0.49250  0.46470  0.62303  Biso   1.000  C
  C55      1.0000 0.00370  0.47680  0.53395  Biso   1.000  C
  C56      1.0000 0.48730  0.99200  0.53574  Biso   1.000  C
  N1       1.0000 0.49330  0.13810  0.88371  Biso   1.000  N
  N2       1.0000 0.93990  0.44240  0.70644  Biso   1.000  N
  N3       1.0000 0.00670  0.86190  0.38371  Biso   1.000  N
  N4       1.0000 0.56010  0.55760  0.20644  Biso   1.000  N
  N5       1.0000 0.50670  0.86190  0.11629  Biso   1.000  N
  N6       1.0000 0.06010  0.55760  0.29356  Biso   1.000  N
  N7       1.0000 0.99330  0.13810  0.61629  Biso   1.000  N
  N8       1.0000 0.43990  0.44240  0.79356  Biso   1.000  N
  O1       1.0000 0.28670  0.63890  0.96719  Biso   1.000  O
  O2       1.0000 0.16750  0.78850  0.98985  Biso   1.000  O
  O3       1.0000 0.06260  0.38080  0.88014  Biso   1.000  O
  O4       1.0000 0.95410  0.51790  0.92365  Biso   1.000  O
  O5       1.0000 0.37610  0.38180  0.94288  Biso   1.000  O
  O6       1.0000 0.63410  0.53550  0.93961  Biso   1.000  O
  O7       1.0000 0.05090  0.11270  0.93386  Biso   1.000  O
  O8       1.0000 0.90670  0.86080  0.94338  Biso   1.000  O
  O9       1.0000 0.21330  0.36110  0.46719  Biso   1.000  O
  O10      1.0000 0.33250  0.21150  0.48985  Biso   1.000  O
  O11      1.0000 0.43740  0.61920  0.38014  Biso   1.000  O
  O12      1.0000 0.54590  0.48210  0.42365  Biso   1.000  O
  O13      1.0000 0.12390  0.61820  0.44288  Biso   1.000  O
  O14      1.0000 0.86590  0.46450  0.43961  Biso   1.000  O
  O15      1.0000 0.44910  0.88730  0.43386  Biso   1.000  O
  O16      1.0000 0.59330  0.13920  0.44338  Biso   1.000  O
  O17      1.0000 0.71330  0.36110  0.03281  Biso   1.000  O
  O18      1.0000 0.83250  0.21150  0.01015  Biso   1.000  O
  O19      1.0000 0.93740  0.61920  0.11986  Biso   1.000  O
  O20      1.0000 0.04590  0.48210  0.07635  Biso   1.000  O
  O21      1.0000 0.62390  0.61820  0.05712  Biso   1.000  O
  O22      1.0000 0.36590  0.46450  0.06039  Biso   1.000  O
  O23      1.0000 0.94910  0.88730  0.06614  Biso   1.000  O
  O24      1.0000 0.09330  0.13920  0.05662  Biso   1.000  O
  O25      1.0000 0.78670  0.63890  0.53281  Biso   1.000  O
  O26      1.0000 0.66750  0.78850  0.51015  Biso   1.000  O
  O27      1.0000 0.56260  0.38080  0.61986  Biso   1.000  O
  O28      1.0000 0.45410  0.51790  0.57635  Biso   1.000  O
  O29      1.0000 0.87610  0.38180  0.55712  Biso   1.000  O
  O30      1.0000 0.13410  0.53550  0.56039  Biso   1.000  O
  O31      1.0000 0.55090  0.11270  0.56614  Biso   1.000  O
  O32      1.0000 0.40670  0.86080  0.55662  Biso   1.000  O
