data_image0
_cell_length_a       11.578
_cell_length_b       11.578
_cell_length_c       15.1063
_cell_angle_alpha    112.533
_cell_angle_beta     112.533
_cell_angle_gamma    90

_symmetry_space_group_name_H-M    P 1
_symmetry_int_tables_number       1

loop_
  _symmetry_equiv_pos_as_xyz
  'x, y, z'

loop_
  _atom_site_label
  _atom_site_occupancy
  _atom_site_fract_x
  _atom_site_fract_y
  _atom_site_fract_z
  _atom_site_thermal_displace_type
  _atom_site_B_iso_or_equiv
  _atom_site_type_symbol
  Y1       1.0000 0.37500  0.12500  0.25000  Biso   1.000  Y
  Y2       1.0000 0.62500  0.87500  0.75000  Biso   1.000  Y
  C1       1.0000 0.57500  0.52880  0.45200  Biso   1.000  C
  C2       1.0000 0.50130  0.41450  0.40300  Biso   1.000  C
  C3       1.0000 0.58030  0.62010  0.54720  Biso   1.000  C
  C4       1.0000 0.37700  0.92320  0.45200  Biso   1.000  C
  C5       1.0000 0.40170  0.98850  0.40300  Biso   1.000  C
  C6       1.0000 0.46690  0.92710  0.54720  Biso   1.000  C
  C7       1.0000 0.02880  0.87700  0.95200  Biso   1.000  C
  C8       1.0000 0.91450  0.90170  0.90300  Biso   1.000  C
  C9       1.0000 0.12010  0.96690  0.04720  Biso   1.000  C
  C10      1.0000 0.42320  0.07500  0.95200  Biso   1.000  C
  C11      1.0000 0.48850  0.00130  0.90300  Biso   1.000  C
  C12      1.0000 0.42710  0.08030  0.04720  Biso   1.000  C
  C13      1.0000 0.42500  0.47120  0.54800  Biso   1.000  C
  C14      1.0000 0.49870  0.58550  0.59700  Biso   1.000  C
  C15      1.0000 0.41970  0.37990  0.45280  Biso   1.000  C
  C16      1.0000 0.62300  0.07680  0.54800  Biso   1.000  C
  C17      1.0000 0.59830  0.01150  0.59700  Biso   1.000  C
  C18      1.0000 0.53310  0.07290  0.45280  Biso   1.000  C
  C19      1.0000 0.97120  0.12300  0.04800  Biso   1.000  C
  C20      1.0000 0.08550  0.09830  0.09700  Biso   1.000  C
  C21      1.0000 0.87990  0.03310  0.95280  Biso   1.000  C
  C22      1.0000 0.57680  0.92500  0.04800  Biso   1.000  C
  C23      1.0000 0.51150  0.99870  0.09700  Biso   1.000  C
  C24      1.0000 0.57290  0.91970  0.95280  Biso   1.000  C
  Cl1      1.0000 0.66444  0.56824  0.39508  Biso   1.000  Cl
  Cl2      1.0000 0.23064  0.82684  0.39508  Biso   1.000  Cl
  Cl3      1.0000 0.06824  0.73064  0.89508  Biso   1.000  Cl
  Cl4      1.0000 0.32684  0.16444  0.89508  Biso   1.000  Cl
  Cl5      1.0000 0.33556  0.43176  0.60492  Biso   1.000  Cl
  Cl6      1.0000 0.76936  0.17316  0.60492  Biso   1.000  Cl
  Cl7      1.0000 0.93176  0.26936  0.10492  Biso   1.000  Cl
  Cl8      1.0000 0.67316  0.83556  0.10492  Biso   1.000  Cl
  O1       1.0000 0.48700  0.32560  0.31480  Biso   1.000  O
  O2       1.0000 0.64880  0.72700  0.59820  Biso   1.000  O
  O3       1.0000 0.32780  0.98920  0.31480  Biso   1.000  O
  O4       1.0000 0.44940  0.87120  0.59820  Biso   1.000  O
  O5       1.0000 0.82560  0.82780  0.81480  Biso   1.000  O
  O6       1.0000 0.22700  0.94940  0.09820  Biso   1.000  O
  O7       1.0000 0.48920  0.98700  0.81480  Biso   1.000  O
  O8       1.0000 0.37120  0.14880  0.09820  Biso   1.000  O
  O9       1.0000 0.51300  0.67440  0.68520  Biso   1.000  O
  O10      1.0000 0.35120  0.27300  0.40180  Biso   1.000  O
  O11      1.0000 0.67220  0.01080  0.68520  Biso   1.000  O
  O12      1.0000 0.55060  0.12880  0.40180  Biso   1.000  O
  O13      1.0000 0.17440  0.17220  0.18520  Biso   1.000  O
  O14      1.0000 0.77300  0.05060  0.90180  Biso   1.000  O
  O15      1.0000 0.51080  0.01300  0.18520  Biso   1.000  O
  O16      1.0000 0.62880  0.85120  0.90180  Biso   1.000  O
