data_image0
_cell_length_a       14.649
_cell_length_b       15.0794
_cell_length_c       29.96
_cell_angle_alpha    87.2789
_cell_angle_beta     84.3911
_cell_angle_gamma    60.9397

_symmetry_space_group_name_H-M    P 1
_symmetry_int_tables_number       1

loop_
  _symmetry_equiv_pos_as_xyz
  'x, y, z'

loop_
  _atom_site_label
  _atom_site_occupancy
  _atom_site_fract_x
  _atom_site_fract_y
  _atom_site_fract_z
  _atom_site_thermal_displace_type
  _atom_site_B_iso_or_equiv
  _atom_site_type_symbol
  Cu1      1.0000 0.22506  0.08238  0.67779  Biso   1.000  Cu
  Cu2      1.0000 0.69256  0.08238  0.82221  Biso   1.000  Cu
  Cu3      1.0000 0.77494  0.91762  0.32221  Biso   1.000  Cu
  Cu4      1.0000 0.30744  0.91762  0.17779  Biso   1.000  Cu
  Cu5      1.0000 0.00000  0.50000  0.50000  Biso   1.000  Cu
  Cu6      1.0000 0.50000  0.50000  0.00000  Biso   1.000  Cu
  H1       1.0000 0.03150  0.38240  0.59600  Biso   1.000  H
  H2       1.0000 0.80390  0.46100  0.51980  Biso   1.000  H
  H3       1.0000 0.69540  0.41840  0.61680  Biso   1.000  H
  H4       1.0000 0.69440  0.39580  0.56630  Biso   1.000  H
  H5       1.0000 0.82280  0.24460  0.62670  Biso   1.000  H
  H6       1.0000 0.71680  0.25520  0.61370  Biso   1.000  H
  H7       1.0000 0.78740  0.17860  0.54770  Biso   1.000  H
  H8       1.0000 0.86260  0.22580  0.54040  Biso   1.000  H
  H9       1.0000 0.95470  0.04240  0.55270  Biso   1.000  H
  H10      1.0000 0.90270  0.06300  0.60220  Biso   1.000  H
  H11      1.0000 0.01970  0.07960  0.65700  Biso   1.000  H
  H12      1.0000 0.18880  0.15460  0.57210  Biso   1.000  H
  H13      1.0000 0.03530  0.27080  0.49790  Biso   1.000  H
  H14      1.0000 0.17900  0.38360  0.41860  Biso   1.000  H
  H15      1.0000 0.09580  0.10360  0.45330  Biso   1.000  H
  H16      1.0000 0.16790  0.08960  0.40900  Biso   1.000  H
  H17      1.0000 0.26150  0.96100  0.45730  Biso   1.000  H
  H18      1.0000 0.23580  0.03800  0.49580  Biso   1.000  H
  H19      1.0000 0.41080  0.96840  0.46730  Biso   1.000  H
  H20      1.0000 0.35270  0.08680  0.46220  Biso   1.000  H
  H21      1.0000 0.39330  0.95160  0.39230  Biso   1.000  H
  H22      1.0000 0.33500  0.07020  0.38720  Biso   1.000  H
  H23      1.0000 0.58470  0.87860  0.35890  Biso   1.000  H
  H24      1.0000 0.63490  0.09500  0.39340  Biso   1.000  H
  H25      1.0000 0.30200  0.14140  0.76480  Biso   1.000  H
  H26      1.0000 0.39590  0.87380  0.71710  Biso   1.000  H
  H27      1.0000 0.55750  0.83880  0.81110  Biso   1.000  H
  H28      1.0000 0.47530  0.80020  0.81500  Biso   1.000  H
  H29      1.0000 0.54020  0.73500  0.74180  Biso   1.000  H
  H30      1.0000 0.60960  0.67720  0.78070  Biso   1.000  H
  H31      1.0000 0.10330  0.03920  0.76360  Biso   1.000  H
  H32      1.0000 0.04070  0.29680  0.70920  Biso   1.000  H
  H33      1.0000 0.92790  0.39500  0.79880  Biso   1.000  H
  H34      1.0000 0.84460  0.35720  0.80480  Biso   1.000  H
  H35      1.0000 0.87370  0.41040  0.71870  Biso   1.000  H
  H36      1.0000 0.82640  0.50240  0.75250  Biso   1.000  H
  H37      1.0000 0.58610  0.38240  0.90400  Biso   1.000  H
  H38      1.0000 0.73510  0.46100  0.98020  Biso   1.000  H
  H39      1.0000 0.88620  0.41840  0.88320  Biso   1.000  H
  H40      1.0000 0.90980  0.39580  0.93370  Biso   1.000  H
  H41      1.0000 0.93260  0.24460  0.87330  Biso   1.000  H
  H42      1.0000 0.02800  0.25520  0.88630  Biso   1.000  H
  H43      1.0000 0.03400  0.17860  0.95230  Biso   1.000  H
  H44      1.0000 0.91160  0.22580  0.95960  Biso   1.000  H
  H45      1.0000 0.00290  0.04240  0.94730  Biso   1.000  H
  H46      1.0000 0.03430  0.06300  0.89780  Biso   1.000  H
  H47      1.0000 0.90070  0.07960  0.84300  Biso   1.000  H
  H48      1.0000 0.65660  0.15460  0.92790  Biso   1.000  H
  H49      1.0000 0.69390  0.27080  0.00210  Biso   1.000  H
  H50      1.0000 0.43740  0.38360  0.08140  Biso   1.000  H
  H51      1.0000 0.80060  0.10360  0.04670  Biso   1.000  H
  H52      1.0000 0.74250  0.08960  0.09100  Biso   1.000  H
  H53      1.0000 0.77750  0.96100  0.04270  Biso   1.000  H
  H54      1.0000 0.72620  0.03800  0.00420  Biso   1.000  H
  H55      1.0000 0.62080  0.96840  0.03270  Biso   1.000  H
  H56      1.0000 0.56050  0.08680  0.03780  Biso   1.000  H
  H57      1.0000 0.65510  0.95160  0.10770  Biso   1.000  H
  H58      1.0000 0.59480  0.07020  0.11280  Biso   1.000  H
  H59      1.0000 0.53670  0.87860  0.14110  Biso   1.000  H
  H60      1.0000 0.27010  0.09500  0.10660  Biso   1.000  H
  H61      1.0000 0.55660  0.14140  0.73520  Biso   1.000  H
  H62      1.0000 0.73030  0.87380  0.78290  Biso   1.000  H
  H63      1.0000 0.60370  0.83880  0.68890  Biso   1.000  H
  H64      1.0000 0.72450  0.80020  0.68500  Biso   1.000  H
  H65      1.0000 0.72480  0.73500  0.75820  Biso   1.000  H
  H66      1.0000 0.71320  0.67720  0.71930  Biso   1.000  H
  H67      1.0000 0.85750  0.03920  0.73640  Biso   1.000  H
  H68      1.0000 0.66250  0.29680  0.79080  Biso   1.000  H
  H69      1.0000 0.67710  0.39500  0.70120  Biso   1.000  H
  H70      1.0000 0.79820  0.35720  0.69520  Biso   1.000  H
  H71      1.0000 0.71590  0.41040  0.78130  Biso   1.000  H
  H72      1.0000 0.67120  0.50240  0.74750  Biso   1.000  H
  H73      1.0000 0.96850  0.61760  0.40400  Biso   1.000  H
  H74      1.0000 0.19610  0.53900  0.48020  Biso   1.000  H
  H75      1.0000 0.30460  0.58160  0.38320  Biso   1.000  H
  H76      1.0000 0.30560  0.60420  0.43370  Biso   1.000  H
  H77      1.0000 0.17720  0.75540  0.37330  Biso   1.000  H
  H78      1.0000 0.28320  0.74480  0.38630  Biso   1.000  H
  H79      1.0000 0.21260  0.82140  0.45230  Biso   1.000  H
  H80      1.0000 0.13740  0.77420  0.45960  Biso   1.000  H
  H81      1.0000 0.04530  0.95760  0.44730  Biso   1.000  H
  H82      1.0000 0.09730  0.93700  0.39780  Biso   1.000  H
  H83      1.0000 0.98030  0.92040  0.34300  Biso   1.000  H
  H84      1.0000 0.81120  0.84540  0.42790  Biso   1.000  H
  H85      1.0000 0.96470  0.72920  0.50210  Biso   1.000  H
  H86      1.0000 0.82100  0.61640  0.58140  Biso   1.000  H
  H87      1.0000 0.90420  0.89640  0.54670  Biso   1.000  H
  H88      1.0000 0.83210  0.91040  0.59100  Biso   1.000  H
  H89      1.0000 0.73850  0.03900  0.54270  Biso   1.000  H
  H90      1.0000 0.76420  0.96200  0.50420  Biso   1.000  H
  H91      1.0000 0.58920  0.03160  0.53270  Biso   1.000  H
  H92      1.0000 0.64730  0.91320  0.53780  Biso   1.000  H
  H93      1.0000 0.60670  0.04840  0.60770  Biso   1.000  H
  H94      1.0000 0.66500  0.92980  0.61280  Biso   1.000  H
  H95      1.0000 0.41530  0.12140  0.64110  Biso   1.000  H
  H96      1.0000 0.36510  0.90500  0.60660  Biso   1.000  H
  H97      1.0000 0.69800  0.85860  0.23520  Biso   1.000  H
  H98      1.0000 0.60410  0.12620  0.28290  Biso   1.000  H
  H99      1.0000 0.44250  0.16120  0.18890  Biso   1.000  H
  H100     1.0000 0.52470  0.19980  0.18500  Biso   1.000  H
  H101     1.0000 0.45980  0.26500  0.25820  Biso   1.000  H
  H102     1.0000 0.39040  0.32280  0.21930  Biso   1.000  H
  H103     1.0000 0.89670  0.96080  0.23640  Biso   1.000  H
  H104     1.0000 0.95930  0.70320  0.29080  Biso   1.000  H
  H105     1.0000 0.07210  0.60500  0.20120  Biso   1.000  H
  H106     1.0000 0.15540  0.64280  0.19520  Biso   1.000  H
  H107     1.0000 0.12630  0.58960  0.28130  Biso   1.000  H
  H108     1.0000 0.17360  0.49760  0.24750  Biso   1.000  H
  H109     1.0000 0.41390  0.61760  0.09600  Biso   1.000  H
  H110     1.0000 0.26490  0.53900  0.01980  Biso   1.000  H
  H111     1.0000 0.11380  0.58160  0.11680  Biso   1.000  H
  H112     1.0000 0.09020  0.60420  0.06630  Biso   1.000  H
  H113     1.0000 0.06740  0.75540  0.12670  Biso   1.000  H
  H114     1.0000 0.97200  0.74480  0.11370  Biso   1.000  H
  H115     1.0000 0.96600  0.82140  0.04770  Biso   1.000  H
  H116     1.0000 0.08840  0.77420  0.04040  Biso   1.000  H
  H117     1.0000 0.99710  0.95760  0.05270  Biso   1.000  H
  H118     1.0000 0.96570  0.93700  0.10220  Biso   1.000  H
  H119     1.0000 0.09930  0.92040  0.15700  Biso   1.000  H
  H120     1.0000 0.34340  0.84540  0.07210  Biso   1.000  H
  H121     1.0000 0.30610  0.72920  0.99790  Biso   1.000  H
  H122     1.0000 0.56260  0.61640  0.91860  Biso   1.000  H
  H123     1.0000 0.19940  0.89640  0.95330  Biso   1.000  H
  H124     1.0000 0.25750  0.91040  0.90900  Biso   1.000  H
  H125     1.0000 0.22250  0.03900  0.95730  Biso   1.000  H
  H126     1.0000 0.27380  0.96200  0.99580  Biso   1.000  H
  H127     1.0000 0.37920  0.03160  0.96730  Biso   1.000  H
  H128     1.0000 0.43950  0.91320  0.96220  Biso   1.000  H
  H129     1.0000 0.34490  0.04840  0.89230  Biso   1.000  H
  H130     1.0000 0.40520  0.92980  0.88720  Biso   1.000  H
  H131     1.0000 0.46330  0.12140  0.85890  Biso   1.000  H
  H132     1.0000 0.72990  0.90500  0.89340  Biso   1.000  H
  H133     1.0000 0.44340  0.85860  0.26480  Biso   1.000  H
  H134     1.0000 0.26970  0.12620  0.21710  Biso   1.000  H
  H135     1.0000 0.39630  0.16120  0.31110  Biso   1.000  H
  H136     1.0000 0.27550  0.19980  0.31500  Biso   1.000  H
  H137     1.0000 0.27520  0.26500  0.24180  Biso   1.000  H
  H138     1.0000 0.28680  0.32280  0.28070  Biso   1.000  H
  H139     1.0000 0.14250  0.96080  0.26360  Biso   1.000  H
  H140     1.0000 0.33750  0.70320  0.20920  Biso   1.000  H
  H141     1.0000 0.32290  0.60500  0.29880  Biso   1.000  H
  H142     1.0000 0.20180  0.64280  0.30480  Biso   1.000  H
  H143     1.0000 0.28410  0.58960  0.21870  Biso   1.000  H
  H144     1.0000 0.32880  0.49760  0.25250  Biso   1.000  H
  C1       1.0000 0.96890  0.39340  0.58570  Biso   1.000  C
  C2       1.0000 0.84640  0.43640  0.54350  Biso   1.000  C
  C3       1.0000 0.73780  0.37660  0.59130  Biso   1.000  C
  C4       1.0000 0.77650  0.26400  0.60280  Biso   1.000  C
  C5       1.0000 0.83560  0.19260  0.56210  Biso   1.000  C
  C6       1.0000 0.92810  0.09080  0.57720  Biso   1.000  C
  C7       1.0000 0.04740  0.09680  0.63090  Biso   1.000  C
  C8       1.0000 0.13780  0.13820  0.58410  Biso   1.000  C
  C9       1.0000 0.07750  0.27980  0.47490  Biso   1.000  C
  C10      1.0000 0.15670  0.33940  0.43160  Biso   1.000  C
  C11      1.0000 0.15790  0.10640  0.44060  Biso   1.000  C
  C12      1.0000 0.25240  0.02740  0.46370  Biso   1.000  C
  C13      1.0000 0.35720  0.02460  0.45180  Biso   1.000  C
  C14      1.0000 0.38820  0.01380  0.40280  Biso   1.000  C
  C15      1.0000 0.57670  0.93900  0.36970  Biso   1.000  C
  C16      1.0000 0.60100  0.05840  0.38840  Biso   1.000  C
  C17      1.0000 0.33820  0.07120  0.76110  Biso   1.000  C
  C18      1.0000 0.38700  0.92700  0.73470  Biso   1.000  C
  C19      1.0000 0.51440  0.82280  0.79390  Biso   1.000  C
  C20      1.0000 0.58340  0.73920  0.76330  Biso   1.000  C
  C21      1.0000 0.07180  0.10860  0.75830  Biso   1.000  C
  C22      1.0000 0.03940  0.24680  0.72820  Biso   1.000  C
  C23      1.0000 0.89330  0.36620  0.78330  Biso   1.000  C
  C24      1.0000 0.83660  0.43480  0.74790  Biso   1.000  C
  C25      1.0000 0.63770  0.39340  0.91430  Biso   1.000  C
  C26      1.0000 0.71720  0.43640  0.95650  Biso   1.000  C
  C27      1.0000 0.88560  0.37660  0.90870  Biso   1.000  C
  C28      1.0000 0.95950  0.26400  0.89720  Biso   1.000  C
  C29      1.0000 0.97180  0.19260  0.93790  Biso   1.000  C
  C30      1.0000 0.98110  0.09080  0.92280  Biso   1.000  C
  C31      1.0000 0.85580  0.09680  0.86910  Biso   1.000  C
  C32      1.0000 0.72400  0.13820  0.91590  Biso   1.000  C
  C33      1.0000 0.64270  0.27980  0.02510  Biso   1.000  C
  C34      1.0000 0.50390  0.33940  0.06840  Biso   1.000  C
  C35      1.0000 0.73570  0.10640  0.05940  Biso   1.000  C
  C36      1.0000 0.72020  0.02740  0.03630  Biso   1.000  C
  C37      1.0000 0.61820  0.02460  0.04820  Biso   1.000  C
  C38      1.0000 0.59800  0.01380  0.09720  Biso   1.000  C
  C39      1.0000 0.48430  0.93900  0.13030  Biso   1.000  C
  C40      1.0000 0.34060  0.05840  0.11160  Biso   1.000  C
  C41      1.0000 0.59060  0.07120  0.73890  Biso   1.000  C
  C42      1.0000 0.68600  0.92700  0.76530  Biso   1.000  C
  C43      1.0000 0.66280  0.82280  0.70610  Biso   1.000  C
  C44      1.0000 0.67740  0.73920  0.73670  Biso   1.000  C
  C45      1.0000 0.81960  0.10860  0.74170  Biso   1.000  C
  C46      1.0000 0.71380  0.24680  0.77180  Biso   1.000  C
  C47      1.0000 0.74050  0.36620  0.71670  Biso   1.000  C
  C48      1.0000 0.72860  0.43480  0.75210  Biso   1.000  C
  C49      1.0000 0.03110  0.60660  0.41430  Biso   1.000  C
  C50      1.0000 0.15360  0.56360  0.45650  Biso   1.000  C
  C51      1.0000 0.26220  0.62340  0.40870  Biso   1.000  C
  C52      1.0000 0.22350  0.73600  0.39720  Biso   1.000  C
  C53      1.0000 0.16440  0.80740  0.43790  Biso   1.000  C
  C54      1.0000 0.07190  0.90920  0.42280  Biso   1.000  C
  C55      1.0000 0.95260  0.90320  0.36910  Biso   1.000  C
  C56      1.0000 0.86220  0.86180  0.41590  Biso   1.000  C
  C57      1.0000 0.92250  0.72020  0.52510  Biso   1.000  C
  C58      1.0000 0.84330  0.66060  0.56840  Biso   1.000  C
  C59      1.0000 0.84210  0.89360  0.55940  Biso   1.000  C
  C60      1.0000 0.74760  0.97260  0.53630  Biso   1.000  C
  C61      1.0000 0.64280  0.97540  0.54820  Biso   1.000  C
  C62      1.0000 0.61180  0.98620  0.59720  Biso   1.000  C
  C63      1.0000 0.42330  0.06100  0.63030  Biso   1.000  C
  C64      1.0000 0.39900  0.94160  0.61160  Biso   1.000  C
  C65      1.0000 0.66180  0.92880  0.23890  Biso   1.000  C
  C66      1.0000 0.61300  0.07300  0.26530  Biso   1.000  C
  C67      1.0000 0.48560  0.17720  0.20610  Biso   1.000  C
  C68      1.0000 0.41660  0.26080  0.23670  Biso   1.000  C
  C69      1.0000 0.92820  0.89140  0.24170  Biso   1.000  C
  C70      1.0000 0.96060  0.75320  0.27180  Biso   1.000  C
  C71      1.0000 0.10670  0.63380  0.21670  Biso   1.000  C
  C72      1.0000 0.16340  0.56520  0.25210  Biso   1.000  C
  C73      1.0000 0.36230  0.60660  0.08570  Biso   1.000  C
  C74      1.0000 0.28280  0.56360  0.04350  Biso   1.000  C
  C75      1.0000 0.11440  0.62340  0.09130  Biso   1.000  C
  C76      1.0000 0.04050  0.73600  0.10280  Biso   1.000  C
  C77      1.0000 0.02820  0.80740  0.06210  Biso   1.000  C
  C78      1.0000 0.01890  0.90920  0.07720  Biso   1.000  C
  C79      1.0000 0.14420  0.90320  0.13090  Biso   1.000  C
  C80      1.0000 0.27600  0.86180  0.08410  Biso   1.000  C
  C81      1.0000 0.35730  0.72020  0.97490  Biso   1.000  C
  C82      1.0000 0.49610  0.66060  0.93160  Biso   1.000  C
  C83      1.0000 0.26430  0.89360  0.94060  Biso   1.000  C
  C84      1.0000 0.27980  0.97260  0.96370  Biso   1.000  C
  C85      1.0000 0.38180  0.97540  0.95180  Biso   1.000  C
  C86      1.0000 0.40200  0.98620  0.90280  Biso   1.000  C
  C87      1.0000 0.51570  0.06100  0.86970  Biso   1.000  C
  C88      1.0000 0.65940  0.94160  0.88840  Biso   1.000  C
  C89      1.0000 0.40940  0.92880  0.26110  Biso   1.000  C
  C90      1.0000 0.31400  0.07300  0.23470  Biso   1.000  C
  C91      1.0000 0.33720  0.17720  0.29390  Biso   1.000  C
  C92      1.0000 0.32260  0.26080  0.26330  Biso   1.000  C
  C93      1.0000 0.18040  0.89140  0.25830  Biso   1.000  C
  C94      1.0000 0.28620  0.75320  0.22820  Biso   1.000  C
  C95      1.0000 0.25950  0.63380  0.28330  Biso   1.000  C
  C96      1.0000 0.27140  0.56520  0.24790  Biso   1.000  C
  N1       1.0000 0.93510  0.44000  0.54510  Biso   1.000  N
  N2       1.0000 0.90510  0.36580  0.60850  Biso   1.000  N
  N3       1.0000 0.82660  0.39380  0.57960  Biso   1.000  N
  N4       1.0000 0.01310  0.10560  0.59080  Biso   1.000  N
  N5       1.0000 0.06990  0.13500  0.55980  Biso   1.000  N
  N6       1.0000 0.12800  0.11580  0.62830  Biso   1.000  N
  N7       1.0000 0.08230  0.36560  0.46790  Biso   1.000  N
  N8       1.0000 0.19390  0.24360  0.41690  Biso   1.000  N
  N9       1.0000 0.14090  0.20840  0.44500  Biso   1.000  N
  N10      1.0000 0.49080  0.01160  0.39270  Biso   1.000  N
  N11      1.0000 0.50480  0.08860  0.40300  Biso   1.000  N
  N12      1.0000 0.64920  0.97120  0.36550  Biso   1.000  N
  N13      1.0000 0.32190  0.02600  0.72840  Biso   1.000  N
  N14      1.0000 0.40960  0.01000  0.78840  Biso   1.000  N
  N15      1.0000 0.43720  0.91920  0.77150  Biso   1.000  N
  N16      1.0000 0.10310  0.15000  0.72290  Biso   1.000  N
  N17      1.0000 0.99170  0.17660  0.78460  Biso   1.000  N
  N18      1.0000 0.97340  0.26500  0.76350  Biso   1.000  N
  N19      1.0000 0.62490  0.44000  0.95490  Biso   1.000  N
  N20      1.0000 0.72910  0.36580  0.89150  Biso   1.000  N
  N21      1.0000 0.77960  0.39380  0.92040  Biso   1.000  N
  N22      1.0000 0.88130  0.10560  0.90920  Biso   1.000  N
  N23      1.0000 0.79510  0.13500  0.94020  Biso   1.000  N
  N24      1.0000 0.75620  0.11580  0.87170  Biso   1.000  N
  N25      1.0000 0.55210  0.36560  0.03210  Biso   1.000  N
  N26      1.0000 0.56250  0.24360  0.08310  Biso   1.000  N
  N27      1.0000 0.65070  0.20840  0.05500  Biso   1.000  N
  N28      1.0000 0.49760  0.01160  0.10730  Biso   1.000  N
  N29      1.0000 0.40660  0.08860  0.09700  Biso   1.000  N
  N30      1.0000 0.37960  0.97120  0.13450  Biso   1.000  N
  N31      1.0000 0.65210  0.02600  0.77160  Biso   1.000  N
  N32      1.0000 0.58040  0.01000  0.71160  Biso   1.000  N
  N33      1.0000 0.64360  0.91920  0.72850  Biso   1.000  N
  N34      1.0000 0.74690  0.15000  0.77710  Biso   1.000  N
  N35      1.0000 0.83170  0.17660  0.71540  Biso   1.000  N
  N36      1.0000 0.76160  0.26500  0.73650  Biso   1.000  N
  N37      1.0000 0.06490  0.56000  0.45490  Biso   1.000  N
  N38      1.0000 0.09490  0.63420  0.39150  Biso   1.000  N
  N39      1.0000 0.17340  0.60620  0.42040  Biso   1.000  N
  N40      1.0000 0.98690  0.89440  0.40920  Biso   1.000  N
  N41      1.0000 0.93010  0.86500  0.44020  Biso   1.000  N
  N42      1.0000 0.87200  0.88420  0.37170  Biso   1.000  N
  N43      1.0000 0.91770  0.63440  0.53210  Biso   1.000  N
  N44      1.0000 0.80610  0.75640  0.58310  Biso   1.000  N
  N45      1.0000 0.85910  0.79160  0.55500  Biso   1.000  N
  N46      1.0000 0.50920  0.98840  0.60730  Biso   1.000  N
  N47      1.0000 0.49520  0.91140  0.59700  Biso   1.000  N
  N48      1.0000 0.35080  0.02880  0.63450  Biso   1.000  N
  N49      1.0000 0.67810  0.97400  0.27160  Biso   1.000  N
  N50      1.0000 0.59040  0.99000  0.21160  Biso   1.000  N
  N51      1.0000 0.56280  0.08080  0.22850  Biso   1.000  N
  N52      1.0000 0.89690  0.85000  0.27710  Biso   1.000  N
  N53      1.0000 0.00830  0.82340  0.21540  Biso   1.000  N
  N54      1.0000 0.02660  0.73500  0.23650  Biso   1.000  N
  N55      1.0000 0.37510  0.56000  0.04510  Biso   1.000  N
  N56      1.0000 0.27090  0.63420  0.10850  Biso   1.000  N
  N57      1.0000 0.22040  0.60620  0.07960  Biso   1.000  N
  N58      1.0000 0.11870  0.89440  0.09080  Biso   1.000  N
  N59      1.0000 0.20490  0.86500  0.05980  Biso   1.000  N
  N60      1.0000 0.24380  0.88420  0.12830  Biso   1.000  N
  N61      1.0000 0.44790  0.63440  0.96790  Biso   1.000  N
  N62      1.0000 0.43750  0.75640  0.91690  Biso   1.000  N
  N63      1.0000 0.34930  0.79160  0.94500  Biso   1.000  N
  N64      1.0000 0.50240  0.98840  0.89270  Biso   1.000  N
  N65      1.0000 0.59340  0.91140  0.90300  Biso   1.000  N
  N66      1.0000 0.62040  0.02880  0.86550  Biso   1.000  N
  N67      1.0000 0.34790  0.97400  0.22840  Biso   1.000  N
  N68      1.0000 0.41960  0.99000  0.28840  Biso   1.000  N
  N69      1.0000 0.35640  0.08080  0.27150  Biso   1.000  N
  N70      1.0000 0.25310  0.85000  0.22290  Biso   1.000  N
  N71      1.0000 0.16830  0.82340  0.28460  Biso   1.000  N
  N72      1.0000 0.23840  0.73500  0.26350  Biso   1.000  N
