data_image0
_cell_length_a       6.722
_cell_length_b       14.239
_cell_length_c       22.88
_cell_angle_alpha    90
_cell_angle_beta     90
_cell_angle_gamma    90

_symmetry_space_group_name_H-M    P 1
_symmetry_int_tables_number       1

loop_
  _symmetry_equiv_pos_as_xyz
  'x, y, z'

loop_
  _atom_site_label
  _atom_site_occupancy
  _atom_site_fract_x
  _atom_site_fract_y
  _atom_site_fract_z
  _atom_site_thermal_displace_type
  _atom_site_B_iso_or_equiv
  _atom_site_type_symbol
  Tb1      1.0000 0.75000  0.95243  0.64044  Biso   1.000  Tb
  Tb2      1.0000 0.25000  0.54757  0.14044  Biso   1.000  Tb
  Tb3      1.0000 0.25000  0.04757  0.35956  Biso   1.000  Tb
  Tb4      1.0000 0.75000  0.45243  0.85956  Biso   1.000  Tb
  H1       1.0000 0.75000  0.98730  0.79470  Biso   1.000  H
  H2       1.0000 0.75000  0.90740  0.88160  Biso   1.000  H
  H3       1.0000 0.75000  0.74790  0.88310  Biso   1.000  H
  H4       1.0000 0.75000  0.76920  0.53540  Biso   1.000  H
  H5       1.0000 0.75000  0.73880  0.43740  Biso   1.000  H
  H6       1.0000 0.75000  0.86220  0.37120  Biso   1.000  H
  H7       1.0000 0.25000  0.51270  0.29470  Biso   1.000  H
  H8       1.0000 0.25000  0.59260  0.38160  Biso   1.000  H
  H9       1.0000 0.25000  0.75210  0.38310  Biso   1.000  H
  H10      1.0000 0.25000  0.73080  0.03540  Biso   1.000  H
  H11      1.0000 0.25000  0.76120  0.93740  Biso   1.000  H
  H12      1.0000 0.25000  0.63780  0.87120  Biso   1.000  H
  H13      1.0000 0.25000  0.01270  0.20530  Biso   1.000  H
  H14      1.0000 0.25000  0.09260  0.11840  Biso   1.000  H
  H15      1.0000 0.25000  0.25210  0.11690  Biso   1.000  H
  H16      1.0000 0.25000  0.23080  0.46460  Biso   1.000  H
  H17      1.0000 0.25000  0.26120  0.56260  Biso   1.000  H
  H18      1.0000 0.25000  0.13780  0.62880  Biso   1.000  H
  H19      1.0000 0.75000  0.48730  0.70530  Biso   1.000  H
  H20      1.0000 0.75000  0.40740  0.61840  Biso   1.000  H
  H21      1.0000 0.75000  0.24790  0.61690  Biso   1.000  H
  H22      1.0000 0.75000  0.26920  0.96460  Biso   1.000  H
  H23      1.0000 0.75000  0.23880  0.06260  Biso   1.000  H
  H24      1.0000 0.75000  0.36220  0.12880  Biso   1.000  H
  C1       1.0000 0.75000  0.92200  0.79430  Biso   1.000  C
  C2       1.0000 0.75000  0.87410  0.84670  Biso   1.000  C
  C3       1.0000 0.75000  0.78000  0.84770  Biso   1.000  C
  C4       1.0000 0.75000  0.73020  0.79470  Biso   1.000  C
  C5       1.0000 0.75000  0.62320  0.79720  Biso   1.000  C
  C6       1.0000 0.75000  0.78080  0.74260  Biso   1.000  C
  C7       1.0000 0.75000  0.73470  0.68370  Biso   1.000  C
  C8       1.0000 0.75000  0.81950  0.50950  Biso   1.000  C
  C9       1.0000 0.75000  0.80060  0.45060  Biso   1.000  C
  C10      1.0000 0.75000  0.87390  0.41120  Biso   1.000  C
  C11      1.0000 0.75000  0.96650  0.43250  Biso   1.000  C
  C12      1.0000 0.75000  0.04550  0.38880  Biso   1.000  C
  C13      1.0000 0.75000  0.97960  0.49340  Biso   1.000  C
  C14      1.0000 0.75000  0.07650  0.52060  Biso   1.000  C
  C15      1.0000 0.25000  0.57800  0.29430  Biso   1.000  C
  C16      1.0000 0.25000  0.62590  0.34670  Biso   1.000  C
  C17      1.0000 0.25000  0.72000  0.34770  Biso   1.000  C
  C18      1.0000 0.25000  0.76980  0.29470  Biso   1.000  C
  C19      1.0000 0.25000  0.87680  0.29720  Biso   1.000  C
  C20      1.0000 0.25000  0.71920  0.24260  Biso   1.000  C
  C21      1.0000 0.25000  0.76530  0.18370  Biso   1.000  C
  C22      1.0000 0.25000  0.68050  0.00950  Biso   1.000  C
  C23      1.0000 0.25000  0.69940  0.95060  Biso   1.000  C
  C24      1.0000 0.25000  0.62610  0.91120  Biso   1.000  C
  C25      1.0000 0.25000  0.53350  0.93250  Biso   1.000  C
  C26      1.0000 0.25000  0.45450  0.88880  Biso   1.000  C
  C27      1.0000 0.25000  0.52040  0.99340  Biso   1.000  C
  C28      1.0000 0.25000  0.42350  0.02060  Biso   1.000  C
  C29      1.0000 0.25000  0.07800  0.20570  Biso   1.000  C
  C30      1.0000 0.25000  0.12590  0.15330  Biso   1.000  C
  C31      1.0000 0.25000  0.22000  0.15230  Biso   1.000  C
  C32      1.0000 0.25000  0.26980  0.20530  Biso   1.000  C
  C33      1.0000 0.25000  0.37680  0.20280  Biso   1.000  C
  C34      1.0000 0.25000  0.21920  0.25740  Biso   1.000  C
  C35      1.0000 0.25000  0.26530  0.31630  Biso   1.000  C
  C36      1.0000 0.25000  0.18050  0.49050  Biso   1.000  C
  C37      1.0000 0.25000  0.19940  0.54940  Biso   1.000  C
  C38      1.0000 0.25000  0.12610  0.58880  Biso   1.000  C
  C39      1.0000 0.25000  0.03350  0.56750  Biso   1.000  C
  C40      1.0000 0.25000  0.95450  0.61120  Biso   1.000  C
  C41      1.0000 0.25000  0.02040  0.50660  Biso   1.000  C
  C42      1.0000 0.25000  0.92350  0.47940  Biso   1.000  C
  C43      1.0000 0.75000  0.42200  0.70570  Biso   1.000  C
  C44      1.0000 0.75000  0.37410  0.65330  Biso   1.000  C
  C45      1.0000 0.75000  0.28000  0.65230  Biso   1.000  C
  C46      1.0000 0.75000  0.23020  0.70530  Biso   1.000  C
  C47      1.0000 0.75000  0.12320  0.70280  Biso   1.000  C
  C48      1.0000 0.75000  0.28080  0.75740  Biso   1.000  C
  C49      1.0000 0.75000  0.23470  0.81630  Biso   1.000  C
  C50      1.0000 0.75000  0.31950  0.99050  Biso   1.000  C
  C51      1.0000 0.75000  0.30060  0.04940  Biso   1.000  C
  C52      1.0000 0.75000  0.37390  0.08880  Biso   1.000  C
  C53      1.0000 0.75000  0.46650  0.06750  Biso   1.000  C
  C54      1.0000 0.75000  0.54550  0.11120  Biso   1.000  C
  C55      1.0000 0.75000  0.47960  0.00660  Biso   1.000  C
  C56      1.0000 0.75000  0.57650  0.97940  Biso   1.000  C
  N1       1.0000 0.75000  0.87570  0.74130  Biso   1.000  N
  N2       1.0000 0.75000  0.90660  0.53130  Biso   1.000  N
  N3       1.0000 0.25000  0.62430  0.24130  Biso   1.000  N
  N4       1.0000 0.25000  0.59340  0.03130  Biso   1.000  N
  N5       1.0000 0.25000  0.12430  0.25870  Biso   1.000  N
  N6       1.0000 0.25000  0.09340  0.46870  Biso   1.000  N
  N7       1.0000 0.75000  0.37570  0.75870  Biso   1.000  N
  N8       1.0000 0.75000  0.40660  0.96870  Biso   1.000  N
  O1       1.0000 0.91300  0.58020  0.80339  Biso   1.000  O
  O2       1.0000 0.91550  0.07550  0.37073  Biso   1.000  O
  O3       1.0000 0.08700  0.91980  0.30339  Biso   1.000  O
  O4       1.0000 0.08450  0.42450  0.87073  Biso   1.000  O
  O5       1.0000 0.41300  0.41980  0.19661  Biso   1.000  O
  O6       1.0000 0.41550  0.92450  0.62927  Biso   1.000  O
  O7       1.0000 0.58700  0.08020  0.69661  Biso   1.000  O
  O8       1.0000 0.58450  0.57550  0.12927  Biso   1.000  O
  O9       1.0000 0.08700  0.41980  0.19661  Biso   1.000  O
  O10      1.0000 0.08450  0.92450  0.62927  Biso   1.000  O
  O11      1.0000 0.91300  0.08020  0.69661  Biso   1.000  O
  O12      1.0000 0.91550  0.57550  0.12927  Biso   1.000  O
  O13      1.0000 0.58700  0.58020  0.80339  Biso   1.000  O
  O14      1.0000 0.58450  0.07550  0.37073  Biso   1.000  O
  O15      1.0000 0.41300  0.91980  0.30339  Biso   1.000  O
  O16      1.0000 0.41550  0.42450  0.87073  Biso   1.000  O
  O17      1.0000 0.75000  0.78880  0.64020  Biso   1.000  O
  O18      1.0000 0.75000  0.64710  0.68100  Biso   1.000  O
  O19      1.0000 0.75000  0.07790  0.57670  Biso   1.000  O
  O20      1.0000 0.75000  0.14520  0.48700  Biso   1.000  O
  O21      1.0000 0.25000  0.71120  0.14020  Biso   1.000  O
  O22      1.0000 0.25000  0.85290  0.18100  Biso   1.000  O
  O23      1.0000 0.25000  0.42210  0.07670  Biso   1.000  O
  O24      1.0000 0.25000  0.35480  0.98700  Biso   1.000  O
  O25      1.0000 0.25000  0.21120  0.35980  Biso   1.000  O
  O26      1.0000 0.25000  0.35290  0.31900  Biso   1.000  O
  O27      1.0000 0.25000  0.92210  0.42330  Biso   1.000  O
  O28      1.0000 0.25000  0.85480  0.51300  Biso   1.000  O
  O29      1.0000 0.75000  0.28880  0.85980  Biso   1.000  O
  O30      1.0000 0.75000  0.14710  0.81900  Biso   1.000  O
  O31      1.0000 0.75000  0.57790  0.92330  Biso   1.000  O
  O32      1.0000 0.75000  0.64520  0.01300  Biso   1.000  O
