data_image0
_cell_length_a       7.4267
_cell_length_b       12.9082
_cell_length_c       12.9082
_cell_angle_alpha    92.1451
_cell_angle_beta     94.5344
_cell_angle_gamma    85.4656

_symmetry_space_group_name_H-M    P 1
_symmetry_int_tables_number       1

loop_
  _symmetry_equiv_pos_as_xyz
  'x, y, z'

loop_
  _atom_site_label
  _atom_site_occupancy
  _atom_site_fract_x
  _atom_site_fract_y
  _atom_site_fract_z
  _atom_site_thermal_displace_type
  _atom_site_B_iso_or_equiv
  _atom_site_type_symbol
  Zn1      1.0000 0.72233  0.38986  0.78700  Biso   1.000  Zn
  Zn2      1.0000 0.27767  0.78700  0.38986  Biso   1.000  Zn
  Zn3      1.0000 0.27767  0.61014  0.21300  Biso   1.000  Zn
  Zn4      1.0000 0.72233  0.21300  0.61014  Biso   1.000  Zn
  Zn5      1.0000 0.50000  0.84553  0.84553  Biso   1.000  Zn
  Zn6      1.0000 0.50000  0.15447  0.15447  Biso   1.000  Zn
  Zn7      1.0000 0.00000  0.82075  0.82075  Biso   1.000  Zn
  Zn8      1.0000 0.00000  0.17925  0.17925  Biso   1.000  Zn
  H1       1.0000 0.05820  0.50400  0.73120  Biso   1.000  H
  H2       1.0000 0.11570  0.60840  0.73660  Biso   1.000  H
  H3       1.0000 0.93840  0.73820  0.13060  Biso   1.000  H
  H4       1.0000 0.86850  0.78880  0.03660  Biso   1.000  H
  H5       1.0000 0.50290  0.59350  0.83590  Biso   1.000  H
  H6       1.0000 0.51310  0.69220  0.04500  Biso   1.000  H
  H7       1.0000 0.94180  0.73120  0.50400  Biso   1.000  H
  H8       1.0000 0.88430  0.73660  0.60840  Biso   1.000  H
  H9       1.0000 0.06160  0.13060  0.73820  Biso   1.000  H
  H10      1.0000 0.13150  0.03660  0.78880  Biso   1.000  H
  H11      1.0000 0.49710  0.83590  0.59350  Biso   1.000  H
  H12      1.0000 0.48690  0.04500  0.69220  Biso   1.000  H
  H13      1.0000 0.94180  0.49600  0.26880  Biso   1.000  H
  H14      1.0000 0.88430  0.39160  0.26340  Biso   1.000  H
  H15      1.0000 0.06160  0.26180  0.86940  Biso   1.000  H
  H16      1.0000 0.13150  0.21120  0.96340  Biso   1.000  H
  H17      1.0000 0.49710  0.40650  0.16410  Biso   1.000  H
  H18      1.0000 0.48690  0.30780  0.95500  Biso   1.000  H
  H19      1.0000 0.05820  0.26880  0.49600  Biso   1.000  H
  H20      1.0000 0.11570  0.26340  0.39160  Biso   1.000  H
  H21      1.0000 0.93840  0.86940  0.26180  Biso   1.000  H
  H22      1.0000 0.86850  0.96340  0.21120  Biso   1.000  H
  H23      1.0000 0.50290  0.16410  0.40650  Biso   1.000  H
  H24      1.0000 0.51310  0.95500  0.30780  Biso   1.000  H
  H25      1.0000 0.89600  0.35470  0.64530  Biso   1.000  H
  H26      1.0000 0.10400  0.64530  0.35470  Biso   1.000  H
  C1       1.0000 0.61810  0.61127  0.82365  Biso   1.000  C
  C2       1.0000 0.89240  0.59974  0.78910  Biso   1.000  C
  C3       1.0000 0.39230  0.71360  0.02766  Biso   1.000  C
  C4       1.0000 0.10800  0.73909  0.03359  Biso   1.000  C
  C5       1.0000 0.38190  0.82365  0.61127  Biso   1.000  C
  C6       1.0000 0.10760  0.78910  0.59974  Biso   1.000  C
  C7       1.0000 0.60770  0.02766  0.71360  Biso   1.000  C
  C8       1.0000 0.89200  0.03359  0.73909  Biso   1.000  C
  C9       1.0000 0.38190  0.38873  0.17635  Biso   1.000  C
  C10      1.0000 0.10760  0.40026  0.21090  Biso   1.000  C
  C11      1.0000 0.60770  0.28640  0.97234  Biso   1.000  C
  C12      1.0000 0.89200  0.26091  0.96641  Biso   1.000  C
  C13      1.0000 0.61810  0.17635  0.38873  Biso   1.000  C
  C14      1.0000 0.89240  0.21090  0.40026  Biso   1.000  C
  C15      1.0000 0.39230  0.97234  0.28640  Biso   1.000  C
  C16      1.0000 0.10800  0.96641  0.26091  Biso   1.000  C
  C17      1.0000 0.59020  0.97403  0.02597  Biso   1.000  C
  C18      1.0000 0.40980  0.02597  0.97403  Biso   1.000  C
  S1       1.0000 0.35188  0.31489  0.68511  Biso   1.000  S
  S2       1.0000 0.64812  0.68511  0.31489  Biso   1.000  S
  N1       1.0000 0.66300  0.70691  0.82481  Biso   1.000  N
  N2       1.0000 0.84290  0.70033  0.80161  Biso   1.000  N
  N3       1.0000 0.75600  0.54016  0.80288  Biso   1.000  N
  N4       1.0000 0.06400  0.56165  0.77005  Biso   1.000  N
  N5       1.0000 0.33770  0.76565  0.94479  Biso   1.000  N
  N6       1.0000 0.15050  0.78357  0.94843  Biso   1.000  N
  N7       1.0000 0.25630  0.69393  0.08557  Biso   1.000  N
  N8       1.0000 0.93660  0.73532  0.06216  Biso   1.000  N
  N9       1.0000 0.33700  0.82481  0.70691  Biso   1.000  N
  N10      1.0000 0.15710  0.80161  0.70033  Biso   1.000  N
  N11      1.0000 0.24400  0.80288  0.54016  Biso   1.000  N
  N12      1.0000 0.93600  0.77005  0.56165  Biso   1.000  N
  N13      1.0000 0.66230  0.94479  0.76565  Biso   1.000  N
  N14      1.0000 0.84950  0.94843  0.78357  Biso   1.000  N
  N15      1.0000 0.74370  0.08557  0.69393  Biso   1.000  N
  N16      1.0000 0.06340  0.06216  0.73532  Biso   1.000  N
  N17      1.0000 0.33700  0.29309  0.17519  Biso   1.000  N
  N18      1.0000 0.15710  0.29967  0.19839  Biso   1.000  N
  N19      1.0000 0.24400  0.45984  0.19712  Biso   1.000  N
  N20      1.0000 0.93600  0.43835  0.22995  Biso   1.000  N
  N21      1.0000 0.66230  0.23435  0.05521  Biso   1.000  N
  N22      1.0000 0.84950  0.21643  0.05157  Biso   1.000  N
  N23      1.0000 0.74370  0.30607  0.91443  Biso   1.000  N
  N24      1.0000 0.06340  0.26468  0.93784  Biso   1.000  N
  N25      1.0000 0.66300  0.17519  0.29309  Biso   1.000  N
  N26      1.0000 0.84290  0.19839  0.29967  Biso   1.000  N
  N27      1.0000 0.75600  0.19712  0.45984  Biso   1.000  N
  N28      1.0000 0.06400  0.22995  0.43835  Biso   1.000  N
  N29      1.0000 0.33770  0.05521  0.23435  Biso   1.000  N
  N30      1.0000 0.15050  0.05157  0.21643  Biso   1.000  N
  N31      1.0000 0.25630  0.91443  0.30607  Biso   1.000  N
  N32      1.0000 0.93660  0.93784  0.26468  Biso   1.000  N
  O1       1.0000 0.46180  0.39453  0.74027  Biso   1.000  O
  O2       1.0000 0.65610  0.89261  0.98257  Biso   1.000  O
  O3       1.0000 0.53820  0.74027  0.39453  Biso   1.000  O
  O4       1.0000 0.34390  0.98257  0.89261  Biso   1.000  O
  O5       1.0000 0.53820  0.60547  0.25973  Biso   1.000  O
  O6       1.0000 0.34390  0.10739  0.01743  Biso   1.000  O
  O7       1.0000 0.46180  0.25973  0.60547  Biso   1.000  O
  O8       1.0000 0.65610  0.01743  0.10739  Biso   1.000  O
  O9       1.0000 0.19200  0.36848  0.63152  Biso   1.000  O
  O10      1.0000 0.30200  0.24176  0.75824  Biso   1.000  O
  O11      1.0000 0.86010  0.31291  0.68709  Biso   1.000  O
  O12      1.0000 0.80800  0.63152  0.36848  Biso   1.000  O
  O13      1.0000 0.69800  0.75824  0.24176  Biso   1.000  O
  O14      1.0000 0.13990  0.68709  0.31291  Biso   1.000  O
