data_image0
_cell_length_a       10.0545
_cell_length_b       15.2938
_cell_length_c       20.4466
_cell_angle_alpha    90
_cell_angle_beta     90
_cell_angle_gamma    90

_symmetry_space_group_name_H-M    P 1
_symmetry_int_tables_number       1

loop_
  _symmetry_equiv_pos_as_xyz
  'x, y, z'

loop_
  _atom_site_label
  _atom_site_occupancy
  _atom_site_fract_x
  _atom_site_fract_y
  _atom_site_fract_z
  _atom_site_thermal_displace_type
  _atom_site_B_iso_or_equiv
  _atom_site_type_symbol
  Ag1      1.0000 0.39758  0.91127  0.58785  Biso   1.000  Ag
  Ag2      1.0000 0.55290  0.87012  0.47329  Biso   1.000  Ag
  Ag3      1.0000 0.10242  0.08873  0.08785  Biso   1.000  Ag
  Ag4      1.0000 0.94710  0.12988  0.97329  Biso   1.000  Ag
  Ag5      1.0000 0.60242  0.41127  0.41215  Biso   1.000  Ag
  Ag6      1.0000 0.44710  0.37012  0.52671  Biso   1.000  Ag
  Ag7      1.0000 0.89758  0.58873  0.91215  Biso   1.000  Ag
  Ag8      1.0000 0.05290  0.62988  0.02671  Biso   1.000  Ag
  Ag9      1.0000 0.60242  0.08873  0.41215  Biso   1.000  Ag
  Ag10     1.0000 0.44710  0.12988  0.52671  Biso   1.000  Ag
  Ag11     1.0000 0.89758  0.91127  0.91215  Biso   1.000  Ag
  Ag12     1.0000 0.05290  0.87012  0.02671  Biso   1.000  Ag
  Ag13     1.0000 0.39758  0.58873  0.58785  Biso   1.000  Ag
  Ag14     1.0000 0.55290  0.62988  0.47329  Biso   1.000  Ag
  Ag15     1.0000 0.10242  0.41127  0.08785  Biso   1.000  Ag
  Ag16     1.0000 0.94710  0.37012  0.97329  Biso   1.000  Ag
  Ag17     1.0000 0.34660  0.75000  0.65707  Biso   1.000  Ag
  Ag18     1.0000 0.32488  0.75000  0.46093  Biso   1.000  Ag
  Ag19     1.0000 0.70767  0.75000  0.55688  Biso   1.000  Ag
  Ag20     1.0000 0.15340  0.25000  0.15707  Biso   1.000  Ag
  Ag21     1.0000 0.17512  0.25000  0.96093  Biso   1.000  Ag
  Ag22     1.0000 0.79233  0.25000  0.05688  Biso   1.000  Ag
  Ag23     1.0000 0.65340  0.25000  0.34293  Biso   1.000  Ag
  Ag24     1.0000 0.67512  0.25000  0.53907  Biso   1.000  Ag
  Ag25     1.0000 0.29233  0.25000  0.44312  Biso   1.000  Ag
  Ag26     1.0000 0.84660  0.75000  0.84293  Biso   1.000  Ag
  Ag27     1.0000 0.82488  0.75000  0.03907  Biso   1.000  Ag
  Ag28     1.0000 0.20767  0.75000  0.94312  Biso   1.000  Ag
  C1       1.0000 0.46790  0.78970  0.55330  Biso   1.000  C
  C2       1.0000 0.22920  0.93800  0.70810  Biso   1.000  C
  C3       1.0000 0.15040  0.99110  0.76010  Biso   1.000  C
  C4       1.0000 0.23040  0.01100  0.82260  Biso   1.000  C
  C5       1.0000 0.15990  0.07250  0.87150  Biso   1.000  C
  C6       1.0000 0.83370  0.93260  0.48550  Biso   1.000  C
  C7       1.0000 0.96100  0.98640  0.47000  Biso   1.000  C
  C8       1.0000 0.03210  0.21030  0.05330  Biso   1.000  C
  C9       1.0000 0.27080  0.06200  0.20810  Biso   1.000  C
  C10      1.0000 0.34960  0.00890  0.26010  Biso   1.000  C
  C11      1.0000 0.26960  0.98900  0.32260  Biso   1.000  C
  C12      1.0000 0.34010  0.92750  0.37150  Biso   1.000  C
  C13      1.0000 0.66630  0.06740  0.98550  Biso   1.000  C
  C14      1.0000 0.53900  0.01360  0.97000  Biso   1.000  C
  C15      1.0000 0.53210  0.28970  0.44670  Biso   1.000  C
  C16      1.0000 0.77080  0.43800  0.29190  Biso   1.000  C
  C17      1.0000 0.84960  0.49110  0.23990  Biso   1.000  C
  C18      1.0000 0.76960  0.51100  0.17740  Biso   1.000  C
  C19      1.0000 0.84010  0.57250  0.12850  Biso   1.000  C
  C20      1.0000 0.16630  0.43260  0.51450  Biso   1.000  C
  C21      1.0000 0.03900  0.48640  0.53000  Biso   1.000  C
  C22      1.0000 0.96790  0.71030  0.94670  Biso   1.000  C
  C23      1.0000 0.72920  0.56200  0.79190  Biso   1.000  C
  C24      1.0000 0.65040  0.50890  0.73990  Biso   1.000  C
  C25      1.0000 0.73040  0.48900  0.67740  Biso   1.000  C
  C26      1.0000 0.65990  0.42750  0.62850  Biso   1.000  C
  C27      1.0000 0.33370  0.56740  0.01450  Biso   1.000  C
  C28      1.0000 0.46100  0.51360  0.03000  Biso   1.000  C
  C29      1.0000 0.53210  0.21030  0.44670  Biso   1.000  C
  C30      1.0000 0.77080  0.06200  0.29190  Biso   1.000  C
  C31      1.0000 0.84960  0.00890  0.23990  Biso   1.000  C
  C32      1.0000 0.76960  0.98900  0.17740  Biso   1.000  C
  C33      1.0000 0.84010  0.92750  0.12850  Biso   1.000  C
  C34      1.0000 0.16630  0.06740  0.51450  Biso   1.000  C
  C35      1.0000 0.03900  0.01360  0.53000  Biso   1.000  C
  C36      1.0000 0.96790  0.78970  0.94670  Biso   1.000  C
  C37      1.0000 0.72920  0.93800  0.79190  Biso   1.000  C
  C38      1.0000 0.65040  0.99110  0.73990  Biso   1.000  C
  C39      1.0000 0.73040  0.01100  0.67740  Biso   1.000  C
  C40      1.0000 0.65990  0.07250  0.62850  Biso   1.000  C
  C41      1.0000 0.33370  0.93260  0.01450  Biso   1.000  C
  C42      1.0000 0.46100  0.98640  0.03000  Biso   1.000  C
  C43      1.0000 0.46790  0.71030  0.55330  Biso   1.000  C
  C44      1.0000 0.22920  0.56200  0.70810  Biso   1.000  C
  C45      1.0000 0.15040  0.50890  0.76010  Biso   1.000  C
  C46      1.0000 0.23040  0.48900  0.82260  Biso   1.000  C
  C47      1.0000 0.15990  0.42750  0.87150  Biso   1.000  C
  C48      1.0000 0.83370  0.56740  0.48550  Biso   1.000  C
  C49      1.0000 0.96100  0.51360  0.47000  Biso   1.000  C
  C50      1.0000 0.03210  0.28970  0.05330  Biso   1.000  C
  C51      1.0000 0.27080  0.43800  0.20810  Biso   1.000  C
  C52      1.0000 0.34960  0.49110  0.26010  Biso   1.000  C
  C53      1.0000 0.26960  0.51100  0.32260  Biso   1.000  C
  C54      1.0000 0.34010  0.57250  0.37150  Biso   1.000  C
  C55      1.0000 0.66630  0.43260  0.98550  Biso   1.000  C
  C56      1.0000 0.53900  0.48640  0.97000  Biso   1.000  C
  O1       1.0000 0.28080  0.98130  0.66400  Biso   1.000  O
  O2       1.0000 0.23130  0.85810  0.71690  Biso   1.000  O
  O3       1.0000 0.06150  0.04090  0.89990  Biso   1.000  O
  O4       1.0000 0.20700  0.14730  0.87620  Biso   1.000  O
  O5       1.0000 0.72840  0.97210  0.48190  Biso   1.000  O
  O6       1.0000 0.85480  0.85310  0.49760  Biso   1.000  O
  O7       1.0000 0.21920  0.01870  0.16400  Biso   1.000  O
  O8       1.0000 0.26870  0.14190  0.21690  Biso   1.000  O
  O9       1.0000 0.43850  0.95910  0.39990  Biso   1.000  O
  O10      1.0000 0.29300  0.85270  0.37620  Biso   1.000  O
  O11      1.0000 0.77160  0.02790  0.98190  Biso   1.000  O
  O12      1.0000 0.64520  0.14690  0.99760  Biso   1.000  O
  O13      1.0000 0.71920  0.48130  0.33600  Biso   1.000  O
  O14      1.0000 0.76870  0.35810  0.28310  Biso   1.000  O
  O15      1.0000 0.93850  0.54090  0.10010  Biso   1.000  O
  O16      1.0000 0.79300  0.64730  0.12380  Biso   1.000  O
  O17      1.0000 0.27160  0.47210  0.51810  Biso   1.000  O
  O18      1.0000 0.14520  0.35310  0.50240  Biso   1.000  O
  O19      1.0000 0.78080  0.51870  0.83600  Biso   1.000  O
  O20      1.0000 0.73130  0.64190  0.78310  Biso   1.000  O
  O21      1.0000 0.56150  0.45910  0.60010  Biso   1.000  O
  O22      1.0000 0.70700  0.35270  0.62380  Biso   1.000  O
  O23      1.0000 0.22840  0.52790  0.01810  Biso   1.000  O
  O24      1.0000 0.35480  0.64690  0.00240  Biso   1.000  O
  O25      1.0000 0.71920  0.01870  0.33600  Biso   1.000  O
  O26      1.0000 0.76870  0.14190  0.28310  Biso   1.000  O
  O27      1.0000 0.93850  0.95910  0.10010  Biso   1.000  O
  O28      1.0000 0.79300  0.85270  0.12380  Biso   1.000  O
  O29      1.0000 0.27160  0.02790  0.51810  Biso   1.000  O
  O30      1.0000 0.14520  0.14690  0.50240  Biso   1.000  O
  O31      1.0000 0.78080  0.98130  0.83600  Biso   1.000  O
  O32      1.0000 0.73130  0.85810  0.78310  Biso   1.000  O
  O33      1.0000 0.56150  0.04090  0.60010  Biso   1.000  O
  O34      1.0000 0.70700  0.14730  0.62380  Biso   1.000  O
  O35      1.0000 0.22840  0.97210  0.01810  Biso   1.000  O
  O36      1.0000 0.35480  0.85310  0.00240  Biso   1.000  O
  O37      1.0000 0.28080  0.51870  0.66400  Biso   1.000  O
  O38      1.0000 0.23130  0.64190  0.71690  Biso   1.000  O
  O39      1.0000 0.06150  0.45910  0.89990  Biso   1.000  O
  O40      1.0000 0.20700  0.35270  0.87620  Biso   1.000  O
  O41      1.0000 0.72840  0.52790  0.48190  Biso   1.000  O
  O42      1.0000 0.85480  0.64690  0.49760  Biso   1.000  O
  O43      1.0000 0.21920  0.48130  0.16400  Biso   1.000  O
  O44      1.0000 0.26870  0.35810  0.21690  Biso   1.000  O
  O45      1.0000 0.43850  0.54090  0.39990  Biso   1.000  O
  O46      1.0000 0.29300  0.64730  0.37620  Biso   1.000  O
  O47      1.0000 0.77160  0.47210  0.98190  Biso   1.000  O
  O48      1.0000 0.64520  0.35310  0.99760  Biso   1.000  O
  O49      1.0000 0.85380  0.75000  0.64230  Biso   1.000  O
  O50      1.0000 0.64620  0.25000  0.14230  Biso   1.000  O
  O51      1.0000 0.14620  0.25000  0.35770  Biso   1.000  O
  O52      1.0000 0.35380  0.75000  0.85770  Biso   1.000  O
  F1       1.0000 0.10990  0.06850  0.73593  Biso   1.000  F
  F2       1.0000 0.03930  0.94590  0.77680  Biso   1.000  F
  F3       1.0000 0.34570  0.04580  0.80300  Biso   1.000  F
  F4       1.0000 0.25890  0.93480  0.85250  Biso   1.000  F
  F5       1.0000 0.93710  0.05860  0.43400  Biso   1.000  F
  F6       1.0000 0.04950  0.93810  0.43360  Biso   1.000  F
  F7       1.0000 0.39010  0.93150  0.23593  Biso   1.000  F
  F8       1.0000 0.46070  0.05410  0.27680  Biso   1.000  F
  F9       1.0000 0.15430  0.95420  0.30300  Biso   1.000  F
  F10      1.0000 0.24110  0.06520  0.35250  Biso   1.000  F
  F11      1.0000 0.56290  0.94140  0.93400  Biso   1.000  F
  F12      1.0000 0.45050  0.06190  0.93360  Biso   1.000  F
  F13      1.0000 0.89010  0.56850  0.26407  Biso   1.000  F
  F14      1.0000 0.96070  0.44590  0.22320  Biso   1.000  F
  F15      1.0000 0.65430  0.54580  0.19700  Biso   1.000  F
  F16      1.0000 0.74110  0.43480  0.14750  Biso   1.000  F
  F17      1.0000 0.06290  0.55860  0.56600  Biso   1.000  F
  F18      1.0000 0.95050  0.43810  0.56640  Biso   1.000  F
  F19      1.0000 0.60990  0.43150  0.76407  Biso   1.000  F
  F20      1.0000 0.53930  0.55410  0.72320  Biso   1.000  F
  F21      1.0000 0.84570  0.45420  0.69700  Biso   1.000  F
  F22      1.0000 0.75890  0.56520  0.64750  Biso   1.000  F
  F23      1.0000 0.43710  0.44140  0.06600  Biso   1.000  F
  F24      1.0000 0.54950  0.56190  0.06640  Biso   1.000  F
  F25      1.0000 0.89010  0.93150  0.26407  Biso   1.000  F
  F26      1.0000 0.96070  0.05410  0.22320  Biso   1.000  F
  F27      1.0000 0.65430  0.95420  0.19700  Biso   1.000  F
  F28      1.0000 0.74110  0.06520  0.14750  Biso   1.000  F
  F29      1.0000 0.06290  0.94140  0.56600  Biso   1.000  F
  F30      1.0000 0.95050  0.06190  0.56640  Biso   1.000  F
  F31      1.0000 0.60990  0.06850  0.76407  Biso   1.000  F
  F32      1.0000 0.53930  0.94590  0.72320  Biso   1.000  F
  F33      1.0000 0.84570  0.04580  0.69700  Biso   1.000  F
  F34      1.0000 0.75890  0.93480  0.64750  Biso   1.000  F
  F35      1.0000 0.43710  0.05860  0.06600  Biso   1.000  F
  F36      1.0000 0.54950  0.93810  0.06640  Biso   1.000  F
  F37      1.0000 0.10990  0.43150  0.73593  Biso   1.000  F
  F38      1.0000 0.03930  0.55410  0.77680  Biso   1.000  F
  F39      1.0000 0.34570  0.45420  0.80300  Biso   1.000  F
  F40      1.0000 0.25890  0.56520  0.85250  Biso   1.000  F
  F41      1.0000 0.93710  0.44140  0.43400  Biso   1.000  F
  F42      1.0000 0.04950  0.56190  0.43360  Biso   1.000  F
  F43      1.0000 0.39010  0.56850  0.23593  Biso   1.000  F
  F44      1.0000 0.46070  0.44590  0.27680  Biso   1.000  F
  F45      1.0000 0.15430  0.54580  0.30300  Biso   1.000  F
  F46      1.0000 0.24110  0.43480  0.35250  Biso   1.000  F
  F47      1.0000 0.56290  0.55860  0.93400  Biso   1.000  F
  F48      1.0000 0.45050  0.43810  0.93360  Biso   1.000  F
