data_image0
_cell_length_a       14.565
_cell_length_b       14.565
_cell_length_c       18.045
_cell_angle_alpha    69.8347
_cell_angle_beta     69.8347
_cell_angle_gamma    87.8664

_symmetry_space_group_name_H-M    P 1
_symmetry_int_tables_number       1

loop_
  _symmetry_equiv_pos_as_xyz
  'x, y, z'

loop_
  _atom_site_label
  _atom_site_occupancy
  _atom_site_fract_x
  _atom_site_fract_y
  _atom_site_fract_z
  _atom_site_thermal_displace_type
  _atom_site_B_iso_or_equiv
  _atom_site_type_symbol
  Eu1      1.0000 0.40698  0.05624  0.23300  Biso   1.000  Eu
  Eu2      1.0000 0.94376  0.59302  0.26700  Biso   1.000  Eu
  Eu3      1.0000 0.59302  0.94376  0.76700  Biso   1.000  Eu
  Eu4      1.0000 0.05624  0.40698  0.73300  Biso   1.000  Eu
  Eu5      1.0000 0.02444  0.97556  0.25000  Biso   1.000  Eu
  Eu6      1.0000 0.97556  0.02444  0.75000  Biso   1.000  Eu
  Eu7      1.0000 0.31333  0.68667  0.75000  Biso   1.000  Eu
  Eu8      1.0000 0.68667  0.31333  0.25000  Biso   1.000  Eu
  Co1      1.0000 0.70979  0.00445  0.24399  Biso   1.000  Co
  Co2      1.0000 0.99555  0.29021  0.25601  Biso   1.000  Co
  Co3      1.0000 0.29021  0.99555  0.75601  Biso   1.000  Co
  Co4      1.0000 0.00445  0.70979  0.74399  Biso   1.000  Co
  Co5      1.0000 0.66620  0.33380  0.75000  Biso   1.000  Co
  Co6      1.0000 0.33380  0.66620  0.25000  Biso   1.000  Co
  H1       1.0000 0.45270  0.86230  0.52420  Biso   1.000  H
  H2       1.0000 0.72540  0.89420  0.53110  Biso   1.000  H
  H3       1.0000 0.09020  0.74560  0.02520  Biso   1.000  H
  H4       1.0000 0.09480  0.02100  0.02970  Biso   1.000  H
  H5       1.0000 0.40490  0.14070  0.97880  Biso   1.000  H
  H6       1.0000 0.28750  0.86190  0.06840  Biso   1.000  H
  H7       1.0000 0.13770  0.54730  0.97580  Biso   1.000  H
  H8       1.0000 0.10580  0.27460  0.96890  Biso   1.000  H
  H9       1.0000 0.25440  0.90980  0.47480  Biso   1.000  H
  H10      1.0000 0.97900  0.90520  0.47030  Biso   1.000  H
  H11      1.0000 0.85930  0.59510  0.52120  Biso   1.000  H
  H12      1.0000 0.13810  0.71250  0.43160  Biso   1.000  H
  H13      1.0000 0.54730  0.13770  0.47580  Biso   1.000  H
  H14      1.0000 0.27460  0.10580  0.46890  Biso   1.000  H
  H15      1.0000 0.90980  0.25440  0.97480  Biso   1.000  H
  H16      1.0000 0.90520  0.97900  0.97030  Biso   1.000  H
  H17      1.0000 0.59510  0.85930  0.02120  Biso   1.000  H
  H18      1.0000 0.71250  0.13810  0.93160  Biso   1.000  H
  H19      1.0000 0.86230  0.45270  0.02420  Biso   1.000  H
  H20      1.0000 0.89420  0.72540  0.03110  Biso   1.000  H
  H21      1.0000 0.74560  0.09020  0.52520  Biso   1.000  H
  H22      1.0000 0.02100  0.09480  0.52970  Biso   1.000  H
  H23      1.0000 0.14070  0.40490  0.47880  Biso   1.000  H
  H24      1.0000 0.86190  0.28750  0.56840  Biso   1.000  H
  C1       1.0000 0.56120  0.92300  0.41060  Biso   1.000  C
  C2       1.0000 0.51950  0.88230  0.49740  Biso   1.000  C
  C3       1.0000 0.58190  0.87190  0.54410  Biso   1.000  C
  C4       1.0000 0.68280  0.89920  0.50180  Biso   1.000  C
  C5       1.0000 0.71670  0.93410  0.41360  Biso   1.000  C
  C6       1.0000 0.50420  0.94880  0.34900  Biso   1.000  C
  C7       1.0000 0.53860  0.83440  0.63970  Biso   1.000  C
  C8       1.0000 0.82370  0.95990  0.35780  Biso   1.000  C
  C9       1.0000 0.17210  0.84950  0.91670  Biso   1.000  C
  C10      1.0000 0.11170  0.81210  0.99900  Biso   1.000  C
  C11      1.0000 0.08280  0.87760  0.04300  Biso   1.000  C
  C12      1.0000 0.11480  0.97660  0.00190  Biso   1.000  C
  C13      1.0000 0.17750  0.00770  0.91850  Biso   1.000  C
  C14      1.0000 0.21160  0.79300  0.85830  Biso   1.000  C
  C15      1.0000 0.02140  0.83860  0.13550  Biso   1.000  C
  C16      1.0000 0.22340  0.11160  0.86430  Biso   1.000  C
  C17      1.0000 0.46690  0.06290  0.90430  Biso   1.000  C
  C18      1.0000 0.40330  0.07910  0.97420  Biso   1.000  C
  C19      1.0000 0.33610  0.00270  0.03820  Biso   1.000  C
  C20      1.0000 0.33330  0.91330  0.02790  Biso   1.000  C
  C21      1.0000 0.40070  0.90150  0.95560  Biso   1.000  C
  C22      1.0000 0.54530  0.13830  0.83270  Biso   1.000  C
  C23      1.0000 0.27230  0.01490  0.12010  Biso   1.000  C
  C24      1.0000 0.41090  0.80570  0.93930  Biso   1.000  C
  C25      1.0000 0.07700  0.43880  0.08940  Biso   1.000  C
  C26      1.0000 0.11770  0.48050  0.00260  Biso   1.000  C
  C27      1.0000 0.12810  0.41810  0.95590  Biso   1.000  C
  C28      1.0000 0.10080  0.31720  0.99820  Biso   1.000  C
  C29      1.0000 0.06590  0.28330  0.08640  Biso   1.000  C
  C30      1.0000 0.05120  0.49580  0.15100  Biso   1.000  C
  C31      1.0000 0.16560  0.46140  0.86030  Biso   1.000  C
  C32      1.0000 0.04010  0.17630  0.14220  Biso   1.000  C
  C33      1.0000 0.15050  0.82790  0.58330  Biso   1.000  C
  C34      1.0000 0.18790  0.88830  0.50100  Biso   1.000  C
  C35      1.0000 0.12240  0.91720  0.45700  Biso   1.000  C
  C36      1.0000 0.02340  0.88520  0.49810  Biso   1.000  C
  C37      1.0000 0.99230  0.82250  0.58150  Biso   1.000  C
  C38      1.0000 0.20700  0.78840  0.64170  Biso   1.000  C
  C39      1.0000 0.16140  0.97860  0.36450  Biso   1.000  C
  C40      1.0000 0.88840  0.77660  0.63570  Biso   1.000  C
  C41      1.0000 0.93710  0.53310  0.59570  Biso   1.000  C
  C42      1.0000 0.92090  0.59670  0.52580  Biso   1.000  C
  C43      1.0000 0.99730  0.66390  0.46180  Biso   1.000  C
  C44      1.0000 0.08670  0.66670  0.47210  Biso   1.000  C
  C45      1.0000 0.09850  0.59930  0.54440  Biso   1.000  C
  C46      1.0000 0.86170  0.45470  0.66730  Biso   1.000  C
  C47      1.0000 0.98510  0.72770  0.37990  Biso   1.000  C
  C48      1.0000 0.19430  0.58910  0.56070  Biso   1.000  C
  C49      1.0000 0.43880  0.07700  0.58940  Biso   1.000  C
  C50      1.0000 0.48050  0.11770  0.50260  Biso   1.000  C
  C51      1.0000 0.41810  0.12810  0.45590  Biso   1.000  C
  C52      1.0000 0.31720  0.10080  0.49820  Biso   1.000  C
  C53      1.0000 0.28330  0.06590  0.58640  Biso   1.000  C
  C54      1.0000 0.49580  0.05120  0.65100  Biso   1.000  C
  C55      1.0000 0.46140  0.16560  0.36030  Biso   1.000  C
  C56      1.0000 0.17630  0.04010  0.64220  Biso   1.000  C
  C57      1.0000 0.82790  0.15050  0.08330  Biso   1.000  C
  C58      1.0000 0.88830  0.18790  0.00100  Biso   1.000  C
  C59      1.0000 0.91720  0.12240  0.95700  Biso   1.000  C
  C60      1.0000 0.88520  0.02340  0.99810  Biso   1.000  C
  C61      1.0000 0.82250  0.99230  0.08150  Biso   1.000  C
  C62      1.0000 0.78840  0.20700  0.14170  Biso   1.000  C
  C63      1.0000 0.97860  0.16140  0.86450  Biso   1.000  C
  C64      1.0000 0.77660  0.88840  0.13570  Biso   1.000  C
  C65      1.0000 0.53310  0.93710  0.09570  Biso   1.000  C
  C66      1.0000 0.59670  0.92090  0.02580  Biso   1.000  C
  C67      1.0000 0.66390  0.99730  0.96180  Biso   1.000  C
  C68      1.0000 0.66670  0.08670  0.97210  Biso   1.000  C
  C69      1.0000 0.59930  0.09850  0.04440  Biso   1.000  C
  C70      1.0000 0.45470  0.86170  0.16730  Biso   1.000  C
  C71      1.0000 0.72770  0.98510  0.87990  Biso   1.000  C
  C72      1.0000 0.58910  0.19430  0.06070  Biso   1.000  C
  C73      1.0000 0.92300  0.56120  0.91060  Biso   1.000  C
  C74      1.0000 0.88230  0.51950  0.99740  Biso   1.000  C
  C75      1.0000 0.87190  0.58190  0.04410  Biso   1.000  C
  C76      1.0000 0.89920  0.68280  0.00180  Biso   1.000  C
  C77      1.0000 0.93410  0.71670  0.91360  Biso   1.000  C
  C78      1.0000 0.94880  0.50420  0.84900  Biso   1.000  C
  C79      1.0000 0.83440  0.53860  0.13970  Biso   1.000  C
  C80      1.0000 0.95990  0.82370  0.85780  Biso   1.000  C
  C81      1.0000 0.84950  0.17210  0.41670  Biso   1.000  C
  C82      1.0000 0.81210  0.11170  0.49900  Biso   1.000  C
  C83      1.0000 0.87760  0.08280  0.54300  Biso   1.000  C
  C84      1.0000 0.97660  0.11480  0.50190  Biso   1.000  C
  C85      1.0000 0.00770  0.17750  0.41850  Biso   1.000  C
  C86      1.0000 0.79300  0.21160  0.35830  Biso   1.000  C
  C87      1.0000 0.83860  0.02140  0.63550  Biso   1.000  C
  C88      1.0000 0.11160  0.22340  0.36430  Biso   1.000  C
  C89      1.0000 0.06290  0.46690  0.40430  Biso   1.000  C
  C90      1.0000 0.07910  0.40330  0.47420  Biso   1.000  C
  C91      1.0000 0.00270  0.33610  0.53820  Biso   1.000  C
  C92      1.0000 0.91330  0.33330  0.52790  Biso   1.000  C
  C93      1.0000 0.90150  0.40070  0.45560  Biso   1.000  C
  C94      1.0000 0.13830  0.54530  0.33270  Biso   1.000  C
  C95      1.0000 0.01490  0.27230  0.62010  Biso   1.000  C
  C96      1.0000 0.80570  0.41090  0.43930  Biso   1.000  C
  N1       1.0000 0.65770  0.94870  0.37040  Biso   1.000  N
  N2       1.0000 0.20530  0.94490  0.87860  Biso   1.000  N
  N3       1.0000 0.46700  0.97480  0.89460  Biso   1.000  N
  N4       1.0000 0.05130  0.34230  0.12960  Biso   1.000  N
  N5       1.0000 0.05510  0.79470  0.62140  Biso   1.000  N
  N6       1.0000 0.02520  0.53300  0.60540  Biso   1.000  N
  N7       1.0000 0.34230  0.05130  0.62960  Biso   1.000  N
  N8       1.0000 0.79470  0.05510  0.12140  Biso   1.000  N
  N9       1.0000 0.53300  0.02520  0.10540  Biso   1.000  N
  N10      1.0000 0.94870  0.65770  0.87040  Biso   1.000  N
  N11      1.0000 0.94490  0.20530  0.37860  Biso   1.000  N
  N12      1.0000 0.97480  0.46700  0.39460  Biso   1.000  N
  O1       1.0000 0.31310  0.20390  0.21810  Biso   1.000  O
  O2       1.0000 0.35340  0.62860  0.63270  Biso   1.000  O
  O3       1.0000 0.73200  0.31800  0.84600  Biso   1.000  O
  O4       1.0000 0.58200  0.43000  0.80600  Biso   1.000  O
  O5       1.0000 0.55660  0.99680  0.27350  Biso   1.000  O
  O6       1.0000 0.41670  0.92750  0.37530  Biso   1.000  O
  O7       1.0000 0.46320  0.77860  0.67450  Biso   1.000  O
  O8       1.0000 0.58510  0.86030  0.67630  Biso   1.000  O
  O9       1.0000 0.88870  0.95110  0.38750  Biso   1.000  O
  O10      1.0000 0.84200  0.99020  0.27750  Biso   1.000  O
  O11      1.0000 0.27930  0.83790  0.78650  Biso   1.000  O
  O12      1.0000 0.17970  0.70670  0.87950  Biso   1.000  O
  O13      1.0000 0.00690  0.74910  0.16890  Biso   1.000  O
  O14      1.0000 0.98880  0.89700  0.17180  Biso   1.000  O
  O15      1.0000 0.20620  0.17640  0.89350  Biso   1.000  O
  O16      1.0000 0.28240  0.12100  0.78960  Biso   1.000  O
  O17      1.0000 0.60130  0.10610  0.77540  Biso   1.000  O
  O18      1.0000 0.55220  0.22200  0.83360  Biso   1.000  O
  O19      1.0000 0.19050  0.96650  0.15930  Biso   1.000  O
  O20      1.0000 0.31150  0.07030  0.14260  Biso   1.000  O
  O21      1.0000 0.35380  0.73360  0.98840  Biso   1.000  O
  O22      1.0000 0.48140  0.80680  0.87170  Biso   1.000  O
  O23      1.0000 0.79610  0.68690  0.28190  Biso   1.000  O
  O24      1.0000 0.37140  0.64660  0.86730  Biso   1.000  O
  O25      1.0000 0.68200  0.26800  0.65400  Biso   1.000  O
  O26      1.0000 0.57000  0.41800  0.69400  Biso   1.000  O
  O27      1.0000 0.00320  0.44340  0.22650  Biso   1.000  O
  O28      1.0000 0.07250  0.58330  0.12470  Biso   1.000  O
  O29      1.0000 0.22140  0.53680  0.82550  Biso   1.000  O
  O30      1.0000 0.13970  0.41490  0.82370  Biso   1.000  O
  O31      1.0000 0.04890  0.11130  0.11250  Biso   1.000  O
  O32      1.0000 0.00980  0.15800  0.22250  Biso   1.000  O
  O33      1.0000 0.16210  0.72070  0.71350  Biso   1.000  O
  O34      1.0000 0.29330  0.82030  0.62050  Biso   1.000  O
  O35      1.0000 0.25090  0.99310  0.33110  Biso   1.000  O
  O36      1.0000 0.10300  0.01120  0.32820  Biso   1.000  O
  O37      1.0000 0.82360  0.79380  0.60650  Biso   1.000  O
  O38      1.0000 0.87900  0.71760  0.71040  Biso   1.000  O
  O39      1.0000 0.89390  0.39870  0.72460  Biso   1.000  O
  O40      1.0000 0.77800  0.44780  0.66640  Biso   1.000  O
  O41      1.0000 0.03350  0.80950  0.34070  Biso   1.000  O
  O42      1.0000 0.92970  0.68850  0.35740  Biso   1.000  O
  O43      1.0000 0.26640  0.64620  0.51160  Biso   1.000  O
  O44      1.0000 0.19320  0.51860  0.62830  Biso   1.000  O
  O45      1.0000 0.68690  0.79610  0.78190  Biso   1.000  O
  O46      1.0000 0.64660  0.37140  0.36730  Biso   1.000  O
  O47      1.0000 0.26800  0.68200  0.15400  Biso   1.000  O
  O48      1.0000 0.41800  0.57000  0.19400  Biso   1.000  O
  O49      1.0000 0.44340  0.00320  0.72650  Biso   1.000  O
  O50      1.0000 0.58330  0.07250  0.62470  Biso   1.000  O
  O51      1.0000 0.53680  0.22140  0.32550  Biso   1.000  O
  O52      1.0000 0.41490  0.13970  0.32370  Biso   1.000  O
  O53      1.0000 0.11130  0.04890  0.61250  Biso   1.000  O
  O54      1.0000 0.15800  0.00980  0.72250  Biso   1.000  O
  O55      1.0000 0.72070  0.16210  0.21350  Biso   1.000  O
  O56      1.0000 0.82030  0.29330  0.12050  Biso   1.000  O
  O57      1.0000 0.99310  0.25090  0.83110  Biso   1.000  O
  O58      1.0000 0.01120  0.10300  0.82820  Biso   1.000  O
  O59      1.0000 0.79380  0.82360  0.10650  Biso   1.000  O
  O60      1.0000 0.71760  0.87900  0.21040  Biso   1.000  O
  O61      1.0000 0.39870  0.89390  0.22460  Biso   1.000  O
  O62      1.0000 0.44780  0.77800  0.16640  Biso   1.000  O
  O63      1.0000 0.80950  0.03350  0.84070  Biso   1.000  O
  O64      1.0000 0.68850  0.92970  0.85740  Biso   1.000  O
  O65      1.0000 0.64620  0.26640  0.01160  Biso   1.000  O
  O66      1.0000 0.51860  0.19320  0.12830  Biso   1.000  O
  O67      1.0000 0.20390  0.31310  0.71810  Biso   1.000  O
  O68      1.0000 0.62860  0.35340  0.13270  Biso   1.000  O
  O69      1.0000 0.31800  0.73200  0.34600  Biso   1.000  O
  O70      1.0000 0.43000  0.58200  0.30600  Biso   1.000  O
  O71      1.0000 0.99680  0.55660  0.77350  Biso   1.000  O
  O72      1.0000 0.92750  0.41670  0.87530  Biso   1.000  O
  O73      1.0000 0.77860  0.46320  0.17450  Biso   1.000  O
  O74      1.0000 0.86030  0.58510  0.17630  Biso   1.000  O
  O75      1.0000 0.95110  0.88870  0.88750  Biso   1.000  O
  O76      1.0000 0.99020  0.84200  0.77750  Biso   1.000  O
  O77      1.0000 0.83790  0.27930  0.28650  Biso   1.000  O
  O78      1.0000 0.70670  0.17970  0.37950  Biso   1.000  O
  O79      1.0000 0.74910  0.00690  0.66890  Biso   1.000  O
  O80      1.0000 0.89700  0.98880  0.67180  Biso   1.000  O
  O81      1.0000 0.17640  0.20620  0.39350  Biso   1.000  O
  O82      1.0000 0.12100  0.28240  0.28960  Biso   1.000  O
  O83      1.0000 0.10610  0.60130  0.27540  Biso   1.000  O
  O84      1.0000 0.22200  0.55220  0.33360  Biso   1.000  O
  O85      1.0000 0.96650  0.19050  0.65930  Biso   1.000  O
  O86      1.0000 0.07030  0.31150  0.64260  Biso   1.000  O
  O87      1.0000 0.73360  0.35380  0.48840  Biso   1.000  O
  O88      1.0000 0.80680  0.48140  0.37170  Biso   1.000  O
  O89      1.0000 0.44100  0.55900  0.75000  Biso   1.000  O
  O90      1.0000 0.55900  0.44100  0.25000  Biso   1.000  O
