data_image0
_cell_length_a       22.87
_cell_length_b       34.647
_cell_length_c       9.535
_cell_angle_alpha    90
_cell_angle_beta     90
_cell_angle_gamma    90

_symmetry_space_group_name_H-M    "P 1"
_symmetry_int_tables_number       1

loop_
  _symmetry_equiv_pos_as_xyz
  'x, y, z'

loop_
  _atom_site_label
  _atom_site_occupancy
  _atom_site_fract_x
  _atom_site_fract_y
  _atom_site_fract_z
  _atom_site_thermal_displace_type
  _atom_site_B_iso_or_equiv
  _atom_site_type_symbol
  Ag1      1.0000 0.32282  0.12520  0.63884  Biso   1.000  Ag
  Ag2      1.0000 0.44127  0.14111  0.96205  Biso   1.000  Ag
  N1       1.0000 0.49725  0.06394  0.70310  Biso   1.000  N
  N2       1.0000 0.53247  0.09694  0.70360  Biso   1.000  N
  N3       1.0000 0.50978  0.08443  0.49040  Biso   1.000  N
  N4       1.0000 0.50591  0.08803  0.34520  Biso   1.000  N
  N5       1.0000 0.48314  0.11088  0.14320  Biso   1.000  N
  N6       1.0000 0.51594  0.07759  0.12210  Biso   1.000  N
  N7       1.0000 0.32210  0.93627  0.05210  Biso   1.000  N
  N8       1.0000 0.35689  0.92670  0.93720  Biso   1.000  N
  N9       1.0000 0.34546  0.98848  0.94230  Biso   1.000  N
  N10      1.0000 0.35111  0.02693  0.90640  Biso   1.000  N
  N11      1.0000 0.38347  0.08539  0.89810  Biso   1.000  N
  N12      1.0000 0.33940  0.08084  0.79710  Biso   1.000  N
  C1       1.0000 0.53980  0.10772  0.57650  Biso   1.000  C
  H1       1.0000 0.56250  0.12860  0.54810  Biso   1.000  H
  C2       1.0000 0.48386  0.05727  0.57310  Biso   1.000  C
  H2       1.0000 0.46030  0.03720  0.54140  Biso   1.000  H
  C3       1.0000 0.47744  0.11662  0.27690  Biso   1.000  C
  H3       1.0000 0.45730  0.13690  0.31860  Biso   1.000  H
  C4       1.0000 0.52891  0.06473  0.24640  Biso   1.000  C
  H4       1.0000 0.55080  0.04270  0.26450  Biso   1.000  H
  C5       1.0000 0.31530  0.97347  0.05270  Biso   1.000  C
  H5       1.0000 0.29350  0.98750  0.11750  Biso   1.000  H
  C6       1.0000 0.36996  0.95853  0.87440  Biso   1.000  C
  H6       1.0000 0.39290  0.96050  0.79420  Biso   1.000  H
  C7       1.0000 0.38918  0.05279  0.96090  Biso   1.000  C
  H7       1.0000 0.41550  0.04770  0.03290  Biso   1.000  H
  C8       1.0000 0.32092  0.04582  0.80530  Biso   1.000  C
  H8       1.0000 0.29150  0.03520  0.75040  Biso   1.000  H
  Ag3      1.0000 0.32282  0.62520  0.13884  Biso   1.000  Ag
  Ag4      1.0000 0.44127  0.64111  0.46205  Biso   1.000  Ag
  N13      1.0000 0.49725  0.56394  0.20310  Biso   1.000  N
  N14      1.0000 0.53247  0.59694  0.20360  Biso   1.000  N
  N15      1.0000 0.50978  0.58443  0.99040  Biso   1.000  N
  N16      1.0000 0.50591  0.58803  0.84520  Biso   1.000  N
  N17      1.0000 0.48314  0.61088  0.64320  Biso   1.000  N
  N18      1.0000 0.51594  0.57759  0.62210  Biso   1.000  N
  N19      1.0000 0.32210  0.43627  0.55210  Biso   1.000  N
  N20      1.0000 0.35689  0.42670  0.43720  Biso   1.000  N
  N21      1.0000 0.34546  0.48848  0.44230  Biso   1.000  N
  N22      1.0000 0.35111  0.52693  0.40640  Biso   1.000  N
  N23      1.0000 0.38347  0.58539  0.39810  Biso   1.000  N
  N24      1.0000 0.33940  0.58084  0.29710  Biso   1.000  N
  C9       1.0000 0.53980  0.60772  0.07650  Biso   1.000  C
  H9       1.0000 0.56250  0.62860  0.04810  Biso   1.000  H
  C10      1.0000 0.48386  0.55727  0.07310  Biso   1.000  C
  H10      1.0000 0.46030  0.53720  0.04140  Biso   1.000  H
  C11      1.0000 0.47744  0.61662  0.77690  Biso   1.000  C
  H11      1.0000 0.45730  0.63690  0.81860  Biso   1.000  H
  C12      1.0000 0.52891  0.56473  0.74640  Biso   1.000  C
  H12      1.0000 0.55080  0.54270  0.76450  Biso   1.000  H
  C13      1.0000 0.31530  0.47347  0.55270  Biso   1.000  C
  H13      1.0000 0.29350  0.48750  0.61750  Biso   1.000  H
  C14      1.0000 0.36996  0.45853  0.37440  Biso   1.000  C
  H14      1.0000 0.39290  0.46050  0.29420  Biso   1.000  H
  C15      1.0000 0.38918  0.55279  0.46090  Biso   1.000  C
  H15      1.0000 0.41550  0.54770  0.53290  Biso   1.000  H
  C16      1.0000 0.32092  0.54582  0.30530  Biso   1.000  C
  H16      1.0000 0.29150  0.53520  0.25040  Biso   1.000  H
  Ag5      1.0000 0.82282  0.12520  0.13884  Biso   1.000  Ag
  Ag6      1.0000 0.94127  0.14111  0.46205  Biso   1.000  Ag
  N25      1.0000 0.99725  0.06394  0.20310  Biso   1.000  N
  N26      1.0000 0.03247  0.09694  0.20360  Biso   1.000  N
  N27      1.0000 0.00978  0.08443  0.99040  Biso   1.000  N
  N28      1.0000 0.00591  0.08803  0.84520  Biso   1.000  N
  N29      1.0000 0.98314  0.11088  0.64320  Biso   1.000  N
  N30      1.0000 0.01594  0.07759  0.62210  Biso   1.000  N
  N31      1.0000 0.82210  0.93627  0.55210  Biso   1.000  N
  N32      1.0000 0.85689  0.92670  0.43720  Biso   1.000  N
  N33      1.0000 0.84546  0.98848  0.44230  Biso   1.000  N
  N34      1.0000 0.85111  0.02693  0.40640  Biso   1.000  N
  N35      1.0000 0.88347  0.08539  0.39810  Biso   1.000  N
  N36      1.0000 0.83940  0.08084  0.29710  Biso   1.000  N
  C17      1.0000 0.03980  0.10772  0.07650  Biso   1.000  C
  H17      1.0000 0.06250  0.12860  0.04810  Biso   1.000  H
  C18      1.0000 0.98386  0.05727  0.07310  Biso   1.000  C
  H18      1.0000 0.96030  0.03720  0.04140  Biso   1.000  H
  C19      1.0000 0.97744  0.11662  0.77690  Biso   1.000  C
  H19      1.0000 0.95730  0.13690  0.81860  Biso   1.000  H
  C20      1.0000 0.02891  0.06473  0.74640  Biso   1.000  C
  H20      1.0000 0.05080  0.04270  0.76450  Biso   1.000  H
  C21      1.0000 0.81530  0.97347  0.55270  Biso   1.000  C
  H21      1.0000 0.79350  0.98750  0.61750  Biso   1.000  H
  C22      1.0000 0.86996  0.95853  0.37440  Biso   1.000  C
  H22      1.0000 0.89290  0.96050  0.29420  Biso   1.000  H
  C23      1.0000 0.88918  0.05279  0.46090  Biso   1.000  C
  H23      1.0000 0.91550  0.04770  0.53290  Biso   1.000  H
  C24      1.0000 0.82092  0.04582  0.30530  Biso   1.000  C
  H24      1.0000 0.79150  0.03520  0.25040  Biso   1.000  H
  Ag7      1.0000 0.82282  0.62520  0.63884  Biso   1.000  Ag
  Ag8      1.0000 0.94127  0.64111  0.96205  Biso   1.000  Ag
  N37      1.0000 0.99725  0.56394  0.70310  Biso   1.000  N
  N38      1.0000 0.03247  0.59694  0.70360  Biso   1.000  N
  N39      1.0000 0.00978  0.58443  0.49040  Biso   1.000  N
  N40      1.0000 0.00591  0.58803  0.34520  Biso   1.000  N
  N41      1.0000 0.98314  0.61088  0.14320  Biso   1.000  N
  N42      1.0000 0.01594  0.57759  0.12210  Biso   1.000  N
  N43      1.0000 0.82210  0.43627  0.05210  Biso   1.000  N
  N44      1.0000 0.85689  0.42670  0.93720  Biso   1.000  N
  N45      1.0000 0.84546  0.48848  0.94230  Biso   1.000  N
  N46      1.0000 0.85111  0.52693  0.90640  Biso   1.000  N
  N47      1.0000 0.88347  0.58539  0.89810  Biso   1.000  N
  N48      1.0000 0.83940  0.58084  0.79710  Biso   1.000  N
  C25      1.0000 0.03980  0.60772  0.57650  Biso   1.000  C
  H25      1.0000 0.06250  0.62860  0.54810  Biso   1.000  H
  C26      1.0000 0.98386  0.55727  0.57310  Biso   1.000  C
  H26      1.0000 0.96030  0.53720  0.54140  Biso   1.000  H
  C27      1.0000 0.97744  0.61662  0.27690  Biso   1.000  C
  H27      1.0000 0.95730  0.63690  0.31860  Biso   1.000  H
  C28      1.0000 0.02891  0.56473  0.24640  Biso   1.000  C
  H28      1.0000 0.05080  0.54270  0.26450  Biso   1.000  H
  C29      1.0000 0.81530  0.47347  0.05270  Biso   1.000  C
  H29      1.0000 0.79350  0.48750  0.11750  Biso   1.000  H
  C30      1.0000 0.86996  0.45853  0.87440  Biso   1.000  C
  H30      1.0000 0.89290  0.46050  0.79420  Biso   1.000  H
  C31      1.0000 0.88918  0.55279  0.96090  Biso   1.000  C
  H31      1.0000 0.91550  0.54770  0.03290  Biso   1.000  H
  C32      1.0000 0.82092  0.54582  0.80530  Biso   1.000  C
  H32      1.0000 0.79150  0.53520  0.75040  Biso   1.000  H
  Ag9      1.0000 0.67718  0.87480  0.63884  Biso   1.000  Ag
  Ag10     1.0000 0.55873  0.85889  0.96205  Biso   1.000  Ag
  N49      1.0000 0.50275  0.93606  0.70310  Biso   1.000  N
  N50      1.0000 0.46753  0.90306  0.70360  Biso   1.000  N
  N51      1.0000 0.49022  0.91557  0.49040  Biso   1.000  N
  N52      1.0000 0.49409  0.91197  0.34520  Biso   1.000  N
  N53      1.0000 0.51686  0.88912  0.14320  Biso   1.000  N
  N54      1.0000 0.48406  0.92241  0.12210  Biso   1.000  N
  N55      1.0000 0.67790  0.06373  0.05210  Biso   1.000  N
  N56      1.0000 0.64311  0.07330  0.93720  Biso   1.000  N
  N57      1.0000 0.65454  0.01152  0.94230  Biso   1.000  N
  N58      1.0000 0.64889  0.97307  0.90640  Biso   1.000  N
  N59      1.0000 0.61653  0.91461  0.89810  Biso   1.000  N
  N60      1.0000 0.66060  0.91916  0.79710  Biso   1.000  N
  C33      1.0000 0.46020  0.89228  0.57650  Biso   1.000  C
  H33      1.0000 0.43750  0.87140  0.54810  Biso   1.000  H
  C34      1.0000 0.51614  0.94273  0.57310  Biso   1.000  C
  H34      1.0000 0.53970  0.96280  0.54140  Biso   1.000  H
  C35      1.0000 0.52256  0.88338  0.27690  Biso   1.000  C
  H35      1.0000 0.54270  0.86310  0.31860  Biso   1.000  H
  C36      1.0000 0.47109  0.93527  0.24640  Biso   1.000  C
  H36      1.0000 0.44920  0.95730  0.26450  Biso   1.000  H
  C37      1.0000 0.68470  0.02653  0.05270  Biso   1.000  C
  H37      1.0000 0.70650  0.01250  0.11750  Biso   1.000  H
  C38      1.0000 0.63004  0.04147  0.87440  Biso   1.000  C
  H38      1.0000 0.60710  0.03950  0.79420  Biso   1.000  H
  C39      1.0000 0.61082  0.94721  0.96090  Biso   1.000  C
  H39      1.0000 0.58450  0.95230  0.03290  Biso   1.000  H
  C40      1.0000 0.67908  0.95418  0.80530  Biso   1.000  C
  H40      1.0000 0.70850  0.96480  0.75040  Biso   1.000  H
  Ag11     1.0000 0.67718  0.37480  0.13884  Biso   1.000  Ag
  Ag12     1.0000 0.55873  0.35889  0.46205  Biso   1.000  Ag
  N61      1.0000 0.50275  0.43606  0.20310  Biso   1.000  N
  N62      1.0000 0.46753  0.40306  0.20360  Biso   1.000  N
  N63      1.0000 0.49022  0.41557  0.99040  Biso   1.000  N
  N64      1.0000 0.49409  0.41197  0.84520  Biso   1.000  N
  N65      1.0000 0.51686  0.38912  0.64320  Biso   1.000  N
  N66      1.0000 0.48406  0.42241  0.62210  Biso   1.000  N
  N67      1.0000 0.67790  0.56373  0.55210  Biso   1.000  N
  N68      1.0000 0.64311  0.57330  0.43720  Biso   1.000  N
  N69      1.0000 0.65454  0.51152  0.44230  Biso   1.000  N
  N70      1.0000 0.64889  0.47307  0.40640  Biso   1.000  N
  N71      1.0000 0.61653  0.41461  0.39810  Biso   1.000  N
  N72      1.0000 0.66060  0.41916  0.29710  Biso   1.000  N
  C41      1.0000 0.46020  0.39228  0.07650  Biso   1.000  C
  H41      1.0000 0.43750  0.37140  0.04810  Biso   1.000  H
  C42      1.0000 0.51614  0.44273  0.07310  Biso   1.000  C
  H42      1.0000 0.53970  0.46280  0.04140  Biso   1.000  H
  C43      1.0000 0.52256  0.38338  0.77690  Biso   1.000  C
  H43      1.0000 0.54270  0.36310  0.81860  Biso   1.000  H
  C44      1.0000 0.47109  0.43527  0.74640  Biso   1.000  C
  H44      1.0000 0.44920  0.45730  0.76450  Biso   1.000  H
  C45      1.0000 0.68470  0.52653  0.55270  Biso   1.000  C
  H45      1.0000 0.70650  0.51250  0.61750  Biso   1.000  H
  C46      1.0000 0.63004  0.54147  0.37440  Biso   1.000  C
  H46      1.0000 0.60710  0.53950  0.29420  Biso   1.000  H
  C47      1.0000 0.61082  0.44721  0.46090  Biso   1.000  C
  H47      1.0000 0.58450  0.45230  0.53290  Biso   1.000  H
  C48      1.0000 0.67908  0.45418  0.30530  Biso   1.000  C
  H48      1.0000 0.70850  0.46480  0.25040  Biso   1.000  H
  Ag13     1.0000 0.17718  0.87480  0.13884  Biso   1.000  Ag
  Ag14     1.0000 0.05873  0.85889  0.46205  Biso   1.000  Ag
  N73      1.0000 0.00275  0.93606  0.20310  Biso   1.000  N
  N74      1.0000 0.96753  0.90306  0.20360  Biso   1.000  N
  N75      1.0000 0.99022  0.91557  0.99040  Biso   1.000  N
  N76      1.0000 0.99409  0.91197  0.84520  Biso   1.000  N
  N77      1.0000 0.01686  0.88912  0.64320  Biso   1.000  N
  N78      1.0000 0.98406  0.92241  0.62210  Biso   1.000  N
  N79      1.0000 0.17790  0.06373  0.55210  Biso   1.000  N
  N80      1.0000 0.14311  0.07330  0.43720  Biso   1.000  N
  N81      1.0000 0.15454  0.01152  0.44230  Biso   1.000  N
  N82      1.0000 0.14889  0.97307  0.40640  Biso   1.000  N
  N83      1.0000 0.11653  0.91461  0.39810  Biso   1.000  N
  N84      1.0000 0.16060  0.91916  0.29710  Biso   1.000  N
  C49      1.0000 0.96020  0.89228  0.07650  Biso   1.000  C
  H49      1.0000 0.93750  0.87140  0.04810  Biso   1.000  H
  C50      1.0000 0.01614  0.94273  0.07310  Biso   1.000  C
  H50      1.0000 0.03970  0.96280  0.04140  Biso   1.000  H
  C51      1.0000 0.02256  0.88338  0.77690  Biso   1.000  C
  H51      1.0000 0.04270  0.86310  0.81860  Biso   1.000  H
  C52      1.0000 0.97109  0.93527  0.74640  Biso   1.000  C
  H52      1.0000 0.94920  0.95730  0.76450  Biso   1.000  H
  C53      1.0000 0.18470  0.02653  0.55270  Biso   1.000  C
  H53      1.0000 0.20650  0.01250  0.61750  Biso   1.000  H
  C54      1.0000 0.13004  0.04147  0.37440  Biso   1.000  C
  H54      1.0000 0.10710  0.03950  0.29420  Biso   1.000  H
  C55      1.0000 0.11082  0.94721  0.46090  Biso   1.000  C
  H55      1.0000 0.08450  0.95230  0.53290  Biso   1.000  H
  C56      1.0000 0.17908  0.95418  0.30530  Biso   1.000  C
  H56      1.0000 0.20850  0.96480  0.25040  Biso   1.000  H
  Ag15     1.0000 0.17718  0.37480  0.63884  Biso   1.000  Ag
  Ag16     1.0000 0.05873  0.35889  0.96205  Biso   1.000  Ag
  N85      1.0000 0.00275  0.43606  0.70310  Biso   1.000  N
  N86      1.0000 0.96753  0.40306  0.70360  Biso   1.000  N
  N87      1.0000 0.99022  0.41557  0.49040  Biso   1.000  N
  N88      1.0000 0.99409  0.41197  0.34520  Biso   1.000  N
  N89      1.0000 0.01686  0.38912  0.14320  Biso   1.000  N
  N90      1.0000 0.98406  0.42241  0.12210  Biso   1.000  N
  N91      1.0000 0.17790  0.56373  0.05210  Biso   1.000  N
  N92      1.0000 0.14311  0.57330  0.93720  Biso   1.000  N
  N93      1.0000 0.15454  0.51152  0.94230  Biso   1.000  N
  N94      1.0000 0.14889  0.47307  0.90640  Biso   1.000  N
  N95      1.0000 0.11653  0.41461  0.89810  Biso   1.000  N
  N96      1.0000 0.16060  0.41916  0.79710  Biso   1.000  N
  C57      1.0000 0.96020  0.39228  0.57650  Biso   1.000  C
  H57      1.0000 0.93750  0.37140  0.54810  Biso   1.000  H
  C58      1.0000 0.01614  0.44273  0.57310  Biso   1.000  C
  H58      1.0000 0.03970  0.46280  0.54140  Biso   1.000  H
  C59      1.0000 0.02256  0.38338  0.27690  Biso   1.000  C
  H59      1.0000 0.04270  0.36310  0.31860  Biso   1.000  H
  C60      1.0000 0.97109  0.43527  0.24640  Biso   1.000  C
  H60      1.0000 0.94920  0.45730  0.26450  Biso   1.000  H
  C61      1.0000 0.18470  0.52653  0.05270  Biso   1.000  C
  H61      1.0000 0.20650  0.51250  0.11750  Biso   1.000  H
  C62      1.0000 0.13004  0.54147  0.87440  Biso   1.000  C
  H62      1.0000 0.10710  0.53950  0.79420  Biso   1.000  H
  C63      1.0000 0.11082  0.44721  0.96090  Biso   1.000  C
  H63      1.0000 0.08450  0.45230  0.03290  Biso   1.000  H
  C64      1.0000 0.17908  0.45418  0.80530  Biso   1.000  C
  H64      1.0000 0.20850  0.46480  0.75040  Biso   1.000  H
  Ag17     1.0000 0.57282  0.12480  0.88884  Biso   1.000  Ag
  Ag18     1.0000 0.69127  0.10889  0.21205  Biso   1.000  Ag
  N97      1.0000 0.74725  0.18606  0.95310  Biso   1.000  N
  N98      1.0000 0.78247  0.15306  0.95360  Biso   1.000  N
  N99      1.0000 0.75978  0.16557  0.74040  Biso   1.000  N
  N100     1.0000 0.75591  0.16197  0.59520  Biso   1.000  N
  N101     1.0000 0.73314  0.13912  0.39320  Biso   1.000  N
  N102     1.0000 0.76594  0.17241  0.37210  Biso   1.000  N
  N103     1.0000 0.57210  0.31373  0.30210  Biso   1.000  N
  N104     1.0000 0.60689  0.32330  0.18720  Biso   1.000  N
  N105     1.0000 0.59546  0.26152  0.19230  Biso   1.000  N
  N106     1.0000 0.60111  0.22307  0.15640  Biso   1.000  N
  N107     1.0000 0.63347  0.16461  0.14810  Biso   1.000  N
  N108     1.0000 0.58940  0.16916  0.04710  Biso   1.000  N
  C65      1.0000 0.78980  0.14228  0.82650  Biso   1.000  C
  H65      1.0000 0.81250  0.12140  0.79810  Biso   1.000  H
  C66      1.0000 0.73386  0.19273  0.82310  Biso   1.000  C
  H66      1.0000 0.71030  0.21280  0.79140  Biso   1.000  H
  C67      1.0000 0.72744  0.13338  0.52690  Biso   1.000  C
  H67      1.0000 0.70730  0.11310  0.56860  Biso   1.000  H
  C68      1.0000 0.77891  0.18527  0.49640  Biso   1.000  C
  H68      1.0000 0.80080  0.20730  0.51450  Biso   1.000  H
  C69      1.0000 0.56530  0.27653  0.30270  Biso   1.000  C
  H69      1.0000 0.54350  0.26250  0.36750  Biso   1.000  H
  C70      1.0000 0.61996  0.29147  0.12440  Biso   1.000  C
  H70      1.0000 0.64290  0.28950  0.04420  Biso   1.000  H
  C71      1.0000 0.63918  0.19721  0.21090  Biso   1.000  C
  H71      1.0000 0.66550  0.20230  0.28290  Biso   1.000  H
  C72      1.0000 0.57092  0.20418  0.05530  Biso   1.000  C
  H72      1.0000 0.54150  0.21480  0.00040  Biso   1.000  H
  Ag19     1.0000 0.57282  0.62480  0.38884  Biso   1.000  Ag
  Ag20     1.0000 0.69127  0.60890  0.71205  Biso   1.000  Ag
  N109     1.0000 0.74725  0.68606  0.45310  Biso   1.000  N
  N110     1.0000 0.78247  0.65306  0.45360  Biso   1.000  N
  N111     1.0000 0.75978  0.66557  0.24040  Biso   1.000  N
  N112     1.0000 0.75591  0.66197  0.09520  Biso   1.000  N
  N113     1.0000 0.73314  0.63912  0.89320  Biso   1.000  N
  N114     1.0000 0.76594  0.67241  0.87210  Biso   1.000  N
  N115     1.0000 0.57210  0.81373  0.80210  Biso   1.000  N
  N116     1.0000 0.60689  0.82330  0.68720  Biso   1.000  N
  N117     1.0000 0.59546  0.76152  0.69230  Biso   1.000  N
  N118     1.0000 0.60111  0.72307  0.65640  Biso   1.000  N
  N119     1.0000 0.63347  0.66461  0.64810  Biso   1.000  N
  N120     1.0000 0.58940  0.66916  0.54710  Biso   1.000  N
  C73      1.0000 0.78980  0.64228  0.32650  Biso   1.000  C
  H73      1.0000 0.81250  0.62140  0.29810  Biso   1.000  H
  C74      1.0000 0.73386  0.69273  0.32310  Biso   1.000  C
  H74      1.0000 0.71030  0.71280  0.29140  Biso   1.000  H
  C75      1.0000 0.72744  0.63338  0.02690  Biso   1.000  C
  H75      1.0000 0.70730  0.61310  0.06860  Biso   1.000  H
  C76      1.0000 0.77891  0.68527  0.99640  Biso   1.000  C
  H76      1.0000 0.80080  0.70730  0.01450  Biso   1.000  H
  C77      1.0000 0.56530  0.77653  0.80270  Biso   1.000  C
  H77      1.0000 0.54350  0.76250  0.86750  Biso   1.000  H
  C78      1.0000 0.61996  0.79147  0.62440  Biso   1.000  C
  H78      1.0000 0.64290  0.78950  0.54420  Biso   1.000  H
  C79      1.0000 0.63918  0.69721  0.71090  Biso   1.000  C
  H79      1.0000 0.66550  0.70230  0.78290  Biso   1.000  H
  C80      1.0000 0.57092  0.70418  0.55530  Biso   1.000  C
  H80      1.0000 0.54150  0.71480  0.50040  Biso   1.000  H
  Ag21     1.0000 0.07282  0.12480  0.38884  Biso   1.000  Ag
  Ag22     1.0000 0.19127  0.10889  0.71205  Biso   1.000  Ag
  N121     1.0000 0.24725  0.18606  0.45310  Biso   1.000  N
  N122     1.0000 0.28247  0.15306  0.45360  Biso   1.000  N
  N123     1.0000 0.25978  0.16557  0.24040  Biso   1.000  N
  N124     1.0000 0.25591  0.16197  0.09520  Biso   1.000  N
  N125     1.0000 0.23314  0.13912  0.89320  Biso   1.000  N
  N126     1.0000 0.26594  0.17241  0.87210  Biso   1.000  N
  N127     1.0000 0.07210  0.31373  0.80210  Biso   1.000  N
  N128     1.0000 0.10689  0.32330  0.68720  Biso   1.000  N
  N129     1.0000 0.09546  0.26152  0.69230  Biso   1.000  N
  N130     1.0000 0.10111  0.22307  0.65640  Biso   1.000  N
  N131     1.0000 0.13347  0.16461  0.64810  Biso   1.000  N
  N132     1.0000 0.08940  0.16916  0.54710  Biso   1.000  N
  C81      1.0000 0.28980  0.14228  0.32650  Biso   1.000  C
  H81      1.0000 0.31250  0.12140  0.29810  Biso   1.000  H
  C82      1.0000 0.23386  0.19273  0.32310  Biso   1.000  C
  H82      1.0000 0.21030  0.21280  0.29140  Biso   1.000  H
  C83      1.0000 0.22744  0.13338  0.02690  Biso   1.000  C
  H83      1.0000 0.20730  0.11310  0.06860  Biso   1.000  H
  C84      1.0000 0.27891  0.18527  0.99640  Biso   1.000  C
  H84      1.0000 0.30080  0.20730  0.01450  Biso   1.000  H
  C85      1.0000 0.06530  0.27653  0.80270  Biso   1.000  C
  H85      1.0000 0.04350  0.26250  0.86750  Biso   1.000  H
  C86      1.0000 0.11996  0.29147  0.62440  Biso   1.000  C
  H86      1.0000 0.14290  0.28950  0.54420  Biso   1.000  H
  C87      1.0000 0.13918  0.19721  0.71090  Biso   1.000  C
  H87      1.0000 0.16550  0.20230  0.78290  Biso   1.000  H
  C88      1.0000 0.07092  0.20418  0.55530  Biso   1.000  C
  H88      1.0000 0.04150  0.21480  0.50040  Biso   1.000  H
  Ag23     1.0000 0.07282  0.62480  0.88884  Biso   1.000  Ag
  Ag24     1.0000 0.19127  0.60890  0.21205  Biso   1.000  Ag
  N133     1.0000 0.24725  0.68606  0.95310  Biso   1.000  N
  N134     1.0000 0.28247  0.65306  0.95360  Biso   1.000  N
  N135     1.0000 0.25978  0.66557  0.74040  Biso   1.000  N
  N136     1.0000 0.25591  0.66197  0.59520  Biso   1.000  N
  N137     1.0000 0.23314  0.63912  0.39320  Biso   1.000  N
  N138     1.0000 0.26594  0.67241  0.37210  Biso   1.000  N
  N139     1.0000 0.07210  0.81373  0.30210  Biso   1.000  N
  N140     1.0000 0.10689  0.82330  0.18720  Biso   1.000  N
  N141     1.0000 0.09546  0.76152  0.19230  Biso   1.000  N
  N142     1.0000 0.10111  0.72307  0.15640  Biso   1.000  N
  N143     1.0000 0.13347  0.66461  0.14810  Biso   1.000  N
  N144     1.0000 0.08940  0.66916  0.04710  Biso   1.000  N
  C89      1.0000 0.28980  0.64228  0.82650  Biso   1.000  C
  H89      1.0000 0.31250  0.62140  0.79810  Biso   1.000  H
  C90      1.0000 0.23386  0.69273  0.82310  Biso   1.000  C
  H90      1.0000 0.21030  0.71280  0.79140  Biso   1.000  H
  C91      1.0000 0.22744  0.63338  0.52690  Biso   1.000  C
  H91      1.0000 0.20730  0.61310  0.56860  Biso   1.000  H
  C92      1.0000 0.27891  0.68527  0.49640  Biso   1.000  C
  H92      1.0000 0.30080  0.70730  0.51450  Biso   1.000  H
  C93      1.0000 0.06530  0.77653  0.30270  Biso   1.000  C
  H93      1.0000 0.04350  0.76250  0.36750  Biso   1.000  H
  C94      1.0000 0.11996  0.79147  0.12440  Biso   1.000  C
  H94      1.0000 0.14290  0.78950  0.04420  Biso   1.000  H
  C95      1.0000 0.13918  0.69721  0.21090  Biso   1.000  C
  H95      1.0000 0.16550  0.70230  0.28290  Biso   1.000  H
  C96      1.0000 0.07092  0.70418  0.05530  Biso   1.000  C
  H96      1.0000 0.04150  0.71480  0.00040  Biso   1.000  H
  Ag25     1.0000 0.92718  0.37520  0.88884  Biso   1.000  Ag
  Ag26     1.0000 0.80873  0.39111  0.21205  Biso   1.000  Ag
  N145     1.0000 0.75275  0.31394  0.95310  Biso   1.000  N
  N146     1.0000 0.71753  0.34694  0.95360  Biso   1.000  N
  N147     1.0000 0.74022  0.33443  0.74040  Biso   1.000  N
  N148     1.0000 0.74409  0.33803  0.59520  Biso   1.000  N
  N149     1.0000 0.76686  0.36088  0.39320  Biso   1.000  N
  N150     1.0000 0.73406  0.32759  0.37210  Biso   1.000  N
  N151     1.0000 0.92790  0.18627  0.30210  Biso   1.000  N
  N152     1.0000 0.89311  0.17670  0.18720  Biso   1.000  N
  N153     1.0000 0.90454  0.23848  0.19230  Biso   1.000  N
  N154     1.0000 0.89889  0.27693  0.15640  Biso   1.000  N
  N155     1.0000 0.86653  0.33539  0.14810  Biso   1.000  N
  N156     1.0000 0.91060  0.33084  0.04710  Biso   1.000  N
  C97      1.0000 0.71020  0.35772  0.82650  Biso   1.000  C
  H97      1.0000 0.68750  0.37860  0.79810  Biso   1.000  H
  C98      1.0000 0.76614  0.30727  0.82310  Biso   1.000  C
  H98      1.0000 0.78970  0.28720  0.79140  Biso   1.000  H
  C99      1.0000 0.77256  0.36662  0.52690  Biso   1.000  C
  H99      1.0000 0.79270  0.38690  0.56860  Biso   1.000  H
  C100     1.0000 0.72109  0.31473  0.49640  Biso   1.000  C
  H100     1.0000 0.69920  0.29270  0.51450  Biso   1.000  H
  C101     1.0000 0.93470  0.22347  0.30270  Biso   1.000  C
  H101     1.0000 0.95650  0.23750  0.36750  Biso   1.000  H
  C102     1.0000 0.88004  0.20853  0.12440  Biso   1.000  C
  H102     1.0000 0.85710  0.21050  0.04420  Biso   1.000  H
  C103     1.0000 0.86082  0.30279  0.21090  Biso   1.000  C
  H103     1.0000 0.83450  0.29770  0.28290  Biso   1.000  H
  C104     1.0000 0.92908  0.29582  0.05530  Biso   1.000  C
  H104     1.0000 0.95850  0.28520  0.00040  Biso   1.000  H
  Ag27     1.0000 0.92718  0.87520  0.38884  Biso   1.000  Ag
  Ag28     1.0000 0.80873  0.89111  0.71205  Biso   1.000  Ag
  N157     1.0000 0.75275  0.81394  0.45310  Biso   1.000  N
  N158     1.0000 0.71753  0.84694  0.45360  Biso   1.000  N
  N159     1.0000 0.74022  0.83443  0.24040  Biso   1.000  N
  N160     1.0000 0.74409  0.83803  0.09520  Biso   1.000  N
  N161     1.0000 0.76686  0.86088  0.89320  Biso   1.000  N
  N162     1.0000 0.73406  0.82759  0.87210  Biso   1.000  N
  N163     1.0000 0.92790  0.68627  0.80210  Biso   1.000  N
  N164     1.0000 0.89311  0.67670  0.68720  Biso   1.000  N
  N165     1.0000 0.90454  0.73848  0.69230  Biso   1.000  N
  N166     1.0000 0.89889  0.77693  0.65640  Biso   1.000  N
  N167     1.0000 0.86653  0.83539  0.64810  Biso   1.000  N
  N168     1.0000 0.91060  0.83084  0.54710  Biso   1.000  N
  C105     1.0000 0.71020  0.85772  0.32650  Biso   1.000  C
  H105     1.0000 0.68750  0.87860  0.29810  Biso   1.000  H
  C106     1.0000 0.76614  0.80727  0.32310  Biso   1.000  C
  H106     1.0000 0.78970  0.78720  0.29140  Biso   1.000  H
  C107     1.0000 0.77256  0.86662  0.02690  Biso   1.000  C
  H107     1.0000 0.79270  0.88690  0.06860  Biso   1.000  H
  C108     1.0000 0.72109  0.81473  0.99640  Biso   1.000  C
  H108     1.0000 0.69920  0.79270  0.01450  Biso   1.000  H
  C109     1.0000 0.93470  0.72347  0.80270  Biso   1.000  C
  H109     1.0000 0.95650  0.73750  0.86750  Biso   1.000  H
  C110     1.0000 0.88004  0.70853  0.62440  Biso   1.000  C
  H110     1.0000 0.85710  0.71050  0.54420  Biso   1.000  H
  C111     1.0000 0.86082  0.80279  0.71090  Biso   1.000  C
  H111     1.0000 0.83450  0.79770  0.78290  Biso   1.000  H
  C112     1.0000 0.92908  0.79582  0.55530  Biso   1.000  C
  H112     1.0000 0.95850  0.78520  0.50040  Biso   1.000  H
  Ag29     1.0000 0.42718  0.37520  0.38884  Biso   1.000  Ag
  Ag30     1.0000 0.30873  0.39111  0.71205  Biso   1.000  Ag
  N169     1.0000 0.25275  0.31394  0.45310  Biso   1.000  N
  N170     1.0000 0.21753  0.34694  0.45360  Biso   1.000  N
  N171     1.0000 0.24022  0.33443  0.24040  Biso   1.000  N
  N172     1.0000 0.24409  0.33803  0.09520  Biso   1.000  N
  N173     1.0000 0.26686  0.36088  0.89320  Biso   1.000  N
  N174     1.0000 0.23406  0.32759  0.87210  Biso   1.000  N
  N175     1.0000 0.42790  0.18627  0.80210  Biso   1.000  N
  N176     1.0000 0.39311  0.17670  0.68720  Biso   1.000  N
  N177     1.0000 0.40454  0.23848  0.69230  Biso   1.000  N
  N178     1.0000 0.39889  0.27693  0.65640  Biso   1.000  N
  N179     1.0000 0.36653  0.33539  0.64810  Biso   1.000  N
  N180     1.0000 0.41060  0.33084  0.54710  Biso   1.000  N
  C113     1.0000 0.21020  0.35772  0.32650  Biso   1.000  C
  H113     1.0000 0.18750  0.37860  0.29810  Biso   1.000  H
  C114     1.0000 0.26614  0.30727  0.32310  Biso   1.000  C
  H114     1.0000 0.28970  0.28720  0.29140  Biso   1.000  H
  C115     1.0000 0.27256  0.36662  0.02690  Biso   1.000  C
  H115     1.0000 0.29270  0.38690  0.06860  Biso   1.000  H
  C116     1.0000 0.22109  0.31473  0.99640  Biso   1.000  C
  H116     1.0000 0.19920  0.29270  0.01450  Biso   1.000  H
  C117     1.0000 0.43470  0.22347  0.80270  Biso   1.000  C
  H117     1.0000 0.45650  0.23750  0.86750  Biso   1.000  H
  C118     1.0000 0.38004  0.20853  0.62440  Biso   1.000  C
  H118     1.0000 0.35710  0.21050  0.54420  Biso   1.000  H
  C119     1.0000 0.36082  0.30279  0.71090  Biso   1.000  C
  H119     1.0000 0.33450  0.29770  0.78290  Biso   1.000  H
  C120     1.0000 0.42908  0.29582  0.55530  Biso   1.000  C
  H120     1.0000 0.45850  0.28520  0.50040  Biso   1.000  H
  Ag31     1.0000 0.42718  0.87520  0.88884  Biso   1.000  Ag
  Ag32     1.0000 0.30873  0.89111  0.21205  Biso   1.000  Ag
  N181     1.0000 0.25275  0.81394  0.95310  Biso   1.000  N
  N182     1.0000 0.21753  0.84694  0.95360  Biso   1.000  N
  N183     1.0000 0.24022  0.83443  0.74040  Biso   1.000  N
  N184     1.0000 0.24409  0.83803  0.59520  Biso   1.000  N
  N185     1.0000 0.26686  0.86088  0.39320  Biso   1.000  N
  N186     1.0000 0.23406  0.82759  0.37210  Biso   1.000  N
  N187     1.0000 0.42790  0.68627  0.30210  Biso   1.000  N
  N188     1.0000 0.39311  0.67670  0.18720  Biso   1.000  N
  N189     1.0000 0.40454  0.73848  0.19230  Biso   1.000  N
  N190     1.0000 0.39889  0.77693  0.15640  Biso   1.000  N
  N191     1.0000 0.36653  0.83539  0.14810  Biso   1.000  N
  N192     1.0000 0.41060  0.83084  0.04710  Biso   1.000  N
  C121     1.0000 0.21020  0.85772  0.82650  Biso   1.000  C
  H121     1.0000 0.18750  0.87860  0.79810  Biso   1.000  H
  C122     1.0000 0.26614  0.80727  0.82310  Biso   1.000  C
  H122     1.0000 0.28970  0.78720  0.79140  Biso   1.000  H
  C123     1.0000 0.27256  0.86662  0.52690  Biso   1.000  C
  H123     1.0000 0.29270  0.88690  0.56860  Biso   1.000  H
  C124     1.0000 0.22109  0.81473  0.49640  Biso   1.000  C
  H124     1.0000 0.19920  0.79270  0.51450  Biso   1.000  H
  C125     1.0000 0.43470  0.72347  0.30270  Biso   1.000  C
  H125     1.0000 0.45650  0.73750  0.36750  Biso   1.000  H
  C126     1.0000 0.38004  0.70853  0.12440  Biso   1.000  C
  H126     1.0000 0.35710  0.71050  0.04420  Biso   1.000  H
  C127     1.0000 0.36082  0.80279  0.21090  Biso   1.000  C
  H127     1.0000 0.33450  0.79770  0.28290  Biso   1.000  H
  C128     1.0000 0.42908  0.79582  0.05530  Biso   1.000  C
  H128     1.0000 0.45850  0.78520  0.00040  Biso   1.000  H
