data_image0
_cell_length_a       10.5903
_cell_length_b       13.362
_cell_length_c       20.907
_cell_angle_alpha    90
_cell_angle_beta     90
_cell_angle_gamma    113.346

_symmetry_space_group_name_H-M    P 1
_symmetry_int_tables_number       1

loop_
  _symmetry_equiv_pos_as_xyz
  'x, y, z'

loop_
  _atom_site_label
  _atom_site_occupancy
  _atom_site_fract_x
  _atom_site_fract_y
  _atom_site_fract_z
  _atom_site_thermal_displace_type
  _atom_site_B_iso_or_equiv
  _atom_site_type_symbol
  Cd1      1.0000 0.40392  0.53520  0.43566  Biso   1.000  Cd
  Cd2      1.0000 0.59608  0.46480  0.93566  Biso   1.000  Cd
  Cd3      1.0000 0.13128  0.53520  0.06434  Biso   1.000  Cd
  Cd4      1.0000 0.86872  0.46480  0.56434  Biso   1.000  Cd
  H1       1.0000 0.21910  0.46320  0.64620  Biso   1.000  H
  H2       1.0000 0.36270  0.37420  0.80220  Biso   1.000  H
  H3       1.0000 0.55460  0.38600  0.74760  Biso   1.000  H
  H4       1.0000 0.56010  0.37840  0.47610  Biso   1.000  H
  H5       1.0000 0.42070  0.37720  0.30440  Biso   1.000  H
  H6       1.0000 0.52510  0.24600  0.30590  Biso   1.000  H
  H7       1.0000 0.72260  0.27140  0.45180  Biso   1.000  H
  H8       1.0000 0.58210  0.16980  0.45560  Biso   1.000  H
  H9       1.0000 0.51050  0.03720  0.36810  Biso   1.000  H
  H10      1.0000 0.57800  0.95840  0.28310  Biso   1.000  H
  H11      1.0000 0.95140  0.19680  0.28850  Biso   1.000  H
  H12      1.0000 0.88560  0.28360  0.36960  Biso   1.000  H
  H13      1.0000 0.91700  0.65680  0.04700  Biso   1.000  H
  H14      1.0000 0.29520  0.81220  0.10660  Biso   1.000  H
  H15      1.0000 0.18950  0.94700  0.10270  Biso   1.000  H
  H16      1.0000 0.95290  0.91460  0.02560  Biso   1.000  H
  H17      1.0000 0.83370  0.80360  0.04370  Biso   1.000  H
  H18      1.0000 0.75450  0.77700  0.15990  Biso   1.000  H
  H19      1.0000 0.71410  0.86160  0.24980  Biso   1.000  H
  H20      1.0000 0.94250  0.15100  0.17890  Biso   1.000  H
  H21      1.0000 0.00040  0.07040  0.09290  Biso   1.000  H
  H22      1.0000 0.78090  0.53680  0.14620  Biso   1.000  H
  H23      1.0000 0.63730  0.62580  0.30220  Biso   1.000  H
  H24      1.0000 0.44540  0.61400  0.24760  Biso   1.000  H
  H25      1.0000 0.43990  0.62160  0.97610  Biso   1.000  H
  H26      1.0000 0.57930  0.62280  0.80440  Biso   1.000  H
  H27      1.0000 0.47490  0.75400  0.80590  Biso   1.000  H
  H28      1.0000 0.27740  0.72860  0.95180  Biso   1.000  H
  H29      1.0000 0.41790  0.83020  0.95560  Biso   1.000  H
  H30      1.0000 0.48950  0.96280  0.86810  Biso   1.000  H
  H31      1.0000 0.42200  0.04160  0.78310  Biso   1.000  H
  H32      1.0000 0.04860  0.80320  0.78850  Biso   1.000  H
  H33      1.0000 0.11440  0.71640  0.86960  Biso   1.000  H
  H34      1.0000 0.08300  0.34320  0.54700  Biso   1.000  H
  H35      1.0000 0.70480  0.18780  0.60660  Biso   1.000  H
  H36      1.0000 0.81050  0.05300  0.60270  Biso   1.000  H
  H37      1.0000 0.04710  0.08540  0.52560  Biso   1.000  H
  H38      1.0000 0.16630  0.19640  0.54370  Biso   1.000  H
  H39      1.0000 0.24550  0.22300  0.65990  Biso   1.000  H
  H40      1.0000 0.28590  0.13840  0.74980  Biso   1.000  H
  H41      1.0000 0.05750  0.84900  0.67890  Biso   1.000  H
  H42      1.0000 0.99960  0.92960  0.59290  Biso   1.000  H
  H43      1.0000 0.24410  0.46320  0.85380  Biso   1.000  H
  H44      1.0000 0.01150  0.37420  0.69780  Biso   1.000  H
  H45      1.0000 0.83140  0.38600  0.75240  Biso   1.000  H
  H46      1.0000 0.81830  0.37840  0.02390  Biso   1.000  H
  H47      1.0000 0.95650  0.37720  0.19560  Biso   1.000  H
  H48      1.0000 0.72090  0.24600  0.19410  Biso   1.000  H
  H49      1.0000 0.54880  0.27140  0.04820  Biso   1.000  H
  H50      1.0000 0.58770  0.16980  0.04440  Biso   1.000  H
  H51      1.0000 0.52670  0.03720  0.13190  Biso   1.000  H
  H52      1.0000 0.38040  0.95840  0.21690  Biso   1.000  H
  H53      1.0000 0.24540  0.19680  0.21150  Biso   1.000  H
  H54      1.0000 0.39800  0.28360  0.13040  Biso   1.000  H
  H55      1.0000 0.73980  0.65680  0.45300  Biso   1.000  H
  H56      1.0000 0.51700  0.81220  0.39340  Biso   1.000  H
  H57      1.0000 0.75750  0.94700  0.39730  Biso   1.000  H
  H58      1.0000 0.96170  0.91460  0.47440  Biso   1.000  H
  H59      1.0000 0.96990  0.80360  0.45630  Biso   1.000  H
  H60      1.0000 0.02250  0.77700  0.34010  Biso   1.000  H
  H61      1.0000 0.14750  0.86160  0.25020  Biso   1.000  H
  H62      1.0000 0.20850  0.15100  0.32110  Biso   1.000  H
  H63      1.0000 0.07000  0.07040  0.40710  Biso   1.000  H
  H64      1.0000 0.75590  0.53680  0.35380  Biso   1.000  H
  H65      1.0000 0.98850  0.62580  0.19780  Biso   1.000  H
  H66      1.0000 0.16860  0.61400  0.25240  Biso   1.000  H
  H67      1.0000 0.18170  0.62160  0.52390  Biso   1.000  H
  H68      1.0000 0.04350  0.62280  0.69560  Biso   1.000  H
  H69      1.0000 0.27910  0.75400  0.69410  Biso   1.000  H
  H70      1.0000 0.45120  0.72860  0.54820  Biso   1.000  H
  H71      1.0000 0.41230  0.83020  0.54440  Biso   1.000  H
  H72      1.0000 0.47330  0.96280  0.63190  Biso   1.000  H
  H73      1.0000 0.61960  0.04160  0.71690  Biso   1.000  H
  H74      1.0000 0.75460  0.80320  0.71150  Biso   1.000  H
  H75      1.0000 0.60200  0.71640  0.63040  Biso   1.000  H
  H76      1.0000 0.26020  0.34320  0.95300  Biso   1.000  H
  H77      1.0000 0.48300  0.18780  0.89340  Biso   1.000  H
  H78      1.0000 0.24250  0.05300  0.89730  Biso   1.000  H
  H79      1.0000 0.03830  0.08540  0.97440  Biso   1.000  H
  H80      1.0000 0.03010  0.19640  0.95630  Biso   1.000  H
  H81      1.0000 0.97750  0.22300  0.84010  Biso   1.000  H
  H82      1.0000 0.85250  0.13840  0.75020  Biso   1.000  H
  H83      1.0000 0.79150  0.84900  0.82110  Biso   1.000  H
  H84      1.0000 0.93000  0.92960  0.90710  Biso   1.000  H
  C1       1.0000 0.41690  0.48920  0.56270  Biso   1.000  C
  C2       1.0000 0.40180  0.45520  0.63180  Biso   1.000  C
  C3       1.0000 0.28800  0.44900  0.66690  Biso   1.000  C
  C4       1.0000 0.27150  0.42240  0.73180  Biso   1.000  C
  C5       1.0000 0.37250  0.39620  0.75970  Biso   1.000  C
  C6       1.0000 0.48740  0.40180  0.72660  Biso   1.000  C
  C7       1.0000 0.50510  0.43060  0.66260  Biso   1.000  C
  C8       1.0000 0.63210  0.43320  0.62770  Biso   1.000  C
  C9       1.0000 0.53840  0.36200  0.43320  Biso   1.000  C
  C10      1.0000 0.46210  0.36120  0.34000  Biso   1.000  C
  C11      1.0000 0.52050  0.28900  0.34010  Biso   1.000  C
  C12      1.0000 0.64390  0.22460  0.42700  Biso   1.000  C
  C13      1.0000 0.69090  0.17040  0.37610  Biso   1.000  C
  C14      1.0000 0.59870  0.07080  0.35130  Biso   1.000  C
  C15      1.0000 0.64120  0.02260  0.30080  Biso   1.000  C
  C16      1.0000 0.77480  0.06680  0.27580  Biso   1.000  C
  C17      1.0000 0.86160  0.16460  0.30370  Biso   1.000  C
  C18      1.0000 0.82340  0.21800  0.35300  Biso   1.000  C
  C19      1.0000 0.99820  0.71100  0.06160  Biso   1.000  C
  C20      1.0000 0.20510  0.79720  0.09440  Biso   1.000  C
  C21      1.0000 0.14890  0.87340  0.09230  Biso   1.000  C
  C22      1.0000 0.91810  0.86040  0.05920  Biso   1.000  C
  C23      1.0000 0.88360  0.91500  0.11900  Biso   1.000  C
  C24      1.0000 0.79560  0.85240  0.16420  Biso   1.000  C
  C25      1.0000 0.76850  0.90400  0.21700  Biso   1.000  C
  C26      1.0000 0.81930  0.01500  0.22220  Biso   1.000  C
  C27      1.0000 0.90570  0.07540  0.17570  Biso   1.000  C
  C28      1.0000 0.94020  0.02780  0.12400  Biso   1.000  C
  C29      1.0000 0.58310  0.51080  0.06270  Biso   1.000  C
  C30      1.0000 0.59820  0.54480  0.13180  Biso   1.000  C
  C31      1.0000 0.71200  0.55100  0.16690  Biso   1.000  C
  C32      1.0000 0.72850  0.57760  0.23180  Biso   1.000  C
  C33      1.0000 0.62750  0.60380  0.25970  Biso   1.000  C
  C34      1.0000 0.51260  0.59820  0.22660  Biso   1.000  C
  C35      1.0000 0.49490  0.56940  0.16260  Biso   1.000  C
  C36      1.0000 0.36790  0.56680  0.12770  Biso   1.000  C
  C37      1.0000 0.46160  0.63800  0.93320  Biso   1.000  C
  C38      1.0000 0.53790  0.63880  0.84000  Biso   1.000  C
  C39      1.0000 0.47950  0.71100  0.84010  Biso   1.000  C
  C40      1.0000 0.35610  0.77540  0.92700  Biso   1.000  C
  C41      1.0000 0.30910  0.82960  0.87610  Biso   1.000  C
  C42      1.0000 0.40130  0.92920  0.85130  Biso   1.000  C
  C43      1.0000 0.35880  0.97740  0.80080  Biso   1.000  C
  C44      1.0000 0.22520  0.93320  0.77580  Biso   1.000  C
  C45      1.0000 0.13840  0.83540  0.80370  Biso   1.000  C
  C46      1.0000 0.17660  0.78200  0.85300  Biso   1.000  C
  C47      1.0000 0.00180  0.28900  0.56160  Biso   1.000  C
  C48      1.0000 0.79490  0.20280  0.59440  Biso   1.000  C
  C49      1.0000 0.85110  0.12660  0.59230  Biso   1.000  C
  C50      1.0000 0.08190  0.13960  0.55920  Biso   1.000  C
  C51      1.0000 0.11640  0.08500  0.61900  Biso   1.000  C
  C52      1.0000 0.20440  0.14760  0.66420  Biso   1.000  C
  C53      1.0000 0.23150  0.09600  0.71700  Biso   1.000  C
  C54      1.0000 0.18070  0.98500  0.72220  Biso   1.000  C
  C55      1.0000 0.09430  0.92460  0.67570  Biso   1.000  C
  C56      1.0000 0.05980  0.97220  0.62400  Biso   1.000  C
  C57      1.0000 0.07230  0.48920  0.93730  Biso   1.000  C
  C58      1.0000 0.05340  0.45520  0.86820  Biso   1.000  C
  C59      1.0000 0.16100  0.44900  0.83310  Biso   1.000  C
  C60      1.0000 0.15090  0.42240  0.76820  Biso   1.000  C
  C61      1.0000 0.02370  0.39620  0.74030  Biso   1.000  C
  C62      1.0000 0.91440  0.40180  0.77340  Biso   1.000  C
  C63      1.0000 0.92550  0.43060  0.83740  Biso   1.000  C
  C64      1.0000 0.80110  0.43320  0.87230  Biso   1.000  C
  C65      1.0000 0.82360  0.36200  0.06680  Biso   1.000  C
  C66      1.0000 0.89910  0.36120  0.16000  Biso   1.000  C
  C67      1.0000 0.76850  0.28900  0.15990  Biso   1.000  C
  C68      1.0000 0.58070  0.22460  0.07300  Biso   1.000  C
  C69      1.0000 0.47950  0.17040  0.12390  Biso   1.000  C
  C70      1.0000 0.47210  0.07080  0.14870  Biso   1.000  C
  C71      1.0000 0.38140  0.02260  0.19920  Biso   1.000  C
  C72      1.0000 0.29200  0.06680  0.22420  Biso   1.000  C
  C73      1.0000 0.30300  0.16460  0.19630  Biso   1.000  C
  C74      1.0000 0.39460  0.21800  0.14700  Biso   1.000  C
  C75      1.0000 0.71280  0.71100  0.43840  Biso   1.000  C
  C76      1.0000 0.59210  0.79720  0.40560  Biso   1.000  C
  C77      1.0000 0.72450  0.87340  0.40770  Biso   1.000  C
  C78      1.0000 0.94230  0.86040  0.44080  Biso   1.000  C
  C79      1.0000 0.03140  0.91500  0.38100  Biso   1.000  C
  C80      1.0000 0.05680  0.85240  0.33580  Biso   1.000  C
  C81      1.0000 0.13550  0.90400  0.28300  Biso   1.000  C
  C82      1.0000 0.19570  0.01500  0.27780  Biso   1.000  C
  C83      1.0000 0.16970  0.07540  0.32430  Biso   1.000  C
  C84      1.0000 0.08760  0.02780  0.37600  Biso   1.000  C
  C85      1.0000 0.92770  0.51080  0.43730  Biso   1.000  C
  C86      1.0000 0.94660  0.54480  0.36820  Biso   1.000  C
  C87      1.0000 0.83900  0.55100  0.33310  Biso   1.000  C
  C88      1.0000 0.84910  0.57760  0.26820  Biso   1.000  C
  C89      1.0000 0.97630  0.60380  0.24030  Biso   1.000  C
  C90      1.0000 0.08560  0.59820  0.27340  Biso   1.000  C
  C91      1.0000 0.07450  0.56940  0.33740  Biso   1.000  C
  C92      1.0000 0.19890  0.56680  0.37230  Biso   1.000  C
  C93      1.0000 0.17640  0.63800  0.56680  Biso   1.000  C
  C94      1.0000 0.10090  0.63880  0.66000  Biso   1.000  C
  C95      1.0000 0.23150  0.71100  0.65990  Biso   1.000  C
  C96      1.0000 0.41930  0.77540  0.57300  Biso   1.000  C
  C97      1.0000 0.52050  0.82960  0.62390  Biso   1.000  C
  C98      1.0000 0.52790  0.92920  0.64870  Biso   1.000  C
  C99      1.0000 0.61860  0.97740  0.69920  Biso   1.000  C
  C100     1.0000 0.70800  0.93320  0.72420  Biso   1.000  C
  C101     1.0000 0.69700  0.83540  0.69630  Biso   1.000  C
  C102     1.0000 0.60540  0.78200  0.64700  Biso   1.000  C
  C103     1.0000 0.28720  0.28900  0.93840  Biso   1.000  C
  C104     1.0000 0.40790  0.20280  0.90560  Biso   1.000  C
  C105     1.0000 0.27550  0.12660  0.90770  Biso   1.000  C
  C106     1.0000 0.05770  0.13960  0.94080  Biso   1.000  C
  C107     1.0000 0.96860  0.08500  0.88100  Biso   1.000  C
  C108     1.0000 0.94320  0.14760  0.83580  Biso   1.000  C
  C109     1.0000 0.86450  0.09600  0.78300  Biso   1.000  C
  C110     1.0000 0.80430  0.98500  0.77780  Biso   1.000  C
  C111     1.0000 0.83030  0.92460  0.82430  Biso   1.000  C
  C112     1.0000 0.91240  0.97220  0.87600  Biso   1.000  C
  N1       1.0000 0.47060  0.40780  0.39830  Biso   1.000  N
  N2       1.0000 0.57260  0.29020  0.40060  Biso   1.000  N
  N3       1.0000 0.11140  0.69500  0.07630  Biso   1.000  N
  N4       1.0000 0.01650  0.81360  0.07060  Biso   1.000  N
  N5       1.0000 0.52940  0.59220  0.89830  Biso   1.000  N
  N6       1.0000 0.42740  0.70980  0.90060  Biso   1.000  N
  N7       1.0000 0.88860  0.30500  0.57630  Biso   1.000  N
  N8       1.0000 0.98350  0.18640  0.57060  Biso   1.000  N
  N9       1.0000 0.93720  0.40780  0.10170  Biso   1.000  N
  N10      1.0000 0.71760  0.29020  0.09940  Biso   1.000  N
  N11      1.0000 0.58360  0.69500  0.42370  Biso   1.000  N
  N12      1.0000 0.79710  0.81360  0.42940  Biso   1.000  N
  N13      1.0000 0.06280  0.59220  0.60170  Biso   1.000  N
  N14      1.0000 0.28240  0.70980  0.59940  Biso   1.000  N
  N15      1.0000 0.41640  0.30500  0.92370  Biso   1.000  N
  N16      1.0000 0.20290  0.18640  0.92940  Biso   1.000  N
  O1       1.0000 0.30800  0.45920  0.52960  Biso   1.000  O
  O2       1.0000 0.53130  0.54480  0.54118  Biso   1.000  O
  O3       1.0000 0.61950  0.36900  0.58250  Biso   1.000  O
  O4       1.0000 0.74600  0.50060  0.64600  Biso   1.000  O
  O5       1.0000 0.69200  0.54080  0.02960  Biso   1.000  O
  O6       1.0000 0.46870  0.45520  0.04118  Biso   1.000  O
  O7       1.0000 0.38050  0.63100  0.08250  Biso   1.000  O
  O8       1.0000 0.25400  0.49940  0.14600  Biso   1.000  O
  O9       1.0000 0.15120  0.45920  0.97040  Biso   1.000  O
  O10      1.0000 0.01350  0.54480  0.95882  Biso   1.000  O
  O11      1.0000 0.74950  0.36900  0.91750  Biso   1.000  O
  O12      1.0000 0.75460  0.50060  0.85400  Biso   1.000  O
  O13      1.0000 0.84880  0.54080  0.47040  Biso   1.000  O
  O14      1.0000 0.98650  0.45520  0.45882  Biso   1.000  O
  O15      1.0000 0.25050  0.63100  0.41750  Biso   1.000  O
  O16      1.0000 0.24540  0.49940  0.35400  Biso   1.000  O
