data_image0
_cell_length_a       13.655
_cell_length_b       15.189
_cell_length_c       20.9121
_cell_angle_alpha    90
_cell_angle_beta     102.488
_cell_angle_gamma    90

_symmetry_space_group_name_H-M    P 1
_symmetry_int_tables_number       1

loop_
  _symmetry_equiv_pos_as_xyz
  'x, y, z'

loop_
  _atom_site_label
  _atom_site_occupancy
  _atom_site_fract_x
  _atom_site_fract_y
  _atom_site_fract_z
  _atom_site_thermal_displace_type
  _atom_site_B_iso_or_equiv
  _atom_site_type_symbol
  Co1      1.0000 0.24474  0.25907  0.46109  Biso   1.000  Co
  Co2      1.0000 0.81889  0.25703  0.60305  Biso   1.000  Co
  Co3      1.0000 0.29857  0.36575  0.79981  Biso   1.000  Co
  Co4      1.0000 0.25526  0.75907  0.03891  Biso   1.000  Co
  Co5      1.0000 0.68111  0.75703  0.89695  Biso   1.000  Co
  Co6      1.0000 0.20143  0.86575  0.70019  Biso   1.000  Co
  Co7      1.0000 0.75526  0.74093  0.53891  Biso   1.000  Co
  Co8      1.0000 0.18111  0.74297  0.39695  Biso   1.000  Co
  Co9      1.0000 0.70143  0.63425  0.20019  Biso   1.000  Co
  Co10     1.0000 0.74474  0.24093  0.96109  Biso   1.000  Co
  Co11     1.0000 0.31889  0.24297  0.10305  Biso   1.000  Co
  Co12     1.0000 0.79857  0.13425  0.29981  Biso   1.000  Co
  H1       1.0000 0.45030  0.34950  0.69640  Biso   1.000  H
  H2       1.0000 0.43330  0.31980  0.58590  Biso   1.000  H
  H3       1.0000 0.00360  0.23010  0.41010  Biso   1.000  H
  H4       1.0000 0.86300  0.23270  0.45640  Biso   1.000  H
  H5       1.0000 0.91410  0.30550  0.76070  Biso   1.000  H
  H6       1.0000 0.07030  0.33720  0.82380  Biso   1.000  H
  H7       1.0000 0.04970  0.84950  0.80360  Biso   1.000  H
  H8       1.0000 0.06670  0.81980  0.91410  Biso   1.000  H
  H9       1.0000 0.49640  0.73010  0.08990  Biso   1.000  H
  H10      1.0000 0.63700  0.73270  0.04360  Biso   1.000  H
  H11      1.0000 0.58590  0.80550  0.73930  Biso   1.000  H
  H12      1.0000 0.42970  0.83720  0.67620  Biso   1.000  H
  H13      1.0000 0.54970  0.65050  0.30360  Biso   1.000  H
  H14      1.0000 0.56670  0.68020  0.41410  Biso   1.000  H
  H15      1.0000 0.99640  0.76990  0.58990  Biso   1.000  H
  H16      1.0000 0.13700  0.76730  0.54360  Biso   1.000  H
  H17      1.0000 0.08590  0.69450  0.23930  Biso   1.000  H
  H18      1.0000 0.92970  0.66280  0.17620  Biso   1.000  H
  H19      1.0000 0.95030  0.15050  0.19640  Biso   1.000  H
  H20      1.0000 0.93330  0.18020  0.08590  Biso   1.000  H
  H21      1.0000 0.50360  0.26990  0.91010  Biso   1.000  H
  H22      1.0000 0.36300  0.26730  0.95640  Biso   1.000  H
  H23      1.0000 0.41410  0.19450  0.26070  Biso   1.000  H
  H24      1.0000 0.57030  0.16280  0.32380  Biso   1.000  H
  C1       1.0000 0.31780  0.14320  0.81180  Biso   1.000  C
  C2       1.0000 0.20770  0.29720  0.59450  Biso   1.000  C
  C3       1.0000 0.10810  0.27520  0.55490  Biso   1.000  C
  C4       1.0000 0.02640  0.27480  0.58220  Biso   1.000  C
  C5       1.0000 0.03700  0.29530  0.65140  Biso   1.000  C
  C6       1.0000 0.13010  0.31550  0.69050  Biso   1.000  C
  C7       1.0000 0.21940  0.31660  0.66030  Biso   1.000  C
  C8       1.0000 0.38580  0.33580  0.67070  Biso   1.000  C
  C9       1.0000 0.37580  0.31690  0.60460  Biso   1.000  C
  C10      1.0000 0.01210  0.24260  0.45550  Biso   1.000  C
  C11      1.0000 0.92720  0.24280  0.48370  Biso   1.000  C
  C12      1.0000 0.96980  0.30790  0.74030  Biso   1.000  C
  C13      1.0000 0.06380  0.32690  0.77830  Biso   1.000  C
  C14      1.0000 0.27200  0.05830  0.50930  Biso   1.000  C
  C15      1.0000 0.24240  0.43930  0.92740  Biso   1.000  C
  C16      1.0000 0.15520  0.23540  0.31000  Biso   1.000  C
  C17      1.0000 0.68010  0.26910  0.70620  Biso   1.000  C
  C18      1.0000 0.46920  0.25330  0.44220  Biso   1.000  C
  C19      1.0000 0.63680  0.23920  0.48190  Biso   1.000  C
  C20      1.0000 0.87610  0.05600  0.64000  Biso   1.000  C
  C21      1.0000 0.52250  0.44220  0.83570  Biso   1.000  C
  C22      1.0000 0.18220  0.64320  0.68820  Biso   1.000  C
  C23      1.0000 0.29230  0.79720  0.90550  Biso   1.000  C
  C24      1.0000 0.39190  0.77520  0.94510  Biso   1.000  C
  C25      1.0000 0.47360  0.77480  0.91780  Biso   1.000  C
  C26      1.0000 0.46300  0.79530  0.84860  Biso   1.000  C
  C27      1.0000 0.36990  0.81550  0.80950  Biso   1.000  C
  C28      1.0000 0.28060  0.81660  0.83970  Biso   1.000  C
  C29      1.0000 0.11420  0.83580  0.82930  Biso   1.000  C
  C30      1.0000 0.12420  0.81690  0.89540  Biso   1.000  C
  C31      1.0000 0.48790  0.74260  0.04450  Biso   1.000  C
  C32      1.0000 0.57280  0.74280  0.01630  Biso   1.000  C
  C33      1.0000 0.53020  0.80790  0.75970  Biso   1.000  C
  C34      1.0000 0.43620  0.82690  0.72170  Biso   1.000  C
  C35      1.0000 0.22800  0.55830  0.99070  Biso   1.000  C
  C36      1.0000 0.25760  0.93930  0.57260  Biso   1.000  C
  C37      1.0000 0.34480  0.73540  0.19000  Biso   1.000  C
  C38      1.0000 0.81990  0.76910  0.79380  Biso   1.000  C
  C39      1.0000 0.03080  0.75330  0.05780  Biso   1.000  C
  C40      1.0000 0.86320  0.73920  0.01810  Biso   1.000  C
  C41      1.0000 0.62390  0.55600  0.86000  Biso   1.000  C
  C42      1.0000 0.97750  0.94220  0.66430  Biso   1.000  C
  C43      1.0000 0.68220  0.85680  0.18820  Biso   1.000  C
  C44      1.0000 0.79230  0.70280  0.40550  Biso   1.000  C
  C45      1.0000 0.89190  0.72480  0.44510  Biso   1.000  C
  C46      1.0000 0.97360  0.72520  0.41780  Biso   1.000  C
  C47      1.0000 0.96300  0.70470  0.34860  Biso   1.000  C
  C48      1.0000 0.86990  0.68450  0.30950  Biso   1.000  C
  C49      1.0000 0.78060  0.68340  0.33970  Biso   1.000  C
  C50      1.0000 0.61420  0.66420  0.32930  Biso   1.000  C
  C51      1.0000 0.62420  0.68310  0.39540  Biso   1.000  C
  C52      1.0000 0.98790  0.75740  0.54450  Biso   1.000  C
  C53      1.0000 0.07280  0.75720  0.51630  Biso   1.000  C
  C54      1.0000 0.03020  0.69210  0.25970  Biso   1.000  C
  C55      1.0000 0.93620  0.67310  0.22170  Biso   1.000  C
  C56      1.0000 0.72800  0.94170  0.49070  Biso   1.000  C
  C57      1.0000 0.75760  0.56070  0.07260  Biso   1.000  C
  C58      1.0000 0.84480  0.76460  0.69000  Biso   1.000  C
  C59      1.0000 0.31990  0.73090  0.29380  Biso   1.000  C
  C60      1.0000 0.53080  0.74670  0.55780  Biso   1.000  C
  C61      1.0000 0.36320  0.76080  0.51810  Biso   1.000  C
  C62      1.0000 0.12390  0.94400  0.36000  Biso   1.000  C
  C63      1.0000 0.47750  0.55780  0.16430  Biso   1.000  C
  C64      1.0000 0.81780  0.35680  0.31180  Biso   1.000  C
  C65      1.0000 0.70770  0.20280  0.09450  Biso   1.000  C
  C66      1.0000 0.60810  0.22480  0.05490  Biso   1.000  C
  C67      1.0000 0.52640  0.22520  0.08220  Biso   1.000  C
  C68      1.0000 0.53700  0.20470  0.15140  Biso   1.000  C
  C69      1.0000 0.63010  0.18450  0.19050  Biso   1.000  C
  C70      1.0000 0.71940  0.18340  0.16030  Biso   1.000  C
  C71      1.0000 0.88580  0.16420  0.17070  Biso   1.000  C
  C72      1.0000 0.87580  0.18310  0.10460  Biso   1.000  C
  C73      1.0000 0.51210  0.25740  0.95550  Biso   1.000  C
  C74      1.0000 0.42720  0.25720  0.98370  Biso   1.000  C
  C75      1.0000 0.46980  0.19210  0.24030  Biso   1.000  C
  C76      1.0000 0.56380  0.17310  0.27830  Biso   1.000  C
  C77      1.0000 0.77200  0.44170  0.00930  Biso   1.000  C
  C78      1.0000 0.74240  0.06070  0.42740  Biso   1.000  C
  C79      1.0000 0.65520  0.26460  0.81000  Biso   1.000  C
  C80      1.0000 0.18010  0.23090  0.20620  Biso   1.000  C
  C81      1.0000 0.96920  0.24670  0.94220  Biso   1.000  C
  C82      1.0000 0.13680  0.26080  0.98190  Biso   1.000  C
  C83      1.0000 0.37610  0.44400  0.14000  Biso   1.000  C
  C84      1.0000 0.02250  0.05780  0.33570  Biso   1.000  C
  N1       1.0000 0.28670  0.29460  0.56620  Biso   1.000  N
  N2       1.0000 0.10230  0.25910  0.48980  Biso   1.000  N
  N3       1.0000 0.93410  0.25670  0.54670  Biso   1.000  N
  N4       1.0000 0.95500  0.29300  0.67690  Biso   1.000  N
  N5       1.0000 0.14460  0.33110  0.75330  Biso   1.000  N
  N6       1.0000 0.30740  0.33510  0.69910  Biso   1.000  N
  N7       1.0000 0.26020  0.12890  0.48890  Biso   1.000  N
  N8       1.0000 0.28840  0.97950  0.52370  Biso   1.000  N
  N9       1.0000 0.26260  0.39910  0.88680  Biso   1.000  N
  N10      1.0000 0.17920  0.24360  0.36360  Biso   1.000  N
  N11      1.0000 0.11830  0.22330  0.24660  Biso   1.000  N
  N12      1.0000 0.72590  0.26580  0.66680  Biso   1.000  N
  N13      1.0000 0.38800  0.26500  0.44610  Biso   1.000  N
  N14      1.0000 0.56170  0.26500  0.43030  Biso   1.000  N
  N15      1.0000 0.70530  0.24260  0.52070  Biso   1.000  N
  N16      1.0000 0.84760  0.12630  0.62340  Biso   1.000  N
  N17      1.0000 0.89140  0.97620  0.65550  Biso   1.000  N
  N18      1.0000 0.44970  0.40130  0.82490  Biso   1.000  N
  N19      1.0000 0.32570  0.23730  0.82480  Biso   1.000  N
  N20      1.0000 0.25450  0.49150  0.76460  Biso   1.000  N
  N21      1.0000 0.21330  0.79460  0.93380  Biso   1.000  N
  N22      1.0000 0.39770  0.75910  0.01020  Biso   1.000  N
  N23      1.0000 0.56590  0.75670  0.95330  Biso   1.000  N
  N24      1.0000 0.54500  0.79300  0.82310  Biso   1.000  N
  N25      1.0000 0.35540  0.83110  0.74670  Biso   1.000  N
  N26      1.0000 0.19260  0.83510  0.80090  Biso   1.000  N
  N27      1.0000 0.23980  0.62890  0.01110  Biso   1.000  N
  N28      1.0000 0.21160  0.47950  0.97630  Biso   1.000  N
  N29      1.0000 0.23740  0.89910  0.61320  Biso   1.000  N
  N30      1.0000 0.32080  0.74360  0.13640  Biso   1.000  N
  N31      1.0000 0.38170  0.72330  0.25340  Biso   1.000  N
  N32      1.0000 0.77410  0.76580  0.83320  Biso   1.000  N
  N33      1.0000 0.11200  0.76500  0.05390  Biso   1.000  N
  N34      1.0000 0.93830  0.76500  0.06970  Biso   1.000  N
  N35      1.0000 0.79470  0.74260  0.97930  Biso   1.000  N
  N36      1.0000 0.65240  0.62630  0.87660  Biso   1.000  N
  N37      1.0000 0.60860  0.47620  0.84450  Biso   1.000  N
  N38      1.0000 0.05030  0.90130  0.67510  Biso   1.000  N
  N39      1.0000 0.17430  0.73730  0.67520  Biso   1.000  N
  N40      1.0000 0.24550  0.99150  0.73540  Biso   1.000  N
  N41      1.0000 0.71330  0.70540  0.43380  Biso   1.000  N
  N42      1.0000 0.89770  0.74090  0.51020  Biso   1.000  N
  N43      1.0000 0.06590  0.74330  0.45330  Biso   1.000  N
  N44      1.0000 0.04500  0.70700  0.32310  Biso   1.000  N
  N45      1.0000 0.85540  0.66890  0.24670  Biso   1.000  N
  N46      1.0000 0.69260  0.66490  0.30090  Biso   1.000  N
  N47      1.0000 0.73980  0.87110  0.51110  Biso   1.000  N
  N48      1.0000 0.71160  0.02050  0.47630  Biso   1.000  N
  N49      1.0000 0.73740  0.60090  0.11320  Biso   1.000  N
  N50      1.0000 0.82080  0.75640  0.63640  Biso   1.000  N
  N51      1.0000 0.88170  0.77670  0.75340  Biso   1.000  N
  N52      1.0000 0.27410  0.73420  0.33320  Biso   1.000  N
  N53      1.0000 0.61200  0.73500  0.55390  Biso   1.000  N
  N54      1.0000 0.43830  0.73500  0.56970  Biso   1.000  N
  N55      1.0000 0.29470  0.75740  0.47930  Biso   1.000  N
  N56      1.0000 0.15240  0.87370  0.37660  Biso   1.000  N
  N57      1.0000 0.10860  0.02380  0.34450  Biso   1.000  N
  N58      1.0000 0.55030  0.59870  0.17510  Biso   1.000  N
  N59      1.0000 0.67430  0.76270  0.17520  Biso   1.000  N
  N60      1.0000 0.74550  0.50850  0.23540  Biso   1.000  N
  N61      1.0000 0.78670  0.20540  0.06620  Biso   1.000  N
  N62      1.0000 0.60230  0.24090  0.98980  Biso   1.000  N
  N63      1.0000 0.43410  0.24330  0.04670  Biso   1.000  N
  N64      1.0000 0.45500  0.20700  0.17690  Biso   1.000  N
  N65      1.0000 0.64460  0.16890  0.25330  Biso   1.000  N
  N66      1.0000 0.80740  0.16490  0.19910  Biso   1.000  N
  N67      1.0000 0.76020  0.37110  0.98890  Biso   1.000  N
  N68      1.0000 0.78840  0.52050  0.02370  Biso   1.000  N
  N69      1.0000 0.76260  0.10090  0.38680  Biso   1.000  N
  N70      1.0000 0.67920  0.25640  0.86360  Biso   1.000  N
  N71      1.0000 0.61830  0.27670  0.74660  Biso   1.000  N
  N72      1.0000 0.22590  0.23420  0.16680  Biso   1.000  N
  N73      1.0000 0.88800  0.23500  0.94610  Biso   1.000  N
  N74      1.0000 0.06170  0.23500  0.93030  Biso   1.000  N
  N75      1.0000 0.20530  0.25740  0.02070  Biso   1.000  N
  N76      1.0000 0.34760  0.37370  0.12340  Biso   1.000  N
  N77      1.0000 0.39140  0.52380  0.15550  Biso   1.000  N
  N78      1.0000 0.94970  0.09870  0.32490  Biso   1.000  N
  N79      1.0000 0.82570  0.26270  0.32480  Biso   1.000  N
  N80      1.0000 0.75450  0.00850  0.26460  Biso   1.000  N
  O1       1.0000 0.22650  0.39670  0.44630  Biso   1.000  O
  O2       1.0000 0.80460  0.39570  0.58670  Biso   1.000  O
  O3       1.0000 0.27350  0.89670  0.05370  Biso   1.000  O
  O4       1.0000 0.69540  0.89570  0.91330  Biso   1.000  O
  O5       1.0000 0.77350  0.60330  0.55370  Biso   1.000  O
  O6       1.0000 0.19540  0.60430  0.41330  Biso   1.000  O
  O7       1.0000 0.72650  0.10330  0.94630  Biso   1.000  O
  O8       1.0000 0.30460  0.10430  0.08670  Biso   1.000  O
