data_image0
_cell_length_a       9.80398
_cell_length_b       16.8386
_cell_length_c       16.8386
_cell_angle_alpha    85.1384
_cell_angle_beta     73.0752
_cell_angle_gamma    73.0753

_symmetry_space_group_name_H-M    P 1
_symmetry_int_tables_number       1

loop_
  _symmetry_equiv_pos_as_xyz
  'x, y, z'

loop_
  _atom_site_label
  _atom_site_occupancy
  _atom_site_fract_x
  _atom_site_fract_y
  _atom_site_fract_z
  _atom_site_thermal_displace_type
  _atom_site_B_iso_or_equiv
  _atom_site_type_symbol
  Cu1      1.0000 0.00000  0.50000  0.50000  Biso   1.000  Cu
  Cu2      1.0000 0.50000  0.00000  0.00000  Biso   1.000  Cu
  Cu3      1.0000 0.50000  0.50000  0.00000  Biso   1.000  Cu
  Cu4      1.0000 0.50000  0.00000  0.50000  Biso   1.000  Cu
  H1       1.0000 0.27570  0.52080  0.38520  Biso   1.000  H
  H2       1.0000 0.51420  0.44640  0.32340  Biso   1.000  H
  H3       1.0000 0.40670  0.24130  0.42190  Biso   1.000  H
  H4       1.0000 0.16960  0.32200  0.47620  Biso   1.000  H
  H5       1.0000 0.69810  0.34890  0.23670  Biso   1.000  H
  H6       1.0000 0.75460  0.36110  0.31210  Biso   1.000  H
  H7       1.0000 0.95210  0.37650  0.75550  Biso   1.000  H
  H8       1.0000 0.10060  0.31450  0.70630  Biso   1.000  H
  H9       1.0000 0.10440  0.38230  0.76330  Biso   1.000  H
  H10      1.0000 0.68170  0.97920  0.11480  Biso   1.000  H
  H11      1.0000 0.78400  0.05360  0.17660  Biso   1.000  H
  H12      1.0000 0.56990  0.25870  0.07810  Biso   1.000  H
  H13      1.0000 0.46780  0.17800  0.02380  Biso   1.000  H
  H14      1.0000 0.78370  0.15110  0.26330  Biso   1.000  H
  H15      1.0000 0.92780  0.13890  0.18790  Biso   1.000  H
  H16      1.0000 0.58410  0.12350  0.74450  Biso   1.000  H
  H17      1.0000 0.62140  0.18550  0.79370  Biso   1.000  H
  H18      1.0000 0.75000  0.11770  0.73670  Biso   1.000  H
  H19      1.0000 0.66090  0.61480  0.02080  Biso   1.000  H
  H20      1.0000 0.83760  0.67660  0.94640  Biso   1.000  H
  H21      1.0000 0.82860  0.57810  0.74130  Biso   1.000  H
  H22      1.0000 0.64580  0.52380  0.82200  Biso   1.000  H
  H23      1.0000 0.93480  0.76330  0.84890  Biso   1.000  H
  H24      1.0000 0.06670  0.68790  0.86110  Biso   1.000  H
  H25      1.0000 0.70760  0.24450  0.87650  Biso   1.000  H
  H26      1.0000 0.80690  0.29370  0.81450  Biso   1.000  H
  H27      1.0000 0.86770  0.23670  0.88230  Biso   1.000  H
  H28      1.0000 0.79650  0.88520  0.47920  Biso   1.000  H
  H29      1.0000 0.96060  0.82340  0.55360  Biso   1.000  H
  H30      1.0000 0.64800  0.92190  0.75870  Biso   1.000  H
  H31      1.0000 0.49160  0.97620  0.67800  Biso   1.000  H
  H32      1.0000 0.04700  0.73670  0.65110  Biso   1.000  H
  H33      1.0000 0.11570  0.81210  0.63890  Biso   1.000  H
  H34      1.0000 0.32860  0.25550  0.62350  Biso   1.000  H
  H35      1.0000 0.41510  0.20630  0.68550  Biso   1.000  H
  H36      1.0000 0.48670  0.26330  0.61770  Biso   1.000  H
  H37      1.0000 0.72430  0.47920  0.61480  Biso   1.000  H
  H38      1.0000 0.48580  0.55360  0.67660  Biso   1.000  H
  H39      1.0000 0.59330  0.75870  0.57810  Biso   1.000  H
  H40      1.0000 0.83040  0.67800  0.52380  Biso   1.000  H
  H41      1.0000 0.30190  0.65110  0.76330  Biso   1.000  H
  H42      1.0000 0.24540  0.63890  0.68790  Biso   1.000  H
  H43      1.0000 0.04790  0.62350  0.24450  Biso   1.000  H
  H44      1.0000 0.89940  0.68550  0.29370  Biso   1.000  H
  H45      1.0000 0.89560  0.61770  0.23670  Biso   1.000  H
  H46      1.0000 0.31830  0.02080  0.88520  Biso   1.000  H
  H47      1.0000 0.21600  0.94640  0.82340  Biso   1.000  H
  H48      1.0000 0.43010  0.74130  0.92190  Biso   1.000  H
  H49      1.0000 0.53220  0.82200  0.97620  Biso   1.000  H
  H50      1.0000 0.21630  0.84890  0.73670  Biso   1.000  H
  H51      1.0000 0.07220  0.86110  0.81210  Biso   1.000  H
  H52      1.0000 0.41590  0.87650  0.25550  Biso   1.000  H
  H53      1.0000 0.37860  0.81450  0.20630  Biso   1.000  H
  H54      1.0000 0.25000  0.88230  0.26330  Biso   1.000  H
  H55      1.0000 0.33910  0.38520  0.97920  Biso   1.000  H
  H56      1.0000 0.16240  0.32340  0.05360  Biso   1.000  H
  H57      1.0000 0.17140  0.42190  0.25870  Biso   1.000  H
  H58      1.0000 0.35420  0.47620  0.17800  Biso   1.000  H
  H59      1.0000 0.06520  0.23670  0.15110  Biso   1.000  H
  H60      1.0000 0.93330  0.31210  0.13890  Biso   1.000  H
  H61      1.0000 0.29240  0.75550  0.12350  Biso   1.000  H
  H62      1.0000 0.19310  0.70630  0.18550  Biso   1.000  H
  H63      1.0000 0.13230  0.76330  0.11770  Biso   1.000  H
  H64      1.0000 0.20350  0.11480  0.52080  Biso   1.000  H
  H65      1.0000 0.03940  0.17660  0.44640  Biso   1.000  H
  H66      1.0000 0.35200  0.07810  0.24130  Biso   1.000  H
  H67      1.0000 0.50840  0.02380  0.32200  Biso   1.000  H
  H68      1.0000 0.95300  0.26330  0.34890  Biso   1.000  H
  H69      1.0000 0.88430  0.18790  0.36110  Biso   1.000  H
  H70      1.0000 0.67140  0.74450  0.37650  Biso   1.000  H
  H71      1.0000 0.58490  0.79370  0.31450  Biso   1.000  H
  H72      1.0000 0.51330  0.73670  0.38230  Biso   1.000  H
  C1       1.0000 0.30319  0.46365  0.39281  Biso   1.000  C
  C2       1.0000 0.44628  0.41972  0.35600  Biso   1.000  C
  C3       1.0000 0.48752  0.33608  0.36786  Biso   1.000  C
  C4       1.0000 0.38246  0.29848  0.41364  Biso   1.000  C
  C5       1.0000 0.24146  0.34748  0.44664  Biso   1.000  C
  C6       1.0000 0.73416  0.32091  0.28247  Biso   1.000  C
  C7       1.0000 0.06466  0.43033  0.65335  Biso   1.000  C
  C8       1.0000 0.05444  0.37036  0.72636  Biso   1.000  C
  C9       1.0000 0.65965  0.03635  0.10719  Biso   1.000  C
  C10      1.0000 0.72200  0.08028  0.14400  Biso   1.000  C
  C11      1.0000 0.69146  0.16392  0.13214  Biso   1.000  C
  C12      1.0000 0.59458  0.20152  0.08636  Biso   1.000  C
  C13      1.0000 0.53558  0.15252  0.05336  Biso   1.000  C
  C14      1.0000 0.83754  0.17909  0.21753  Biso   1.000  C
  C15      1.0000 0.64834  0.06967  0.84665  Biso   1.000  C
  C16      1.0000 0.65116  0.12964  0.77364  Biso   1.000  C
  C17      1.0000 0.69600  0.60719  0.96365  Biso   1.000  C
  C18      1.0000 0.80228  0.64400  0.91972  Biso   1.000  C
  C19      1.0000 0.85538  0.63214  0.83608  Biso   1.000  C
  C20      1.0000 0.79610  0.58636  0.79848  Biso   1.000  C
  C21      1.0000 0.68810  0.55336  0.84748  Biso   1.000  C
  C22      1.0000 0.01663  0.71753  0.82091  Biso   1.000  C
  C23      1.0000 0.71801  0.34665  0.93033  Biso   1.000  C
  C24      1.0000 0.78080  0.27364  0.87036  Biso   1.000  C
  C25      1.0000 0.76684  0.89281  0.53635  Biso   1.000  C
  C26      1.0000 0.86600  0.85600  0.58028  Biso   1.000  C
  C27      1.0000 0.82360  0.86786  0.66392  Biso   1.000  C
  C28      1.0000 0.68094  0.91364  0.70152  Biso   1.000  C
  C29      1.0000 0.58894  0.94664  0.65252  Biso   1.000  C
  C30      1.0000 0.05507  0.78247  0.67909  Biso   1.000  C
  C31      1.0000 0.49499  0.15335  0.56967  Biso   1.000  C
  C32      1.0000 0.42480  0.22636  0.62964  Biso   1.000  C
  C33      1.0000 0.69681  0.53635  0.60719  Biso   1.000  C
  C34      1.0000 0.55372  0.58028  0.64400  Biso   1.000  C
  C35      1.0000 0.51248  0.66392  0.63214  Biso   1.000  C
  C36      1.0000 0.61754  0.70152  0.58636  Biso   1.000  C
  C37      1.0000 0.75854  0.65252  0.55336  Biso   1.000  C
  C38      1.0000 0.26584  0.67909  0.71753  Biso   1.000  C
  C39      1.0000 0.93534  0.56967  0.34665  Biso   1.000  C
  C40      1.0000 0.94556  0.62964  0.27364  Biso   1.000  C
  C41      1.0000 0.34035  0.96365  0.89281  Biso   1.000  C
  C42      1.0000 0.27800  0.91972  0.85600  Biso   1.000  C
  C43      1.0000 0.30854  0.83608  0.86786  Biso   1.000  C
  C44      1.0000 0.40542  0.79848  0.91364  Biso   1.000  C
  C45      1.0000 0.46442  0.84748  0.94664  Biso   1.000  C
  C46      1.0000 0.16246  0.82091  0.78247  Biso   1.000  C
  C47      1.0000 0.35166  0.93033  0.15335  Biso   1.000  C
  C48      1.0000 0.34884  0.87036  0.22636  Biso   1.000  C
  C49      1.0000 0.30400  0.39281  0.03635  Biso   1.000  C
  C50      1.0000 0.19772  0.35600  0.08028  Biso   1.000  C
  C51      1.0000 0.14462  0.36786  0.16392  Biso   1.000  C
  C52      1.0000 0.20390  0.41364  0.20152  Biso   1.000  C
  C53      1.0000 0.31190  0.44664  0.15252  Biso   1.000  C
  C54      1.0000 0.98337  0.28247  0.17909  Biso   1.000  C
  C55      1.0000 0.28199  0.65335  0.06967  Biso   1.000  C
  C56      1.0000 0.21920  0.72636  0.12964  Biso   1.000  C
  C57      1.0000 0.23316  0.10719  0.46365  Biso   1.000  C
  C58      1.0000 0.13400  0.14400  0.41972  Biso   1.000  C
  C59      1.0000 0.17640  0.13214  0.33608  Biso   1.000  C
  C60      1.0000 0.31906  0.08636  0.29848  Biso   1.000  C
  C61      1.0000 0.41106  0.05336  0.34748  Biso   1.000  C
  C62      1.0000 0.94493  0.21753  0.32091  Biso   1.000  C
  C63      1.0000 0.50501  0.84665  0.43033  Biso   1.000  C
  C64      1.0000 0.57520  0.77364  0.37036  Biso   1.000  C
  C65      1.0000 0.87500  0.25000  0.25000  Biso   1.000  C
  C66      1.0000 0.12500  0.75000  0.75000  Biso   1.000  C
  N1       1.0000 0.20209  0.42860  0.43878  Biso   1.000  N
  N2       1.0000 0.56947  0.07140  0.06122  Biso   1.000  N
  N3       1.0000 0.64087  0.56122  0.92860  Biso   1.000  N
  N4       1.0000 0.63069  0.93878  0.57140  Biso   1.000  N
  N5       1.0000 0.79791  0.57140  0.56122  Biso   1.000  N
  N6       1.0000 0.43053  0.92860  0.93878  Biso   1.000  N
  N7       1.0000 0.35913  0.43878  0.07140  Biso   1.000  N
  N8       1.0000 0.36931  0.06122  0.42860  Biso   1.000  N
  O1       1.0000 0.62580  0.28509  0.33711  Biso   1.000  O
  O2       1.0000 0.00431  0.43136  0.60070  Biso   1.000  O
  O3       1.0000 0.14931  0.47436  0.65250  Biso   1.000  O
  O4       1.0000 0.74800  0.21491  0.16289  Biso   1.000  O
  O5       1.0000 0.53637  0.06864  0.89930  Biso   1.000  O
  O6       1.0000 0.77617  0.02564  0.84750  Biso   1.000  O
  O7       1.0000 0.96291  0.66289  0.78509  Biso   1.000  O
  O8       1.0000 0.60501  0.39930  0.93136  Biso   1.000  O
  O9       1.0000 0.80181  0.34750  0.97436  Biso   1.000  O
  O10      1.0000 0.91089  0.83711  0.71491  Biso   1.000  O
  O11      1.0000 0.43567  0.10070  0.56864  Biso   1.000  O
  O12      1.0000 0.62367  0.15250  0.52564  Biso   1.000  O
  O13      1.0000 0.37420  0.71491  0.66289  Biso   1.000  O
  O14      1.0000 0.99569  0.56864  0.39930  Biso   1.000  O
  O15      1.0000 0.85069  0.52564  0.34750  Biso   1.000  O
  O16      1.0000 0.25200  0.78509  0.83711  Biso   1.000  O
  O17      1.0000 0.46363  0.93136  0.10070  Biso   1.000  O
  O18      1.0000 0.22383  0.97436  0.15250  Biso   1.000  O
  O19      1.0000 0.03709  0.33711  0.21491  Biso   1.000  O
  O20      1.0000 0.39499  0.60070  0.06864  Biso   1.000  O
  O21      1.0000 0.19819  0.65250  0.02564  Biso   1.000  O
  O22      1.0000 0.08911  0.16289  0.28509  Biso   1.000  O
  O23      1.0000 0.56433  0.89930  0.43136  Biso   1.000  O
  O24      1.0000 0.37633  0.84750  0.47436  Biso   1.000  O
