data_image0
_cell_length_a       13.395
_cell_length_b       13.5119
_cell_length_c       17.62
_cell_angle_alpha    90
_cell_angle_beta     90
_cell_angle_gamma    90

_symmetry_space_group_name_H-M    "P 1"
_symmetry_int_tables_number       1

loop_
  _symmetry_equiv_pos_as_xyz
  'x, y, z'

loop_
  _atom_site_label
  _atom_site_occupancy
  _atom_site_fract_x
  _atom_site_fract_y
  _atom_site_fract_z
  _atom_site_thermal_displace_type
  _atom_site_B_iso_or_equiv
  _atom_site_type_symbol
  Co1      1.0000 0.23366  0.48936  0.42449  Biso   1.000  Co
  O1       1.0000 0.12640  0.55930  0.58900  Biso   1.000  O
  C1       1.0000 0.06840  0.55750  0.53030  Biso   1.000  C
  Co2      1.0000 0.26945  0.50904  0.58330  Biso   1.000  Co
  O2       1.0000 0.09820  0.53100  0.46720  Biso   1.000  O
  C2       1.0000 0.80450  0.82010  0.51800  Biso   1.000  C
  O3       1.0000 0.77480  0.86460  0.57560  Biso   1.000  O
  C3       1.0000 0.91930  0.52310  0.60790  Biso   1.000  C
  H1       1.0000 0.92110  0.45390  0.59540  Biso   1.000  H
  H2       1.0000 0.85160  0.54280  0.61740  Biso   1.000  H
  H3       1.0000 0.95880  0.53470  0.65250  Biso   1.000  H
  O4       1.0000 0.81190  0.85330  0.45130  Biso   1.000  O
  C4       1.0000 0.96160  0.58350  0.54160  Biso   1.000  C
  C5       1.0000 0.90060  0.56270  0.47190  Biso   1.000  C
  H4       1.0000 0.86790  0.49890  0.47670  Biso   1.000  H
  H5       1.0000 0.94350  0.56090  0.42760  Biso   1.000  H
  C6       1.0000 0.82230  0.64440  0.46300  Biso   1.000  C
  H6       1.0000 0.83270  0.68040  0.41600  Biso   1.000  H
  H7       1.0000 0.75560  0.61660  0.46270  Biso   1.000  H
  C7       1.0000 0.83640  0.71200  0.53070  Biso   1.000  C
  H8       1.0000 0.79530  0.68570  0.57200  Biso   1.000  H
  C8       1.0000 0.94770  0.69960  0.55490  Biso   1.000  C
  C9       1.0000 0.96810  0.73670  0.63650  Biso   1.000  C
  H9       1.0000 0.03880  0.74120  0.64460  Biso   1.000  H
  H10      1.0000 0.93970  0.69120  0.67230  Biso   1.000  H
  H11      1.0000 0.93840  0.80080  0.64320  Biso   1.000  H
  C10      1.0000 0.01850  0.75590  0.50520  Biso   1.000  C
  H12      1.0000 0.08510  0.74950  0.52470  Biso   1.000  H
  H13      1.0000 0.99980  0.82450  0.50440  Biso   1.000  H
  H14      1.0000 0.01590  0.72980  0.45450  Biso   1.000  H
  O5       1.0000 0.70380  0.15280  0.54450  Biso   1.000  O
  O6       1.0000 0.71740  0.13270  0.42080  Biso   1.000  O
  O7       1.0000 0.40450  0.45970  0.54660  Biso   1.000  O
  O8       1.0000 0.37930  0.45250  0.42160  Biso   1.000  O
  C11      1.0000 0.69810  0.18600  0.47810  Biso   1.000  C
  C12      1.0000 0.43170  0.44800  0.47800  Biso   1.000  C
  C13      1.0000 0.73780  0.33380  0.40280  Biso   1.000  C
  H15      1.0000 0.80560  0.33680  0.42020  Biso   1.000  H
  H16      1.0000 0.71550  0.39910  0.38960  Biso   1.000  H
  H17      1.0000 0.73390  0.29170  0.35900  Biso   1.000  H
  C14      1.0000 0.67150  0.29210  0.46580  Biso   1.000  C
  C15      1.0000 0.68430  0.35560  0.53870  Biso   1.000  C
  H18      1.0000 0.66830  0.31660  0.58330  Biso   1.000  H
  H19      1.0000 0.75270  0.37850  0.54310  Biso   1.000  H
  C16      1.0000 0.61530  0.44090  0.53220  Biso   1.000  C
  H20      1.0000 0.65250  0.50120  0.52260  Biso   1.000  H
  H21      1.0000 0.57780  0.44920  0.57890  Biso   1.000  H
  C17      1.0000 0.54310  0.41870  0.46480  Biso   1.000  C
  H22      1.0000 0.56730  0.45500  0.42030  Biso   1.000  H
  C18      1.0000 0.55760  0.30620  0.44930  Biso   1.000  C
  C19      1.0000 0.53100  0.28310  0.36950  Biso   1.000  C
  H23      1.0000 0.46570  0.30870  0.35860  Biso   1.000  H
  H24      1.0000 0.53120  0.21270  0.36230  Biso   1.000  H
  H25      1.0000 0.57880  0.31300  0.33600  Biso   1.000  H
  C20      1.0000 0.49470  0.24290  0.50260  Biso   1.000  C
  H26      1.0000 0.42520  0.25690  0.49440  Biso   1.000  H
  H27      1.0000 0.51190  0.25770  0.55420  Biso   1.000  H
  H28      1.0000 0.50730  0.17410  0.49260  Biso   1.000  H
  O9       1.0000 0.31340  0.52260  0.69270  Biso   1.000  O
  O10      1.0000 0.30950  0.52500  0.81630  Biso   1.000  O
  C21      1.0000 0.26900  0.50360  0.75500  Biso   1.000  C
  C22      1.0000 0.16960  0.45510  0.75340  Biso   1.000  C
  H29      1.0000 0.17110  0.39660  0.78420  Biso   1.000  H
  H30      1.0000 0.15320  0.43750  0.70210  Biso   1.000  H
  H31      1.0000 0.12020  0.49990  0.77270  Biso   1.000  H
  Co3      1.0000 0.26634  0.51064  0.92449  Biso   1.000  Co
  O11      1.0000 0.37360  0.44070  0.08900  Biso   1.000  O
  C23      1.0000 0.43160  0.44250  0.03030  Biso   1.000  C
  Co4      1.0000 0.23055  0.49096  0.08330  Biso   1.000  Co
  O12      1.0000 0.40180  0.46900  0.96720  Biso   1.000  O
  C24      1.0000 0.69550  0.17990  0.01800  Biso   1.000  C
  O13      1.0000 0.72520  0.13540  0.07560  Biso   1.000  O
  C25      1.0000 0.58070  0.47690  0.10790  Biso   1.000  C
  H32      1.0000 0.57890  0.54610  0.09540  Biso   1.000  H
  H33      1.0000 0.64840  0.45720  0.11740  Biso   1.000  H
  H34      1.0000 0.54120  0.46530  0.15250  Biso   1.000  H
  O14      1.0000 0.68810  0.14670  0.95130  Biso   1.000  O
  C26      1.0000 0.53840  0.41650  0.04160  Biso   1.000  C
  C27      1.0000 0.59940  0.43730  0.97190  Biso   1.000  C
  H35      1.0000 0.63210  0.50110  0.97670  Biso   1.000  H
  H36      1.0000 0.55650  0.43910  0.92760  Biso   1.000  H
  C28      1.0000 0.67770  0.35560  0.96300  Biso   1.000  C
  H37      1.0000 0.66730  0.31960  0.91600  Biso   1.000  H
  H38      1.0000 0.74440  0.38340  0.96270  Biso   1.000  H
  C29      1.0000 0.66360  0.28800  0.03070  Biso   1.000  C
  H39      1.0000 0.70470  0.31430  0.07200  Biso   1.000  H
  C30      1.0000 0.55230  0.30040  0.05490  Biso   1.000  C
  C31      1.0000 0.53190  0.26330  0.13650  Biso   1.000  C
  H40      1.0000 0.46120  0.25880  0.14460  Biso   1.000  H
  H41      1.0000 0.56030  0.30880  0.17230  Biso   1.000  H
  H42      1.0000 0.56160  0.19920  0.14320  Biso   1.000  H
  C32      1.0000 0.48150  0.24410  0.00520  Biso   1.000  C
  H43      1.0000 0.41490  0.25050  0.02470  Biso   1.000  H
  H44      1.0000 0.50020  0.17550  0.00440  Biso   1.000  H
  H45      1.0000 0.48410  0.27020  0.95450  Biso   1.000  H
  O15      1.0000 0.79620  0.84720  0.04450  Biso   1.000  O
  O16      1.0000 0.78260  0.86730  0.92080  Biso   1.000  O
  O17      1.0000 0.09550  0.54030  0.04660  Biso   1.000  O
  O18      1.0000 0.12070  0.54750  0.92160  Biso   1.000  O
  C33      1.0000 0.80190  0.81400  0.97810  Biso   1.000  C
  C34      1.0000 0.06830  0.55200  0.97800  Biso   1.000  C
  C35      1.0000 0.76220  0.66620  0.90280  Biso   1.000  C
  H46      1.0000 0.69440  0.66320  0.92020  Biso   1.000  H
  H47      1.0000 0.78450  0.60090  0.88960  Biso   1.000  H
  H48      1.0000 0.76610  0.70830  0.85900  Biso   1.000  H
  C36      1.0000 0.82850  0.70790  0.96580  Biso   1.000  C
  C37      1.0000 0.81570  0.64440  0.03870  Biso   1.000  C
  H49      1.0000 0.83170  0.68340  0.08330  Biso   1.000  H
  H50      1.0000 0.74730  0.62150  0.04310  Biso   1.000  H
  C38      1.0000 0.88470  0.55910  0.03220  Biso   1.000  C
  H51      1.0000 0.84750  0.49880  0.02260  Biso   1.000  H
  H52      1.0000 0.92220  0.55080  0.07890  Biso   1.000  H
  C39      1.0000 0.95690  0.58130  0.96480  Biso   1.000  C
  H53      1.0000 0.93270  0.54500  0.92030  Biso   1.000  H
  C40      1.0000 0.94240  0.69380  0.94930  Biso   1.000  C
  C41      1.0000 0.96900  0.71690  0.86950  Biso   1.000  C
  H54      1.0000 0.03430  0.69130  0.85860  Biso   1.000  H
  H55      1.0000 0.96880  0.78730  0.86230  Biso   1.000  H
  H56      1.0000 0.92120  0.68700  0.83600  Biso   1.000  H
  C42      1.0000 0.00530  0.75710  0.00260  Biso   1.000  C
  H57      1.0000 0.07480  0.74310  0.99440  Biso   1.000  H
  H58      1.0000 0.98810  0.74230  0.05420  Biso   1.000  H
  H59      1.0000 0.99270  0.82590  0.99260  Biso   1.000  H
  O19      1.0000 0.18660  0.47740  0.19270  Biso   1.000  O
  O20      1.0000 0.19050  0.47500  0.31630  Biso   1.000  O
  C43      1.0000 0.23100  0.49640  0.25500  Biso   1.000  C
  C44      1.0000 0.33040  0.54490  0.25340  Biso   1.000  C
  H60      1.0000 0.32890  0.60340  0.28420  Biso   1.000  H
  H61      1.0000 0.34680  0.56250  0.20210  Biso   1.000  H
  H62      1.0000 0.37980  0.50010  0.27270  Biso   1.000  H
  Co5      1.0000 0.76634  0.98936  0.07551  Biso   1.000  Co
  O21      1.0000 0.87360  0.05930  0.91100  Biso   1.000  O
  C45      1.0000 0.93160  0.05750  0.96970  Biso   1.000  C
  Co6      1.0000 0.73055  0.00904  0.91670  Biso   1.000  Co
  O22      1.0000 0.90180  0.03100  0.03280  Biso   1.000  O
  C46      1.0000 0.19550  0.32010  0.98200  Biso   1.000  C
  O23      1.0000 0.22520  0.36460  0.92440  Biso   1.000  O
  C47      1.0000 0.08070  0.02310  0.89210  Biso   1.000  C
  H63      1.0000 0.07890  0.95390  0.90460  Biso   1.000  H
  H64      1.0000 0.14840  0.04280  0.88260  Biso   1.000  H
  H65      1.0000 0.04120  0.03470  0.84750  Biso   1.000  H
  O24      1.0000 0.18810  0.35330  0.04870  Biso   1.000  O
  C48      1.0000 0.03840  0.08350  0.95840  Biso   1.000  C
  C49      1.0000 0.09940  0.06270  0.02810  Biso   1.000  C
  H66      1.0000 0.13210  0.99890  0.02330  Biso   1.000  H
  H67      1.0000 0.05650  0.06090  0.07240  Biso   1.000  H
  C50      1.0000 0.17770  0.14440  0.03700  Biso   1.000  C
  H68      1.0000 0.16730  0.18040  0.08400  Biso   1.000  H
  H69      1.0000 0.24440  0.11660  0.03730  Biso   1.000  H
  C51      1.0000 0.16360  0.21200  0.96930  Biso   1.000  C
  H70      1.0000 0.20470  0.18570  0.92800  Biso   1.000  H
  C52      1.0000 0.05230  0.19960  0.94510  Biso   1.000  C
  C53      1.0000 0.03190  0.23670  0.86350  Biso   1.000  C
  H71      1.0000 0.96120  0.24120  0.85540  Biso   1.000  H
  H72      1.0000 0.06030  0.19120  0.82770  Biso   1.000  H
  H73      1.0000 0.06160  0.30080  0.85680  Biso   1.000  H
  C54      1.0000 0.98150  0.25590  0.99480  Biso   1.000  C
  H74      1.0000 0.91490  0.24950  0.97530  Biso   1.000  H
  H75      1.0000 0.00020  0.32450  0.99560  Biso   1.000  H
  H76      1.0000 0.98410  0.22980  0.04550  Biso   1.000  H
  O25      1.0000 0.29620  0.65280  0.95550  Biso   1.000  O
  O26      1.0000 0.28260  0.63270  0.07920  Biso   1.000  O
  O27      1.0000 0.59550  0.95970  0.95340  Biso   1.000  O
  O28      1.0000 0.62070  0.95250  0.07840  Biso   1.000  O
  C55      1.0000 0.30190  0.68600  0.02190  Biso   1.000  C
  C56      1.0000 0.56830  0.94800  0.02200  Biso   1.000  C
  C57      1.0000 0.26220  0.83380  0.09720  Biso   1.000  C
  H77      1.0000 0.19440  0.83680  0.07980  Biso   1.000  H
  H78      1.0000 0.28450  0.89910  0.11040  Biso   1.000  H
  H79      1.0000 0.26610  0.79170  0.14100  Biso   1.000  H
  C58      1.0000 0.32850  0.79210  0.03420  Biso   1.000  C
  C59      1.0000 0.31570  0.85560  0.96130  Biso   1.000  C
  H80      1.0000 0.33170  0.81660  0.91670  Biso   1.000  H
  H81      1.0000 0.24730  0.87850  0.95690  Biso   1.000  H
  C60      1.0000 0.38470  0.94090  0.96780  Biso   1.000  C
  H82      1.0000 0.34750  0.00120  0.97740  Biso   1.000  H
  H83      1.0000 0.42220  0.94920  0.92110  Biso   1.000  H
  C61      1.0000 0.45690  0.91870  0.03520  Biso   1.000  C
  H84      1.0000 0.43270  0.95500  0.07970  Biso   1.000  H
  C62      1.0000 0.44240  0.80620  0.05070  Biso   1.000  C
  C63      1.0000 0.46900  0.78310  0.13050  Biso   1.000  C
  H85      1.0000 0.53430  0.80870  0.14140  Biso   1.000  H
  H86      1.0000 0.46880  0.71270  0.13770  Biso   1.000  H
  H87      1.0000 0.42120  0.81300  0.16400  Biso   1.000  H
  C64      1.0000 0.50530  0.74290  0.99740  Biso   1.000  C
  H88      1.0000 0.57480  0.75690  0.00560  Biso   1.000  H
  H89      1.0000 0.48810  0.75770  0.94580  Biso   1.000  H
  H90      1.0000 0.49270  0.67410  0.00740  Biso   1.000  H
  O29      1.0000 0.68660  0.02260  0.80730  Biso   1.000  O
  O30      1.0000 0.69050  0.02500  0.68370  Biso   1.000  O
  C65      1.0000 0.73100  0.00360  0.74500  Biso   1.000  C
  C66      1.0000 0.83040  0.95510  0.74660  Biso   1.000  C
  H91      1.0000 0.82890  0.89660  0.71580  Biso   1.000  H
  H92      1.0000 0.84680  0.93750  0.79790  Biso   1.000  H
  H93      1.0000 0.87980  0.99990  0.72730  Biso   1.000  H
  Co7      1.0000 0.73366  0.01064  0.57551  Biso   1.000  Co
  O31      1.0000 0.62640  0.94070  0.41100  Biso   1.000  O
  C67      1.0000 0.56840  0.94250  0.46970  Biso   1.000  C
  Co8      1.0000 0.76945  0.99096  0.41670  Biso   1.000  Co
  O32      1.0000 0.59820  0.96900  0.53280  Biso   1.000  O
  C68      1.0000 0.30450  0.67990  0.48200  Biso   1.000  C
  O33      1.0000 0.27480  0.63540  0.42440  Biso   1.000  O
  C69      1.0000 0.41930  0.97690  0.39210  Biso   1.000  C
  H94      1.0000 0.42110  0.04610  0.40460  Biso   1.000  H
  H95      1.0000 0.35160  0.95720  0.38260  Biso   1.000  H
  H96      1.0000 0.45880  0.96530  0.34750  Biso   1.000  H
  O34      1.0000 0.31190  0.64670  0.54870  Biso   1.000  O
  C70      1.0000 0.46160  0.91650  0.45840  Biso   1.000  C
  C71      1.0000 0.40060  0.93730  0.52810  Biso   1.000  C
  H97      1.0000 0.36790  0.00110  0.52330  Biso   1.000  H
  H98      1.0000 0.44350  0.93910  0.57240  Biso   1.000  H
  C72      1.0000 0.32230  0.85560  0.53700  Biso   1.000  C
  H99      1.0000 0.33270  0.81960  0.58400  Biso   1.000  H
  H100     1.0000 0.25560  0.88340  0.53730  Biso   1.000  H
  C73      1.0000 0.33640  0.78800  0.46930  Biso   1.000  C
  H101     1.0000 0.29530  0.81430  0.42800  Biso   1.000  H
  C74      1.0000 0.44770  0.80040  0.44510  Biso   1.000  C
  C75      1.0000 0.46810  0.76330  0.36350  Biso   1.000  C
  H102     1.0000 0.53880  0.75880  0.35540  Biso   1.000  H
  H103     1.0000 0.43970  0.80880  0.32770  Biso   1.000  H
  H104     1.0000 0.43840  0.69920  0.35680  Biso   1.000  H
  C76      1.0000 0.51850  0.74410  0.49480  Biso   1.000  C
  H105     1.0000 0.58510  0.75050  0.47530  Biso   1.000  H
  H106     1.0000 0.49980  0.67550  0.49560  Biso   1.000  H
  H107     1.0000 0.51590  0.77020  0.54550  Biso   1.000  H
  O35      1.0000 0.20380  0.34720  0.45550  Biso   1.000  O
  O36      1.0000 0.21740  0.36730  0.57920  Biso   1.000  O
  O37      1.0000 0.90450  0.04030  0.45340  Biso   1.000  O
  O38      1.0000 0.87930  0.04750  0.57840  Biso   1.000  O
  C77      1.0000 0.19810  0.31400  0.52190  Biso   1.000  C
  C78      1.0000 0.93170  0.05200  0.52200  Biso   1.000  C
  C79      1.0000 0.23780  0.16620  0.59720  Biso   1.000  C
  H108     1.0000 0.30560  0.16320  0.57980  Biso   1.000  H
  H109     1.0000 0.21550  0.10090  0.61040  Biso   1.000  H
  H110     1.0000 0.23390  0.20830  0.64100  Biso   1.000  H
  C80      1.0000 0.17150  0.20790  0.53420  Biso   1.000  C
  C81      1.0000 0.18430  0.14440  0.46130  Biso   1.000  C
  H111     1.0000 0.16830  0.18340  0.41670  Biso   1.000  H
  H112     1.0000 0.25270  0.12150  0.45690  Biso   1.000  H
  C82      1.0000 0.11530  0.05910  0.46780  Biso   1.000  C
  H113     1.0000 0.15250  0.99880  0.47740  Biso   1.000  H
  H114     1.0000 0.07780  0.05080  0.42110  Biso   1.000  H
  C83      1.0000 0.04310  0.08130  0.53520  Biso   1.000  C
  H115     1.0000 0.06730  0.04500  0.57970  Biso   1.000  H
  C84      1.0000 0.05760  0.19380  0.55070  Biso   1.000  C
  C85      1.0000 0.03100  0.21690  0.63050  Biso   1.000  C
  H116     1.0000 0.96570  0.19130  0.64140  Biso   1.000  H
  H117     1.0000 0.03120  0.28730  0.63770  Biso   1.000  H
  H118     1.0000 0.07880  0.18700  0.66400  Biso   1.000  H
  C86      1.0000 0.99470  0.25710  0.49740  Biso   1.000  C
  H119     1.0000 0.92520  0.24310  0.50560  Biso   1.000  H
  H120     1.0000 0.01190  0.24230  0.44580  Biso   1.000  H
  H121     1.0000 0.00730  0.32590  0.50740  Biso   1.000  H
  O39      1.0000 0.81340  0.97740  0.30730  Biso   1.000  O
  O40      1.0000 0.80950  0.97500  0.18370  Biso   1.000  O
  C87      1.0000 0.76900  0.99640  0.24500  Biso   1.000  C
  C88      1.0000 0.66960  0.04490  0.24660  Biso   1.000  C
  H122     1.0000 0.67110  0.10340  0.21580  Biso   1.000  H
  H123     1.0000 0.65320  0.06250  0.29790  Biso   1.000  H
  H124     1.0000 0.62020  0.00010  0.22730  Biso   1.000  H
