data_image0
_cell_length_a       7.423
_cell_length_b       30.337
_cell_length_c       30.337
_cell_angle_alpha    90
_cell_angle_beta     90
_cell_angle_gamma    90

_symmetry_space_group_name_H-M    P 1
_symmetry_int_tables_number       1

loop_
  _symmetry_equiv_pos_as_xyz
  'x, y, z'

loop_
  _atom_site_label
  _atom_site_occupancy
  _atom_site_fract_x
  _atom_site_fract_y
  _atom_site_fract_z
  _atom_site_thermal_displace_type
  _atom_site_B_iso_or_equiv
  _atom_site_type_symbol
  Cu1      1.0000 0.90335  0.52590  0.52581  Biso   1.000  Cu
  Cu2      1.0000 0.90335  0.97410  0.97419  Biso   1.000  Cu
  Cu3      1.0000 0.40335  0.47419  0.02591  Biso   1.000  Cu
  Cu4      1.0000 0.40335  0.02581  0.47410  Biso   1.000  Cu
  Cu5      1.0000 0.09665  0.47409  0.47419  Biso   1.000  Cu
  Cu6      1.0000 0.09665  0.02590  0.02581  Biso   1.000  Cu
  Cu7      1.0000 0.59665  0.52581  0.97410  Biso   1.000  Cu
  Cu8      1.0000 0.59665  0.97419  0.52591  Biso   1.000  Cu
  H1       1.0000 0.51150  0.54010  0.53980  Biso   1.000  H
  H2       1.0000 0.29620  0.57800  0.57850  Biso   1.000  H
  H3       1.0000 0.69700  0.63960  0.63950  Biso   1.000  H
  H4       1.0000 0.89460  0.60080  0.60060  Biso   1.000  H
  H5       1.0000 0.27550  0.55670  0.65870  Biso   1.000  H
  H6       1.0000 0.19550  0.56850  0.70560  Biso   1.000  H
  H7       1.0000 0.06450  0.56120  0.66500  Biso   1.000  H
  H8       1.0000 0.96920  0.62660  0.70290  Biso   1.000  H
  H9       1.0000 0.21860  0.73830  0.66080  Biso   1.000  H
  H10      1.0000 0.42590  0.69470  0.62400  Biso   1.000  H
  H11      1.0000 0.81020  0.68700  0.73180  Biso   1.000  H
  H12      1.0000 0.96560  0.70940  0.75960  Biso   1.000  H
  H13      1.0000 0.27380  0.48220  0.62940  Biso   1.000  H
  H14      1.0000 0.43550  0.47310  0.59660  Biso   1.000  H
  H15      1.0000 0.29670  0.43500  0.60770  Biso   1.000  H
  H16      1.0000 0.72300  0.37050  0.51760  Biso   1.000  H
  H17      1.0000 0.70750  0.39180  0.56510  Biso   1.000  H
  H18      1.0000 0.56350  0.40350  0.52840  Biso   1.000  H
  H19      1.0000 0.51150  0.95990  0.96020  Biso   1.000  H
  H20      1.0000 0.29620  0.92200  0.92150  Biso   1.000  H
  H21      1.0000 0.69700  0.86040  0.86050  Biso   1.000  H
  H22      1.0000 0.89460  0.89920  0.89940  Biso   1.000  H
  H23      1.0000 0.27550  0.94330  0.84130  Biso   1.000  H
  H24      1.0000 0.19550  0.93150  0.79440  Biso   1.000  H
  H25      1.0000 0.06450  0.93880  0.83500  Biso   1.000  H
  H26      1.0000 0.96920  0.87340  0.79710  Biso   1.000  H
  H27      1.0000 0.21860  0.76170  0.83920  Biso   1.000  H
  H28      1.0000 0.42590  0.80530  0.87600  Biso   1.000  H
  H29      1.0000 0.81020  0.81300  0.76820  Biso   1.000  H
  H30      1.0000 0.96560  0.79060  0.74040  Biso   1.000  H
  H31      1.0000 0.27380  0.01780  0.87060  Biso   1.000  H
  H32      1.0000 0.43550  0.02690  0.90340  Biso   1.000  H
  H33      1.0000 0.29670  0.06500  0.89230  Biso   1.000  H
  H34      1.0000 0.72300  0.12950  0.98240  Biso   1.000  H
  H35      1.0000 0.70750  0.10820  0.93490  Biso   1.000  H
  H36      1.0000 0.56350  0.09650  0.97160  Biso   1.000  H
  H37      1.0000 0.01150  0.46020  0.04010  Biso   1.000  H
  H38      1.0000 0.79620  0.42150  0.07800  Biso   1.000  H
  H39      1.0000 0.19700  0.36050  0.13960  Biso   1.000  H
  H40      1.0000 0.39460  0.39940  0.10080  Biso   1.000  H
  H41      1.0000 0.77550  0.34130  0.05670  Biso   1.000  H
  H42      1.0000 0.69550  0.29440  0.06850  Biso   1.000  H
  H43      1.0000 0.56450  0.33500  0.06120  Biso   1.000  H
  H44      1.0000 0.46920  0.29710  0.12660  Biso   1.000  H
  H45      1.0000 0.71860  0.33920  0.23830  Biso   1.000  H
  H46      1.0000 0.92590  0.37600  0.19470  Biso   1.000  H
  H47      1.0000 0.31020  0.26820  0.18700  Biso   1.000  H
  H48      1.0000 0.46560  0.24040  0.20940  Biso   1.000  H
  H49      1.0000 0.77380  0.37060  0.98220  Biso   1.000  H
  H50      1.0000 0.93550  0.40340  0.97310  Biso   1.000  H
  H51      1.0000 0.79670  0.39230  0.93500  Biso   1.000  H
  H52      1.0000 0.22300  0.48240  0.87050  Biso   1.000  H
  H53      1.0000 0.20750  0.43490  0.89180  Biso   1.000  H
  H54      1.0000 0.06350  0.47160  0.90350  Biso   1.000  H
  H55      1.0000 0.01150  0.03980  0.45990  Biso   1.000  H
  H56      1.0000 0.79620  0.07850  0.42200  Biso   1.000  H
  H57      1.0000 0.19700  0.13950  0.36040  Biso   1.000  H
  H58      1.0000 0.39460  0.10060  0.39920  Biso   1.000  H
  H59      1.0000 0.77550  0.15870  0.44330  Biso   1.000  H
  H60      1.0000 0.69550  0.20560  0.43150  Biso   1.000  H
  H61      1.0000 0.56450  0.16500  0.43880  Biso   1.000  H
  H62      1.0000 0.46920  0.20290  0.37340  Biso   1.000  H
  H63      1.0000 0.71860  0.16080  0.26170  Biso   1.000  H
  H64      1.0000 0.92590  0.12400  0.30530  Biso   1.000  H
  H65      1.0000 0.31020  0.23180  0.31300  Biso   1.000  H
  H66      1.0000 0.46560  0.25960  0.29060  Biso   1.000  H
  H67      1.0000 0.77380  0.12940  0.51780  Biso   1.000  H
  H68      1.0000 0.93550  0.09660  0.52690  Biso   1.000  H
  H69      1.0000 0.79670  0.10770  0.56500  Biso   1.000  H
  H70      1.0000 0.22300  0.01760  0.62950  Biso   1.000  H
  H71      1.0000 0.20750  0.06510  0.60820  Biso   1.000  H
  H72      1.0000 0.06350  0.02840  0.59650  Biso   1.000  H
  H73      1.0000 0.48850  0.45990  0.46020  Biso   1.000  H
  H74      1.0000 0.70380  0.42200  0.42150  Biso   1.000  H
  H75      1.0000 0.30300  0.36040  0.36050  Biso   1.000  H
  H76      1.0000 0.10540  0.39920  0.39940  Biso   1.000  H
  H77      1.0000 0.72450  0.44330  0.34130  Biso   1.000  H
  H78      1.0000 0.80450  0.43150  0.29440  Biso   1.000  H
  H79      1.0000 0.93550  0.43880  0.33500  Biso   1.000  H
  H80      1.0000 0.03080  0.37340  0.29710  Biso   1.000  H
  H81      1.0000 0.78140  0.26170  0.33920  Biso   1.000  H
  H82      1.0000 0.57410  0.30530  0.37600  Biso   1.000  H
  H83      1.0000 0.18980  0.31300  0.26820  Biso   1.000  H
  H84      1.0000 0.03440  0.29060  0.24040  Biso   1.000  H
  H85      1.0000 0.72620  0.51780  0.37060  Biso   1.000  H
  H86      1.0000 0.56450  0.52690  0.40340  Biso   1.000  H
  H87      1.0000 0.70330  0.56500  0.39230  Biso   1.000  H
  H88      1.0000 0.27700  0.62950  0.48240  Biso   1.000  H
  H89      1.0000 0.29250  0.60820  0.43490  Biso   1.000  H
  H90      1.0000 0.43650  0.59650  0.47160  Biso   1.000  H
  H91      1.0000 0.48850  0.04010  0.03980  Biso   1.000  H
  H92      1.0000 0.70380  0.07800  0.07850  Biso   1.000  H
  H93      1.0000 0.30300  0.13960  0.13950  Biso   1.000  H
  H94      1.0000 0.10540  0.10080  0.10060  Biso   1.000  H
  H95      1.0000 0.72450  0.05670  0.15870  Biso   1.000  H
  H96      1.0000 0.80450  0.06850  0.20560  Biso   1.000  H
  H97      1.0000 0.93550  0.06120  0.16500  Biso   1.000  H
  H98      1.0000 0.03080  0.12660  0.20290  Biso   1.000  H
  H99      1.0000 0.78140  0.23830  0.16080  Biso   1.000  H
  H100     1.0000 0.57410  0.19470  0.12400  Biso   1.000  H
  H101     1.0000 0.18980  0.18700  0.23180  Biso   1.000  H
  H102     1.0000 0.03440  0.20940  0.25960  Biso   1.000  H
  H103     1.0000 0.72620  0.98220  0.12940  Biso   1.000  H
  H104     1.0000 0.56450  0.97310  0.09660  Biso   1.000  H
  H105     1.0000 0.70330  0.93500  0.10770  Biso   1.000  H
  H106     1.0000 0.27700  0.87050  0.01760  Biso   1.000  H
  H107     1.0000 0.29250  0.89180  0.06510  Biso   1.000  H
  H108     1.0000 0.43650  0.90350  0.02840  Biso   1.000  H
  H109     1.0000 0.98850  0.53980  0.95990  Biso   1.000  H
  H110     1.0000 0.20380  0.57850  0.92200  Biso   1.000  H
  H111     1.0000 0.80300  0.63950  0.86040  Biso   1.000  H
  H112     1.0000 0.60540  0.60060  0.89920  Biso   1.000  H
  H113     1.0000 0.22450  0.65870  0.94330  Biso   1.000  H
  H114     1.0000 0.30450  0.70560  0.93150  Biso   1.000  H
  H115     1.0000 0.43550  0.66500  0.93880  Biso   1.000  H
  H116     1.0000 0.53080  0.70290  0.87340  Biso   1.000  H
  H117     1.0000 0.28140  0.66080  0.76170  Biso   1.000  H
  H118     1.0000 0.07410  0.62400  0.80530  Biso   1.000  H
  H119     1.0000 0.68980  0.73180  0.81300  Biso   1.000  H
  H120     1.0000 0.53440  0.75960  0.79060  Biso   1.000  H
  H121     1.0000 0.22620  0.62940  0.01780  Biso   1.000  H
  H122     1.0000 0.06450  0.59660  0.02690  Biso   1.000  H
  H123     1.0000 0.20330  0.60770  0.06500  Biso   1.000  H
  H124     1.0000 0.77700  0.51760  0.12950  Biso   1.000  H
  H125     1.0000 0.79250  0.56510  0.10820  Biso   1.000  H
  H126     1.0000 0.93650  0.52840  0.09650  Biso   1.000  H
  H127     1.0000 0.98850  0.96020  0.54010  Biso   1.000  H
  H128     1.0000 0.20380  0.92150  0.57800  Biso   1.000  H
  H129     1.0000 0.80300  0.86050  0.63960  Biso   1.000  H
  H130     1.0000 0.60540  0.89940  0.60080  Biso   1.000  H
  H131     1.0000 0.22450  0.84130  0.55670  Biso   1.000  H
  H132     1.0000 0.30450  0.79440  0.56850  Biso   1.000  H
  H133     1.0000 0.43550  0.83500  0.56120  Biso   1.000  H
  H134     1.0000 0.53080  0.79710  0.62660  Biso   1.000  H
  H135     1.0000 0.28140  0.83920  0.73830  Biso   1.000  H
  H136     1.0000 0.07410  0.87600  0.69470  Biso   1.000  H
  H137     1.0000 0.68980  0.76820  0.68700  Biso   1.000  H
  H138     1.0000 0.53440  0.74040  0.70940  Biso   1.000  H
  H139     1.0000 0.22620  0.87060  0.48220  Biso   1.000  H
  H140     1.0000 0.06450  0.90340  0.47310  Biso   1.000  H
  H141     1.0000 0.20330  0.89230  0.43500  Biso   1.000  H
  H142     1.0000 0.77700  0.98240  0.37050  Biso   1.000  H
  H143     1.0000 0.79250  0.93490  0.39180  Biso   1.000  H
  H144     1.0000 0.93650  0.97160  0.40350  Biso   1.000  H
  C1       1.0000 0.46680  0.61321  0.61374  Biso   1.000  C
  C2       1.0000 0.54940  0.56084  0.56089  Biso   1.000  C
  C3       1.0000 0.41880  0.58354  0.58393  Biso   1.000  C
  C4       1.0000 0.65440  0.61889  0.61900  Biso   1.000  C
  C5       1.0000 0.77120  0.59583  0.59583  Biso   1.000  C
  C6       1.0000 0.33030  0.63960  0.63942  Biso   1.000  C
  C7       1.0000 0.07480  0.68583  0.68580  Biso   1.000  C
  C8       1.0000 0.19210  0.61940  0.66343  Biso   1.000  C
  C9       1.0000 0.18100  0.57250  0.67410  Biso   1.000  C
  C10      1.0000 0.06040  0.64130  0.68720  Biso   1.000  C
  C11      1.0000 0.21090  0.70740  0.66190  Biso   1.000  C
  C12      1.0000 0.33340  0.68070  0.63980  Biso   1.000  C
  C13      1.0000 0.87780  0.71440  0.73600  Biso   1.000  C
  C14      1.0000 0.31040  0.46650  0.60306  Biso   1.000  C
  C15      1.0000 0.19780  0.48025  0.56605  Biso   1.000  C
  C16      1.0000 0.80110  0.43386  0.51941  Biso   1.000  C
  C17      1.0000 0.68930  0.39680  0.53390  Biso   1.000  C
  C18      1.0000 0.46680  0.88679  0.88626  Biso   1.000  C
  C19      1.0000 0.54940  0.93916  0.93911  Biso   1.000  C
  C20      1.0000 0.41880  0.91646  0.91607  Biso   1.000  C
  C21      1.0000 0.65440  0.88111  0.88100  Biso   1.000  C
  C22      1.0000 0.77120  0.90417  0.90417  Biso   1.000  C
  C23      1.0000 0.33030  0.86040  0.86058  Biso   1.000  C
  C24      1.0000 0.07480  0.81417  0.81420  Biso   1.000  C
  C25      1.0000 0.19210  0.88060  0.83657  Biso   1.000  C
  C26      1.0000 0.18100  0.92750  0.82590  Biso   1.000  C
  C27      1.0000 0.06040  0.85870  0.81280  Biso   1.000  C
  C28      1.0000 0.21090  0.79260  0.83810  Biso   1.000  C
  C29      1.0000 0.33340  0.81930  0.86020  Biso   1.000  C
  C30      1.0000 0.87780  0.78560  0.76400  Biso   1.000  C
  C31      1.0000 0.31040  0.03350  0.89694  Biso   1.000  C
  C32      1.0000 0.19780  0.01975  0.93395  Biso   1.000  C
  C33      1.0000 0.80110  0.06614  0.98059  Biso   1.000  C
  C34      1.0000 0.68930  0.10320  0.96610  Biso   1.000  C
  C35      1.0000 0.96680  0.38626  0.11321  Biso   1.000  C
  C36      1.0000 0.04940  0.43911  0.06084  Biso   1.000  C
  C37      1.0000 0.91880  0.41607  0.08354  Biso   1.000  C
  C38      1.0000 0.15440  0.38100  0.11889  Biso   1.000  C
  C39      1.0000 0.27120  0.40417  0.09583  Biso   1.000  C
  C40      1.0000 0.83030  0.36058  0.13960  Biso   1.000  C
  C41      1.0000 0.57480  0.31420  0.18583  Biso   1.000  C
  C42      1.0000 0.69210  0.33657  0.11940  Biso   1.000  C
  C43      1.0000 0.68100  0.32590  0.07250  Biso   1.000  C
  C44      1.0000 0.56040  0.31280  0.14130  Biso   1.000  C
  C45      1.0000 0.71090  0.33810  0.20740  Biso   1.000  C
  C46      1.0000 0.83340  0.36020  0.18070  Biso   1.000  C
  C47      1.0000 0.37780  0.26400  0.21440  Biso   1.000  C
  C48      1.0000 0.81040  0.39694  0.96650  Biso   1.000  C
  C49      1.0000 0.69780  0.43395  0.98025  Biso   1.000  C
  C50      1.0000 0.30110  0.48059  0.93386  Biso   1.000  C
  C51      1.0000 0.18930  0.46610  0.89680  Biso   1.000  C
  C52      1.0000 0.96680  0.11374  0.38679  Biso   1.000  C
  C53      1.0000 0.04940  0.06089  0.43916  Biso   1.000  C
  C54      1.0000 0.91880  0.08393  0.41646  Biso   1.000  C
  C55      1.0000 0.15440  0.11900  0.38111  Biso   1.000  C
  C56      1.0000 0.27120  0.09583  0.40417  Biso   1.000  C
  C57      1.0000 0.83030  0.13942  0.36040  Biso   1.000  C
  C58      1.0000 0.57480  0.18580  0.31417  Biso   1.000  C
  C59      1.0000 0.69210  0.16343  0.38060  Biso   1.000  C
  C60      1.0000 0.68100  0.17410  0.42750  Biso   1.000  C
  C61      1.0000 0.56040  0.18720  0.35870  Biso   1.000  C
  C62      1.0000 0.71090  0.16190  0.29260  Biso   1.000  C
  C63      1.0000 0.83340  0.13980  0.31930  Biso   1.000  C
  C64      1.0000 0.37780  0.23600  0.28560  Biso   1.000  C
  C65      1.0000 0.81040  0.10306  0.53350  Biso   1.000  C
  C66      1.0000 0.69780  0.06605  0.51975  Biso   1.000  C
  C67      1.0000 0.30110  0.01941  0.56614  Biso   1.000  C
  C68      1.0000 0.18930  0.03390  0.60320  Biso   1.000  C
  C69      1.0000 0.53320  0.38679  0.38626  Biso   1.000  C
  C70      1.0000 0.45060  0.43916  0.43911  Biso   1.000  C
  C71      1.0000 0.58120  0.41646  0.41607  Biso   1.000  C
  C72      1.0000 0.34560  0.38111  0.38100  Biso   1.000  C
  C73      1.0000 0.22880  0.40417  0.40417  Biso   1.000  C
  C74      1.0000 0.66970  0.36040  0.36058  Biso   1.000  C
  C75      1.0000 0.92520  0.31417  0.31420  Biso   1.000  C
  C76      1.0000 0.80790  0.38060  0.33657  Biso   1.000  C
  C77      1.0000 0.81900  0.42750  0.32590  Biso   1.000  C
  C78      1.0000 0.93960  0.35870  0.31280  Biso   1.000  C
  C79      1.0000 0.78910  0.29260  0.33810  Biso   1.000  C
  C80      1.0000 0.66660  0.31930  0.36020  Biso   1.000  C
  C81      1.0000 0.12220  0.28560  0.26400  Biso   1.000  C
  C82      1.0000 0.68960  0.53350  0.39694  Biso   1.000  C
  C83      1.0000 0.80220  0.51975  0.43395  Biso   1.000  C
  C84      1.0000 0.19890  0.56614  0.48059  Biso   1.000  C
  C85      1.0000 0.31070  0.60320  0.46610  Biso   1.000  C
  C86      1.0000 0.53320  0.11321  0.11374  Biso   1.000  C
  C87      1.0000 0.45060  0.06084  0.06089  Biso   1.000  C
  C88      1.0000 0.58120  0.08354  0.08393  Biso   1.000  C
  C89      1.0000 0.34560  0.11889  0.11900  Biso   1.000  C
  C90      1.0000 0.22880  0.09583  0.09583  Biso   1.000  C
  C91      1.0000 0.66970  0.13960  0.13942  Biso   1.000  C
  C92      1.0000 0.92520  0.18583  0.18580  Biso   1.000  C
  C93      1.0000 0.80790  0.11940  0.16343  Biso   1.000  C
  C94      1.0000 0.81900  0.07250  0.17410  Biso   1.000  C
  C95      1.0000 0.93960  0.14130  0.18720  Biso   1.000  C
  C96      1.0000 0.78910  0.20740  0.16190  Biso   1.000  C
  C97      1.0000 0.66660  0.18070  0.13980  Biso   1.000  C
  C98      1.0000 0.12220  0.21440  0.23600  Biso   1.000  C
  C99      1.0000 0.68960  0.96650  0.10306  Biso   1.000  C
  C100     1.0000 0.80220  0.98025  0.06605  Biso   1.000  C
  C101     1.0000 0.19890  0.93386  0.01941  Biso   1.000  C
  C102     1.0000 0.31070  0.89680  0.03390  Biso   1.000  C
  C103     1.0000 0.03320  0.61374  0.88679  Biso   1.000  C
  C104     1.0000 0.95060  0.56089  0.93916  Biso   1.000  C
  C105     1.0000 0.08120  0.58393  0.91646  Biso   1.000  C
  C106     1.0000 0.84560  0.61900  0.88111  Biso   1.000  C
  C107     1.0000 0.72880  0.59583  0.90417  Biso   1.000  C
  C108     1.0000 0.16970  0.63942  0.86040  Biso   1.000  C
  C109     1.0000 0.42520  0.68580  0.81417  Biso   1.000  C
  C110     1.0000 0.30790  0.66343  0.88060  Biso   1.000  C
  C111     1.0000 0.31900  0.67410  0.92750  Biso   1.000  C
  C112     1.0000 0.43960  0.68720  0.85870  Biso   1.000  C
  C113     1.0000 0.28910  0.66190  0.79260  Biso   1.000  C
  C114     1.0000 0.16660  0.63980  0.81930  Biso   1.000  C
  C115     1.0000 0.62220  0.73600  0.78560  Biso   1.000  C
  C116     1.0000 0.18960  0.60306  0.03350  Biso   1.000  C
  C117     1.0000 0.30220  0.56605  0.01975  Biso   1.000  C
  C118     1.0000 0.69890  0.51941  0.06614  Biso   1.000  C
  C119     1.0000 0.81070  0.53390  0.10320  Biso   1.000  C
  C120     1.0000 0.03320  0.88626  0.61321  Biso   1.000  C
  C121     1.0000 0.95060  0.93911  0.56084  Biso   1.000  C
  C122     1.0000 0.08120  0.91607  0.58354  Biso   1.000  C
  C123     1.0000 0.84560  0.88100  0.61889  Biso   1.000  C
  C124     1.0000 0.72880  0.90417  0.59583  Biso   1.000  C
  C125     1.0000 0.16970  0.86058  0.63960  Biso   1.000  C
  C126     1.0000 0.42520  0.81420  0.68583  Biso   1.000  C
  C127     1.0000 0.30790  0.83657  0.61940  Biso   1.000  C
  C128     1.0000 0.31900  0.82590  0.57250  Biso   1.000  C
  C129     1.0000 0.43960  0.81280  0.64130  Biso   1.000  C
  C130     1.0000 0.28910  0.83810  0.70740  Biso   1.000  C
  C131     1.0000 0.16660  0.86020  0.68070  Biso   1.000  C
  C132     1.0000 0.62220  0.76400  0.71440  Biso   1.000  C
  C133     1.0000 0.18960  0.89694  0.46650  Biso   1.000  C
  C134     1.0000 0.30220  0.93395  0.48025  Biso   1.000  C
  C135     1.0000 0.69890  0.98059  0.43386  Biso   1.000  C
  C136     1.0000 0.81070  0.96610  0.39680  Biso   1.000  C
  C137     1.0000 0.75000  0.75000  0.75000  Biso   1.000  C
  C138     1.0000 0.25000  0.25000  0.25000  Biso   1.000  C
  N1       1.0000 0.72480  0.56638  0.56649  Biso   1.000  N
  N2       1.0000 0.72480  0.93362  0.93351  Biso   1.000  N
  N3       1.0000 0.22480  0.43351  0.06638  Biso   1.000  N
  N4       1.0000 0.22480  0.06649  0.43362  Biso   1.000  N
  N5       1.0000 0.27520  0.43362  0.43351  Biso   1.000  N
  N6       1.0000 0.27520  0.06638  0.06649  Biso   1.000  N
  N7       1.0000 0.77520  0.56649  0.93362  Biso   1.000  N
  N8       1.0000 0.77520  0.93351  0.56638  Biso   1.000  N
  O1       1.0000 0.76680  0.47057  0.53651  Biso   1.000  O
  O2       1.0000 0.07530  0.50824  0.57227  Biso   1.000  O
  O3       1.0000 0.92490  0.42781  0.49168  Biso   1.000  O
  O4       1.0000 0.23460  0.46341  0.52915  Biso   1.000  O
  O5       1.0000 0.96840  0.72400  0.69790  Biso   1.000  O
  O6       1.0000 0.76680  0.02943  0.96349  Biso   1.000  O
  O7       1.0000 0.07530  0.99176  0.92773  Biso   1.000  O
  O8       1.0000 0.92490  0.07219  0.00832  Biso   1.000  O
  O9       1.0000 0.23460  0.03659  0.97085  Biso   1.000  O
  O10      1.0000 0.96840  0.77600  0.80210  Biso   1.000  O
  O11      1.0000 0.26680  0.46349  0.97057  Biso   1.000  O
  O12      1.0000 0.57530  0.42773  0.00824  Biso   1.000  O
  O13      1.0000 0.42490  0.50832  0.92781  Biso   1.000  O
  O14      1.0000 0.73460  0.47085  0.96341  Biso   1.000  O
  O15      1.0000 0.46840  0.30210  0.22400  Biso   1.000  O
  O16      1.0000 0.26680  0.03651  0.52943  Biso   1.000  O
  O17      1.0000 0.57530  0.07227  0.49176  Biso   1.000  O
  O18      1.0000 0.42490  0.99168  0.57219  Biso   1.000  O
  O19      1.0000 0.73460  0.02915  0.53659  Biso   1.000  O
  O20      1.0000 0.46840  0.19790  0.27600  Biso   1.000  O
  O21      1.0000 0.23320  0.52943  0.46349  Biso   1.000  O
  O22      1.0000 0.92470  0.49176  0.42773  Biso   1.000  O
  O23      1.0000 0.07510  0.57219  0.50832  Biso   1.000  O
  O24      1.0000 0.76540  0.53659  0.47085  Biso   1.000  O
  O25      1.0000 0.03160  0.27600  0.30210  Biso   1.000  O
  O26      1.0000 0.23320  0.97057  0.03651  Biso   1.000  O
  O27      1.0000 0.92470  0.00824  0.07227  Biso   1.000  O
  O28      1.0000 0.07510  0.92781  0.99168  Biso   1.000  O
  O29      1.0000 0.76540  0.96341  0.02915  Biso   1.000  O
  O30      1.0000 0.03160  0.22400  0.19790  Biso   1.000  O
  O31      1.0000 0.73320  0.53651  0.02943  Biso   1.000  O
  O32      1.0000 0.42470  0.57227  0.99176  Biso   1.000  O
  O33      1.0000 0.57510  0.49168  0.07219  Biso   1.000  O
  O34      1.0000 0.26540  0.52915  0.03659  Biso   1.000  O
  O35      1.0000 0.53160  0.69790  0.77600  Biso   1.000  O
  O36      1.0000 0.73320  0.96349  0.47057  Biso   1.000  O
  O37      1.0000 0.42470  0.92773  0.50824  Biso   1.000  O
  O38      1.0000 0.57510  0.00832  0.42781  Biso   1.000  O
  O39      1.0000 0.26540  0.97085  0.46341  Biso   1.000  O
  O40      1.0000 0.53160  0.80210  0.72400  Biso   1.000  O
