data_MOXPEV_charged
_audit_creation_date              2014-07-02
_audit_creation_method            'Materials Studio'
_symmetry_space_group_name_H-M    'P1'
_symmetry_Int_Tables_number       1
_symmetry_cell_setting            triclinic
loop_
_symmetry_equiv_pos_as_xyz
  x,y,z
_cell_length_a                    14.1838
_cell_length_b                    14.1838
_cell_length_c                    21.6400
_cell_angle_alpha                 93.5527
_cell_angle_beta                  93.5527
_cell_angle_gamma                 119.5880
loop_
_atom_site_label
_atom_site_type_symbol
_atom_site_fract_x
_atom_site_fract_y
_atom_site_fract_z
_atom_site_U_iso_or_equiv
_atom_site_adp_type
_atom_site_occupancy
Cu1    Cu    0.23287   0.98521   0.42960   0.01267  Uiso   1.00
Cu2    Cu    0.01479   0.76713   0.07040   0.01267  Uiso   1.00
Cu3    Cu    0.76713   0.01479   0.57040   0.01267  Uiso   1.00
Cu4    Cu    0.98521   0.23287   0.92960   0.01267  Uiso   1.00
H1     H     0.51230   0.88330   0.20820   0.01267  Uiso   1.00
H2     H     0.40170   0.76990   0.19410   0.01267  Uiso   1.00
H3     H     0.40540   0.83280   0.28850   0.01267  Uiso   1.00
H4     H     0.34980   0.86760   0.37790   0.01267  Uiso   1.00
H5     H     0.22480   0.02580   0.29890   0.01267  Uiso   1.00
H6     H     0.27580   0.99200   0.20220   0.01267  Uiso   1.00
H7     H     0.53170   0.74710   0.06420   0.01267  Uiso   1.00
H8     H     0.50990   0.71470   0.13310   0.01267  Uiso   1.00
H9     H     0.84110   0.98830   0.13420   0.01267  Uiso   1.00
H10    H     0.97840   0.95860   0.10600   0.01267  Uiso   1.00
H11    H     0.77210   0.64410   0.06720   0.01267  Uiso   1.00
H12    H     0.63390   0.67290   0.09700   0.01267  Uiso   1.00
H13    H     0.59270   0.99210   0.11820   0.01267  Uiso   1.00
H14    H     0.47850   0.97550   0.08970   0.01267  Uiso   1.00
H15    H     0.69780   0.11620   0.07880   0.01267  Uiso   1.00
H16    H     0.86440   0.22540   0.04310   0.01267  Uiso   1.00
H17    H     0.80020   0.01100   0.90270   0.01267  Uiso   1.00
H18    H     0.63730   0.89370   0.93550   0.01267  Uiso   1.00
H19    H     0.37300   0.75580   0.02900   0.01267  Uiso   1.00
H20    H     0.31310   0.79170   0.07710   0.01267  Uiso   1.00
H21    H     0.22410   0.46250   0.11870   0.01267  Uiso   1.00
H22    H     0.08690   0.31430   0.06320   0.01267  Uiso   1.00
H23    H     0.07780   0.47840   0.92720   0.01267  Uiso   1.00
H24    H     0.20680   0.63400   0.98460   0.01267  Uiso   1.00
H25    H     0.11670   0.48770   0.29180   0.01267  Uiso   1.00
H26    H     0.23010   0.59830   0.30590   0.01267  Uiso   1.00
H27    H     0.16720   0.59460   0.21150   0.01267  Uiso   1.00
H28    H     0.13240   0.65020   0.12210   0.01267  Uiso   1.00
H29    H     0.97420   0.77520   0.20110   0.01267  Uiso   1.00
H30    H     0.00800   0.72420   0.29780   0.01267  Uiso   1.00
H31    H     0.25290   0.46830   0.43580   0.01267  Uiso   1.00
H32    H     0.28530   0.49010   0.36690   0.01267  Uiso   1.00
H33    H     0.01170   0.15890   0.36580   0.01267  Uiso   1.00
H34    H     0.04140   0.02160   0.39400   0.01267  Uiso   1.00
H35    H     0.35590   0.22790   0.43280   0.01267  Uiso   1.00
H36    H     0.32710   0.36610   0.40300   0.01267  Uiso   1.00
H37    H     0.00790   0.40730   0.38180   0.01267  Uiso   1.00
H38    H     0.02450   0.52150   0.41030   0.01267  Uiso   1.00
H39    H     0.88380   0.30220   0.42120   0.01267  Uiso   1.00
H40    H     0.77460   0.13560   0.45690   0.01267  Uiso   1.00
H41    H     0.98900   0.19980   0.59730   0.01267  Uiso   1.00
H42    H     0.10630   0.36270   0.56450   0.01267  Uiso   1.00
H43    H     0.24420   0.62700   0.47100   0.01267  Uiso   1.00
H44    H     0.20830   0.68690   0.42290   0.01267  Uiso   1.00
H45    H     0.53750   0.77590   0.38130   0.01267  Uiso   1.00
H46    H     0.68570   0.91310   0.43680   0.01267  Uiso   1.00
H47    H     0.52160   0.92220   0.57280   0.01267  Uiso   1.00
H48    H     0.36600   0.79320   0.51540   0.01267  Uiso   1.00
H49    H     0.48770   0.11670   0.79180   0.01267  Uiso   1.00
H50    H     0.59830   0.23010   0.80590   0.01267  Uiso   1.00
H51    H     0.59460   0.16720   0.71150   0.01267  Uiso   1.00
H52    H     0.65020   0.13240   0.62210   0.01267  Uiso   1.00
H53    H     0.77520   0.97420   0.70110   0.01267  Uiso   1.00
H54    H     0.72420   0.00800   0.79780   0.01267  Uiso   1.00
H55    H     0.46830   0.25290   0.93580   0.01267  Uiso   1.00
H56    H     0.49010   0.28530   0.86690   0.01267  Uiso   1.00
H57    H     0.15890   0.01170   0.86580   0.01267  Uiso   1.00
H58    H     0.02160   0.04140   0.89400   0.01267  Uiso   1.00
H59    H     0.22790   0.35590   0.93280   0.01267  Uiso   1.00
H60    H     0.36610   0.32710   0.90300   0.01267  Uiso   1.00
H61    H     0.40730   0.00790   0.88180   0.01267  Uiso   1.00
H62    H     0.52150   0.02450   0.91030   0.01267  Uiso   1.00
H63    H     0.30220   0.88380   0.92120   0.01267  Uiso   1.00
H64    H     0.13560   0.77460   0.95690   0.01267  Uiso   1.00
H65    H     0.19980   0.98900   0.09730   0.01267  Uiso   1.00
H66    H     0.36270   0.10630   0.06450   0.01267  Uiso   1.00
H67    H     0.62700   0.24420   0.97100   0.01267  Uiso   1.00
H68    H     0.68690   0.20830   0.92290   0.01267  Uiso   1.00
H69    H     0.77590   0.53750   0.88130   0.01267  Uiso   1.00
H70    H     0.91310   0.68570   0.93680   0.01267  Uiso   1.00
H71    H     0.92220   0.52160   0.07280   0.01267  Uiso   1.00
H72    H     0.79320   0.36600   0.01540   0.01267  Uiso   1.00
H73    H     0.88330   0.51230   0.70820   0.01267  Uiso   1.00
H74    H     0.76990   0.40170   0.69410   0.01267  Uiso   1.00
H75    H     0.83280   0.40540   0.78850   0.01267  Uiso   1.00
H76    H     0.86760   0.34980   0.87790   0.01267  Uiso   1.00
H77    H     0.02580   0.22480   0.79890   0.01267  Uiso   1.00
H78    H     0.99200   0.27580   0.70220   0.01267  Uiso   1.00
H79    H     0.74710   0.53170   0.56420   0.01267  Uiso   1.00
H80    H     0.71470   0.50990   0.63310   0.01267  Uiso   1.00
H81    H     0.98830   0.84110   0.63420   0.01267  Uiso   1.00
H82    H     0.95860   0.97840   0.60600   0.01267  Uiso   1.00
H83    H     0.64410   0.77210   0.56720   0.01267  Uiso   1.00
H84    H     0.67290   0.63390   0.59700   0.01267  Uiso   1.00
H85    H     0.99210   0.59270   0.61820   0.01267  Uiso   1.00
H86    H     0.97550   0.47850   0.58970   0.01267  Uiso   1.00
H87    H     0.11620   0.69780   0.57880   0.01267  Uiso   1.00
H88    H     0.22540   0.86440   0.54310   0.01267  Uiso   1.00
H89    H     0.01100   0.80020   0.40270   0.01267  Uiso   1.00
H90    H     0.89370   0.63730   0.43550   0.01267  Uiso   1.00
H91    H     0.75580   0.37300   0.52900   0.01267  Uiso   1.00
H92    H     0.79170   0.31310   0.57710   0.01267  Uiso   1.00
H93    H     0.46250   0.22410   0.61870   0.01267  Uiso   1.00
H94    H     0.31430   0.08690   0.56320   0.01267  Uiso   1.00
H95    H     0.47840   0.07780   0.42720   0.01267  Uiso   1.00
H96    H     0.63400   0.20680   0.48460   0.01267  Uiso   1.00
C1     C     0.46932   0.83302   0.11216   0.01267  Uiso   1.00
C2     C     0.44417   0.84271   0.18051   0.01267  Uiso   1.00
C3     C     0.34946   0.91484   0.23844   0.01267  Uiso   1.00
C4     C     0.36890   0.87300   0.28986   0.01267  Uiso   1.00
C5     C     0.33353   0.89229   0.34159   0.01267  Uiso   1.00
C6     C     0.25983   0.98447   0.29591   0.01267  Uiso   1.00
C7     C     0.29253   0.96779   0.23851   0.01267  Uiso   1.00
C8     C     0.53679   0.77559   0.10742   0.01267  Uiso   1.00
C9     C     0.72210   0.83158   0.11483   0.01267  Uiso   1.00
C10    C     0.82578   0.91772   0.12002   0.01267  Uiso   1.00
C11    C     0.90770   0.89806   0.10389   0.01267  Uiso   1.00
C12    C     0.78832   0.71502   0.08140   0.01267  Uiso   1.00
C13    C     0.70467   0.73279   0.09792   0.01267  Uiso   1.00
C14    C     0.52590   0.94352   0.09072   0.01267  Uiso   1.00
C15    C     0.64856   0.99428   0.00949   0.01267  Uiso   1.00
C16    C     0.71709   0.09291   0.04252   0.01267  Uiso   1.00
C17    C     0.81696   0.15752   0.02021   0.01267  Uiso   1.00
C18    C     0.78045   0.03313   0.93920   0.01267  Uiso   1.00
C19    C     0.68184   0.96276   0.95775   0.01267  Uiso   1.00
C20    C     0.36159   0.76137   0.07293   0.01267  Uiso   1.00
C21    C     0.23307   0.56947   0.05781   0.01267  Uiso   1.00
C22    C     0.19435   0.46869   0.08018   0.01267  Uiso   1.00
C23    C     0.11449   0.38109   0.04607   0.01267  Uiso   1.00
C24    C     0.10606   0.47472   0.96679   0.01267  Uiso   1.00
C25    C     0.18457   0.56727   0.00108   0.01267  Uiso   1.00
C26    C     0.16698   0.53068   0.38784   0.01267  Uiso   1.00
C27    C     0.15729   0.55583   0.31949   0.01267  Uiso   1.00
C28    C     0.08516   0.65054   0.26156   0.01267  Uiso   1.00
C29    C     0.12700   0.63110   0.21014   0.01267  Uiso   1.00
C30    C     0.10771   0.66647   0.15841   0.01267  Uiso   1.00
C31    C     0.01553   0.74017   0.20409   0.01267  Uiso   1.00
C32    C     0.03221   0.70747   0.26149   0.01267  Uiso   1.00
C33    C     0.22441   0.46321   0.39258   0.01267  Uiso   1.00
C34    C     0.16842   0.27790   0.38517   0.01267  Uiso   1.00
C35    C     0.08228   0.17422   0.37998   0.01267  Uiso   1.00
C36    C     0.10194   0.09230   0.39611   0.01267  Uiso   1.00
C37    C     0.28498   0.21168   0.41860   0.01267  Uiso   1.00
C38    C     0.26721   0.29533   0.40208   0.01267  Uiso   1.00
C39    C     0.05648   0.47410   0.40928   0.01267  Uiso   1.00
C40    C     0.00572   0.35144   0.49051   0.01267  Uiso   1.00
C41    C     0.90709   0.28291   0.45748   0.01267  Uiso   1.00
C42    C     0.84248   0.18304   0.47979   0.01267  Uiso   1.00
C43    C     0.96687   0.21955   0.56080   0.01267  Uiso   1.00
C44    C     0.03724   0.31816   0.54225   0.01267  Uiso   1.00
C45    C     0.23863   0.63841   0.42707   0.01267  Uiso   1.00
C46    C     0.43053   0.76693   0.44219   0.01267  Uiso   1.00
C47    C     0.53131   0.80565   0.41982   0.01267  Uiso   1.00
C48    C     0.61891   0.88551   0.45393   0.01267  Uiso   1.00
C49    C     0.52528   0.89394   0.53321   0.01267  Uiso   1.00
C50    C     0.43273   0.81543   0.49892   0.01267  Uiso   1.00
C51    C     0.53068   0.16698   0.88784   0.01267  Uiso   1.00
C52    C     0.55583   0.15729   0.81949   0.01267  Uiso   1.00
C53    C     0.65054   0.08516   0.76156   0.01267  Uiso   1.00
C54    C     0.63110   0.12700   0.71014   0.01267  Uiso   1.00
C55    C     0.66647   0.10771   0.65841   0.01267  Uiso   1.00
C56    C     0.74017   0.01553   0.70409   0.01267  Uiso   1.00
C57    C     0.70747   0.03221   0.76149   0.01267  Uiso   1.00
C58    C     0.46321   0.22441   0.89258   0.01267  Uiso   1.00
C59    C     0.27790   0.16842   0.88517   0.01267  Uiso   1.00
C60    C     0.17422   0.08228   0.87998   0.01267  Uiso   1.00
C61    C     0.09230   0.10194   0.89611   0.01267  Uiso   1.00
C62    C     0.21168   0.28498   0.91860   0.01267  Uiso   1.00
C63    C     0.29533   0.26721   0.90208   0.01267  Uiso   1.00
C64    C     0.47410   0.05648   0.90928   0.01267  Uiso   1.00
C65    C     0.35144   0.00572   0.99051   0.01267  Uiso   1.00
C66    C     0.28291   0.90709   0.95748   0.01267  Uiso   1.00
C67    C     0.18304   0.84248   0.97979   0.01267  Uiso   1.00
C68    C     0.21955   0.96687   0.06080   0.01267  Uiso   1.00
C69    C     0.31816   0.03724   0.04225   0.01267  Uiso   1.00
C70    C     0.63841   0.23863   0.92707   0.01267  Uiso   1.00
C71    C     0.76693   0.43053   0.94219   0.01267  Uiso   1.00
C72    C     0.80565   0.53131   0.91982   0.01267  Uiso   1.00
C73    C     0.88551   0.61891   0.95393   0.01267  Uiso   1.00
C74    C     0.89394   0.52528   0.03321   0.01267  Uiso   1.00
C75    C     0.81543   0.43273   0.99892   0.01267  Uiso   1.00
C76    C     0.83302   0.46932   0.61216   0.01267  Uiso   1.00
C77    C     0.84271   0.44417   0.68051   0.01267  Uiso   1.00
C78    C     0.91484   0.34946   0.73844   0.01267  Uiso   1.00
C79    C     0.87300   0.36890   0.78986   0.01267  Uiso   1.00
C80    C     0.89229   0.33353   0.84159   0.01267  Uiso   1.00
C81    C     0.98447   0.25983   0.79591   0.01267  Uiso   1.00
C82    C     0.96779   0.29253   0.73851   0.01267  Uiso   1.00
C83    C     0.77559   0.53679   0.60742   0.01267  Uiso   1.00
C84    C     0.83158   0.72210   0.61483   0.01267  Uiso   1.00
C85    C     0.91772   0.82578   0.62002   0.01267  Uiso   1.00
C86    C     0.89806   0.90770   0.60389   0.01267  Uiso   1.00
C87    C     0.71502   0.78832   0.58140   0.01267  Uiso   1.00
C88    C     0.73279   0.70467   0.59792   0.01267  Uiso   1.00
C89    C     0.94352   0.52590   0.59072   0.01267  Uiso   1.00
C90    C     0.99428   0.64856   0.50949   0.01267  Uiso   1.00
C91    C     0.09291   0.71709   0.54252   0.01267  Uiso   1.00
C92    C     0.15752   0.81696   0.52021   0.01267  Uiso   1.00
C93    C     0.03313   0.78045   0.43920   0.01267  Uiso   1.00
C94    C     0.96276   0.68184   0.45775   0.01267  Uiso   1.00
C95    C     0.76137   0.36159   0.57293   0.01267  Uiso   1.00
C96    C     0.56947   0.23307   0.55781   0.01267  Uiso   1.00
C97    C     0.46869   0.19435   0.58018   0.01267  Uiso   1.00
C98    C     0.38109   0.11449   0.54607   0.01267  Uiso   1.00
C99    C     0.47472   0.10606   0.46679   0.01267  Uiso   1.00
C100   C     0.56727   0.18457   0.50108   0.01267  Uiso   1.00
N1     N     0.27687   0.94357   0.34654   0.01267  Uiso   1.00
N2     N     0.89526   0.80020   0.08554   0.01267  Uiso   1.00
N3     N     0.85164   0.13164   0.96888   0.01267  Uiso   1.00
N4     N     0.06963   0.37985   0.98907   0.01267  Uiso   1.00
N5     N     0.05643   0.72313   0.15346   0.01267  Uiso   1.00
N6     N     0.19980   0.10474   0.41446   0.01267  Uiso   1.00
N7     N     0.86836   0.14836   0.53112   0.01267  Uiso   1.00
N8     N     0.62015   0.93037   0.51093   0.01267  Uiso   1.00
N9     N     0.72313   0.05643   0.65346   0.01267  Uiso   1.00
N10    N     0.10474   0.19980   0.91446   0.01267  Uiso   1.00
N11    N     0.14836   0.86836   0.03112   0.01267  Uiso   1.00
N12    N     0.93037   0.62015   0.01093   0.01267  Uiso   1.00
N13    N     0.94357   0.27687   0.84654   0.01267  Uiso   1.00
N14    N     0.80020   0.89526   0.58554   0.01267  Uiso   1.00
N15    N     0.13164   0.85164   0.46888   0.01267  Uiso   1.00
N16    N     0.37985   0.06963   0.48907   0.01267  Uiso   1.00
O1     O     0.38411   0.89819   0.18297   0.01267  Uiso   1.00
O2     O     0.64953   0.85693   0.12961   0.01267  Uiso   1.00
O3     O     0.55114   0.92584   0.02831   0.01267  Uiso   1.00
O4     O     0.31525   0.65655   0.09552   0.01267  Uiso   1.00
O5     O     0.10181   0.61589   0.31703   0.01267  Uiso   1.00
O6     O     0.14307   0.35047   0.37039   0.01267  Uiso   1.00
O7     O     0.07416   0.44886   0.47169   0.01267  Uiso   1.00
O8     O     0.34345   0.68475   0.40448   0.01267  Uiso   1.00
O9     O     0.61589   0.10181   0.81703   0.01267  Uiso   1.00
O10    O     0.35047   0.14307   0.87039   0.01267  Uiso   1.00
O11    O     0.44886   0.07416   0.97169   0.01267  Uiso   1.00
O12    O     0.68475   0.34345   0.90448   0.01267  Uiso   1.00
O13    O     0.89819   0.38411   0.68297   0.01267  Uiso   1.00
O14    O     0.85693   0.64953   0.62961   0.01267  Uiso   1.00
O15    O     0.92584   0.55114   0.52831   0.01267  Uiso   1.00
O16    O     0.65655   0.31525   0.59552   0.01267  Uiso   1.00
B1     B     0.72339   0.11141   0.30690   0.01267  Uiso   1.00
F1     F     0.80874   0.20830   0.30769   0.01267  Uiso   1.00
F2     F     0.65966   0.11440   0.34716   0.01267  Uiso   1.00
F3     F     0.67051   0.08007   0.25123   0.01267  Uiso   1.00
F4     F     0.75427   0.04189   0.32125   0.01267  Uiso   1.00
B2     B     0.88859   0.27661   0.19310   0.01267  Uiso   1.00
F5     F     0.79170   0.19126   0.19231   0.01267  Uiso   1.00
F6     F     0.88560   0.34034   0.15284   0.01267  Uiso   1.00
F7     F     0.91993   0.32949   0.24877   0.01267  Uiso   1.00
F8     F     0.95811   0.24573   0.17875   0.01267  Uiso   1.00
B3     B     0.27661   0.88859   0.69310   0.01267  Uiso   1.00
F9     F     0.19126   0.79170   0.69231   0.01267  Uiso   1.00
F10    F     0.34034   0.88560   0.65284   0.01267  Uiso   1.00
F11    F     0.32949   0.91993   0.74877   0.01267  Uiso   1.00
F12    F     0.24573   0.95811   0.67875   0.01267  Uiso   1.00
B4     B     0.11141   0.72339   0.80690   0.01267  Uiso   1.00
F13    F     0.20830   0.80874   0.80769   0.01267  Uiso   1.00
F14    F     0.11440   0.65966   0.84716   0.01267  Uiso   1.00
F15    F     0.08007   0.67051   0.75123   0.01267  Uiso   1.00
F16    F     0.04189   0.75427   0.82125   0.01267  Uiso   1.00
B5     B     0.42787   0.57213   0.25000   0.01267  Uiso   1.00
F17    F     0.48678   0.56748   0.20390   0.01267  Uiso   1.00
F18    F     0.46830   0.67640   0.27269   0.01267  Uiso   1.00
F19    F     0.43252   0.51322   0.29610   0.01267  Uiso   1.00
F20    F     0.32360   0.53170   0.22731   0.01267  Uiso   1.00
B6     B     0.57213   0.42787   0.75000   0.01267  Uiso   1.00
F21    F     0.51322   0.43252   0.79610   0.01267  Uiso   1.00
F22    F     0.53170   0.32360   0.72731   0.01267  Uiso   1.00
F23    F     0.56748   0.48678   0.70390   0.01267  Uiso   1.00
F24    F     0.67640   0.46830   0.77269   0.01267  Uiso   1.00
