data_image0
_cell_length_a       8.0576
_cell_length_b       22.1138
_cell_length_c       22.1138
_cell_angle_alpha    90
_cell_angle_beta     90
_cell_angle_gamma    90

_symmetry_space_group_name_H-M    P 1
_symmetry_int_tables_number       1

loop_
  _symmetry_equiv_pos_as_xyz
  'x, y, z'

loop_
  _atom_site_label
  _atom_site_occupancy
  _atom_site_fract_x
  _atom_site_fract_y
  _atom_site_fract_z
  _atom_site_thermal_displace_type
  _atom_site_B_iso_or_equiv
  _atom_site_type_symbol
  Co1      1.0000 0.24233  0.74480  0.24464  Biso   1.000  Co
  Co2      1.0000 0.24233  0.25520  0.75537  Biso   1.000  Co
  Co3      1.0000 0.75767  0.24464  0.25520  Biso   1.000  Co
  Co4      1.0000 0.75767  0.75537  0.74480  Biso   1.000  Co
  Co5      1.0000 0.25767  0.75520  0.74463  Biso   1.000  Co
  Co6      1.0000 0.25767  0.24480  0.25537  Biso   1.000  Co
  Co7      1.0000 0.74233  0.25537  0.75520  Biso   1.000  Co
  Co8      1.0000 0.74233  0.74463  0.24480  Biso   1.000  Co
  H1       1.0000 0.04500  0.65310  0.24730  Biso   1.000  H
  H2       1.0000 0.15620  0.65300  0.29350  Biso   1.000  H
  H3       1.0000 0.43190  0.82700  0.25100  Biso   1.000  H
  H4       1.0000 0.32850  0.86550  0.22030  Biso   1.000  H
  H5       1.0000 0.99220  0.81550  0.22260  Biso   1.000  H
  H6       1.0000 0.99220  0.76580  0.17360  Biso   1.000  H
  H7       1.0000 0.36200  0.74360  0.49440  Biso   1.000  H
  H8       1.0000 0.00040  0.83100  0.58500  Biso   1.000  H
  H9       1.0000 0.98920  0.82320  0.40360  Biso   1.000  H
  H10      1.0000 0.66520  0.79220  0.48740  Biso   1.000  H
  H11      1.0000 0.56300  0.84990  0.46960  Biso   1.000  H
  H12      1.0000 0.69160  0.82250  0.42400  Biso   1.000  H
  H13      1.0000 0.72370  0.94750  0.45110  Biso   1.000  H
  H14      1.0000 0.91230  0.95040  0.46830  Biso   1.000  H
  H15      1.0000 0.85480  0.91230  0.41240  Biso   1.000  H
  H16      1.0000 0.73830  0.85760  0.58140  Biso   1.000  H
  H17      1.0000 0.83500  0.91830  0.57130  Biso   1.000  H
  H18      1.0000 0.64820  0.91320  0.55210  Biso   1.000  H
  H19      1.0000 0.04500  0.34690  0.75270  Biso   1.000  H
  H20      1.0000 0.15620  0.34700  0.70650  Biso   1.000  H
  H21      1.0000 0.43190  0.17300  0.74900  Biso   1.000  H
  H22      1.0000 0.32850  0.13450  0.77970  Biso   1.000  H
  H23      1.0000 0.99220  0.18450  0.77740  Biso   1.000  H
  H24      1.0000 0.99220  0.23420  0.82640  Biso   1.000  H
  H25      1.0000 0.36200  0.25640  0.50560  Biso   1.000  H
  H26      1.0000 0.00040  0.16900  0.41500  Biso   1.000  H
  H27      1.0000 0.98920  0.17680  0.59640  Biso   1.000  H
  H28      1.0000 0.66520  0.20780  0.51260  Biso   1.000  H
  H29      1.0000 0.56300  0.15010  0.53040  Biso   1.000  H
  H30      1.0000 0.69160  0.17750  0.57600  Biso   1.000  H
  H31      1.0000 0.72370  0.05250  0.54890  Biso   1.000  H
  H32      1.0000 0.91230  0.04960  0.53170  Biso   1.000  H
  H33      1.0000 0.85480  0.08770  0.58760  Biso   1.000  H
  H34      1.0000 0.73830  0.14240  0.41860  Biso   1.000  H
  H35      1.0000 0.83500  0.08170  0.42870  Biso   1.000  H
  H36      1.0000 0.64820  0.08680  0.44790  Biso   1.000  H
  H37      1.0000 0.95500  0.24730  0.34690  Biso   1.000  H
  H38      1.0000 0.84380  0.29350  0.34700  Biso   1.000  H
  H39      1.0000 0.56810  0.25100  0.17300  Biso   1.000  H
  H40      1.0000 0.67150  0.22030  0.13450  Biso   1.000  H
  H41      1.0000 0.00780  0.22260  0.18450  Biso   1.000  H
  H42      1.0000 0.00780  0.17360  0.23420  Biso   1.000  H
  H43      1.0000 0.63800  0.49440  0.25640  Biso   1.000  H
  H44      1.0000 0.99960  0.58500  0.16900  Biso   1.000  H
  H45      1.0000 0.01080  0.40360  0.17680  Biso   1.000  H
  H46      1.0000 0.33480  0.48740  0.20780  Biso   1.000  H
  H47      1.0000 0.43700  0.46960  0.15010  Biso   1.000  H
  H48      1.0000 0.30840  0.42400  0.17750  Biso   1.000  H
  H49      1.0000 0.27630  0.45110  0.05250  Biso   1.000  H
  H50      1.0000 0.08770  0.46830  0.04960  Biso   1.000  H
  H51      1.0000 0.14520  0.41240  0.08770  Biso   1.000  H
  H52      1.0000 0.26170  0.58140  0.14240  Biso   1.000  H
  H53      1.0000 0.16500  0.57130  0.08170  Biso   1.000  H
  H54      1.0000 0.35180  0.55210  0.08680  Biso   1.000  H
  H55      1.0000 0.95500  0.75270  0.65310  Biso   1.000  H
  H56      1.0000 0.84380  0.70650  0.65300  Biso   1.000  H
  H57      1.0000 0.56810  0.74900  0.82700  Biso   1.000  H
  H58      1.0000 0.67150  0.77970  0.86550  Biso   1.000  H
  H59      1.0000 0.00780  0.77740  0.81550  Biso   1.000  H
  H60      1.0000 0.00780  0.82640  0.76580  Biso   1.000  H
  H61      1.0000 0.63800  0.50560  0.74360  Biso   1.000  H
  H62      1.0000 0.99960  0.41500  0.83100  Biso   1.000  H
  H63      1.0000 0.01080  0.59640  0.82320  Biso   1.000  H
  H64      1.0000 0.33480  0.51260  0.79220  Biso   1.000  H
  H65      1.0000 0.43700  0.53040  0.84990  Biso   1.000  H
  H66      1.0000 0.30840  0.57600  0.82250  Biso   1.000  H
  H67      1.0000 0.27630  0.54890  0.94750  Biso   1.000  H
  H68      1.0000 0.08770  0.53170  0.95040  Biso   1.000  H
  H69      1.0000 0.14520  0.58760  0.91230  Biso   1.000  H
  H70      1.0000 0.26170  0.41860  0.85760  Biso   1.000  H
  H71      1.0000 0.16500  0.42870  0.91830  Biso   1.000  H
  H72      1.0000 0.35180  0.44790  0.91320  Biso   1.000  H
  H73      1.0000 0.45500  0.84690  0.74730  Biso   1.000  H
  H74      1.0000 0.34380  0.84700  0.79350  Biso   1.000  H
  H75      1.0000 0.06810  0.67300  0.75100  Biso   1.000  H
  H76      1.0000 0.17150  0.63450  0.72030  Biso   1.000  H
  H77      1.0000 0.50780  0.68450  0.72260  Biso   1.000  H
  H78      1.0000 0.50780  0.73420  0.67360  Biso   1.000  H
  H79      1.0000 0.13800  0.75640  0.99440  Biso   1.000  H
  H80      1.0000 0.49960  0.66900  0.08500  Biso   1.000  H
  H81      1.0000 0.51080  0.67680  0.90360  Biso   1.000  H
  H82      1.0000 0.83480  0.70780  0.98740  Biso   1.000  H
  H83      1.0000 0.93700  0.65010  0.96960  Biso   1.000  H
  H84      1.0000 0.80840  0.67750  0.92400  Biso   1.000  H
  H85      1.0000 0.77630  0.55250  0.95110  Biso   1.000  H
  H86      1.0000 0.58770  0.54960  0.96830  Biso   1.000  H
  H87      1.0000 0.64520  0.58770  0.91240  Biso   1.000  H
  H88      1.0000 0.76170  0.64240  0.08140  Biso   1.000  H
  H89      1.0000 0.66500  0.58170  0.07130  Biso   1.000  H
  H90      1.0000 0.85180  0.58680  0.05210  Biso   1.000  H
  H91      1.0000 0.45500  0.15310  0.25270  Biso   1.000  H
  H92      1.0000 0.34380  0.15300  0.20650  Biso   1.000  H
  H93      1.0000 0.06810  0.32700  0.24900  Biso   1.000  H
  H94      1.0000 0.17150  0.36550  0.27970  Biso   1.000  H
  H95      1.0000 0.50780  0.31550  0.27740  Biso   1.000  H
  H96      1.0000 0.50780  0.26580  0.32640  Biso   1.000  H
  H97      1.0000 0.13800  0.24360  0.00560  Biso   1.000  H
  H98      1.0000 0.49960  0.33100  0.91500  Biso   1.000  H
  H99      1.0000 0.51080  0.32320  0.09640  Biso   1.000  H
  H100     1.0000 0.83480  0.29220  0.01260  Biso   1.000  H
  H101     1.0000 0.93700  0.34990  0.03040  Biso   1.000  H
  H102     1.0000 0.80840  0.32250  0.07600  Biso   1.000  H
  H103     1.0000 0.77630  0.44750  0.04890  Biso   1.000  H
  H104     1.0000 0.58770  0.45040  0.03170  Biso   1.000  H
  H105     1.0000 0.64520  0.41230  0.08760  Biso   1.000  H
  H106     1.0000 0.76170  0.35760  0.91860  Biso   1.000  H
  H107     1.0000 0.66500  0.41830  0.92870  Biso   1.000  H
  H108     1.0000 0.85180  0.41320  0.94790  Biso   1.000  H
  H109     1.0000 0.54500  0.25270  0.84690  Biso   1.000  H
  H110     1.0000 0.65620  0.20650  0.84700  Biso   1.000  H
  H111     1.0000 0.93190  0.24900  0.67300  Biso   1.000  H
  H112     1.0000 0.82850  0.27970  0.63450  Biso   1.000  H
  H113     1.0000 0.49220  0.27740  0.68450  Biso   1.000  H
  H114     1.0000 0.49220  0.32640  0.73420  Biso   1.000  H
  H115     1.0000 0.86200  0.00560  0.75640  Biso   1.000  H
  H116     1.0000 0.50040  0.91500  0.66900  Biso   1.000  H
  H117     1.0000 0.48920  0.09640  0.67680  Biso   1.000  H
  H118     1.0000 0.16520  0.01260  0.70780  Biso   1.000  H
  H119     1.0000 0.06300  0.03040  0.65010  Biso   1.000  H
  H120     1.0000 0.19160  0.07600  0.67750  Biso   1.000  H
  H121     1.0000 0.22370  0.04890  0.55250  Biso   1.000  H
  H122     1.0000 0.41230  0.03170  0.54960  Biso   1.000  H
  H123     1.0000 0.35480  0.08760  0.58770  Biso   1.000  H
  H124     1.0000 0.23830  0.91860  0.64240  Biso   1.000  H
  H125     1.0000 0.33500  0.92870  0.58170  Biso   1.000  H
  H126     1.0000 0.14820  0.94790  0.58680  Biso   1.000  H
  H127     1.0000 0.54500  0.74730  0.15310  Biso   1.000  H
  H128     1.0000 0.65620  0.79350  0.15300  Biso   1.000  H
  H129     1.0000 0.93190  0.75100  0.32700  Biso   1.000  H
  H130     1.0000 0.82850  0.72030  0.36550  Biso   1.000  H
  H131     1.0000 0.49220  0.72260  0.31550  Biso   1.000  H
  H132     1.0000 0.49220  0.67360  0.26580  Biso   1.000  H
  H133     1.0000 0.86200  0.99440  0.24360  Biso   1.000  H
  H134     1.0000 0.50040  0.08500  0.33100  Biso   1.000  H
  H135     1.0000 0.48920  0.90360  0.32320  Biso   1.000  H
  H136     1.0000 0.16520  0.98740  0.29220  Biso   1.000  H
  H137     1.0000 0.06300  0.96960  0.34990  Biso   1.000  H
  H138     1.0000 0.19160  0.92400  0.32250  Biso   1.000  H
  H139     1.0000 0.22370  0.95110  0.44750  Biso   1.000  H
  H140     1.0000 0.41230  0.96830  0.45040  Biso   1.000  H
  H141     1.0000 0.35480  0.91240  0.41230  Biso   1.000  H
  H142     1.0000 0.23830  0.08140  0.35760  Biso   1.000  H
  H143     1.0000 0.33500  0.07130  0.41830  Biso   1.000  H
  H144     1.0000 0.14820  0.05210  0.41320  Biso   1.000  H
  C1       1.0000 0.18550  0.78014  0.44001  Biso   1.000  C
  C2       1.0000 0.26365  0.76562  0.49437  Biso   1.000  C
  C3       1.0000 0.19272  0.78452  0.54884  Biso   1.000  C
  C4       1.0000 0.04604  0.81852  0.54842  Biso   1.000  C
  C5       1.0000 0.96637  0.83418  0.49434  Biso   1.000  C
  C6       1.0000 0.03968  0.81384  0.44026  Biso   1.000  C
  C7       1.0000 0.26126  0.75912  0.38152  Biso   1.000  C
  C8       1.0000 0.27534  0.76832  0.60765  Biso   1.000  C
  C9       1.0000 0.80443  0.87021  0.49275  Biso   1.000  C
  C10      1.0000 0.66830  0.82995  0.46594  Biso   1.000  C
  C11      1.0000 0.82580  0.92513  0.45245  Biso   1.000  C
  C12      1.0000 0.75160  0.89180  0.55514  Biso   1.000  C
  C13      1.0000 0.18550  0.21986  0.55999  Biso   1.000  C
  C14      1.0000 0.26365  0.23438  0.50563  Biso   1.000  C
  C15      1.0000 0.19272  0.21548  0.45116  Biso   1.000  C
  C16      1.0000 0.04604  0.18148  0.45158  Biso   1.000  C
  C17      1.0000 0.96637  0.16582  0.50566  Biso   1.000  C
  C18      1.0000 0.03968  0.18616  0.55974  Biso   1.000  C
  C19      1.0000 0.26126  0.24088  0.61848  Biso   1.000  C
  C20      1.0000 0.27534  0.23168  0.39235  Biso   1.000  C
  C21      1.0000 0.80443  0.12979  0.50725  Biso   1.000  C
  C22      1.0000 0.66830  0.17005  0.53406  Biso   1.000  C
  C23      1.0000 0.82580  0.07487  0.54755  Biso   1.000  C
  C24      1.0000 0.75160  0.10820  0.44486  Biso   1.000  C
  C25      1.0000 0.81450  0.44001  0.21986  Biso   1.000  C
  C26      1.0000 0.73635  0.49437  0.23438  Biso   1.000  C
  C27      1.0000 0.80728  0.54884  0.21548  Biso   1.000  C
  C28      1.0000 0.95396  0.54842  0.18148  Biso   1.000  C
  C29      1.0000 0.03363  0.49434  0.16582  Biso   1.000  C
  C30      1.0000 0.96032  0.44026  0.18616  Biso   1.000  C
  C31      1.0000 0.73874  0.38152  0.24088  Biso   1.000  C
  C32      1.0000 0.72466  0.60765  0.23168  Biso   1.000  C
  C33      1.0000 0.19557  0.49275  0.12979  Biso   1.000  C
  C34      1.0000 0.33170  0.46594  0.17005  Biso   1.000  C
  C35      1.0000 0.17420  0.45245  0.07487  Biso   1.000  C
  C36      1.0000 0.24840  0.55514  0.10820  Biso   1.000  C
  C37      1.0000 0.81450  0.55999  0.78014  Biso   1.000  C
  C38      1.0000 0.73635  0.50563  0.76562  Biso   1.000  C
  C39      1.0000 0.80728  0.45116  0.78452  Biso   1.000  C
  C40      1.0000 0.95396  0.45158  0.81852  Biso   1.000  C
  C41      1.0000 0.03363  0.50566  0.83418  Biso   1.000  C
  C42      1.0000 0.96032  0.55974  0.81384  Biso   1.000  C
  C43      1.0000 0.73874  0.61848  0.75912  Biso   1.000  C
  C44      1.0000 0.72466  0.39235  0.76832  Biso   1.000  C
  C45      1.0000 0.19557  0.50725  0.87021  Biso   1.000  C
  C46      1.0000 0.33170  0.53406  0.82995  Biso   1.000  C
  C47      1.0000 0.17420  0.54755  0.92513  Biso   1.000  C
  C48      1.0000 0.24840  0.44486  0.89180  Biso   1.000  C
  C49      1.0000 0.31450  0.71986  0.94001  Biso   1.000  C
  C50      1.0000 0.23635  0.73438  0.99437  Biso   1.000  C
  C51      1.0000 0.30728  0.71548  0.04884  Biso   1.000  C
  C52      1.0000 0.45396  0.68148  0.04842  Biso   1.000  C
  C53      1.0000 0.53363  0.66582  0.99434  Biso   1.000  C
  C54      1.0000 0.46032  0.68616  0.94026  Biso   1.000  C
  C55      1.0000 0.23874  0.74088  0.88152  Biso   1.000  C
  C56      1.0000 0.22466  0.73168  0.10765  Biso   1.000  C
  C57      1.0000 0.69557  0.62979  0.99275  Biso   1.000  C
  C58      1.0000 0.83170  0.67005  0.96594  Biso   1.000  C
  C59      1.0000 0.67420  0.57487  0.95245  Biso   1.000  C
  C60      1.0000 0.74840  0.60820  0.05514  Biso   1.000  C
  C61      1.0000 0.31450  0.28014  0.05999  Biso   1.000  C
  C62      1.0000 0.23635  0.26562  0.00563  Biso   1.000  C
  C63      1.0000 0.30728  0.28452  0.95116  Biso   1.000  C
  C64      1.0000 0.45396  0.31852  0.95158  Biso   1.000  C
  C65      1.0000 0.53363  0.33418  0.00566  Biso   1.000  C
  C66      1.0000 0.46032  0.31384  0.05974  Biso   1.000  C
  C67      1.0000 0.23874  0.25912  0.11848  Biso   1.000  C
  C68      1.0000 0.22466  0.26832  0.89235  Biso   1.000  C
  C69      1.0000 0.69557  0.37021  0.00725  Biso   1.000  C
  C70      1.0000 0.83170  0.32995  0.03406  Biso   1.000  C
  C71      1.0000 0.67420  0.42513  0.04755  Biso   1.000  C
  C72      1.0000 0.74840  0.39180  0.94486  Biso   1.000  C
  C73      1.0000 0.68550  0.05999  0.71986  Biso   1.000  C
  C74      1.0000 0.76365  0.00563  0.73438  Biso   1.000  C
  C75      1.0000 0.69272  0.95116  0.71548  Biso   1.000  C
  C76      1.0000 0.54604  0.95158  0.68148  Biso   1.000  C
  C77      1.0000 0.46637  0.00566  0.66582  Biso   1.000  C
  C78      1.0000 0.53968  0.05974  0.68616  Biso   1.000  C
  C79      1.0000 0.76126  0.11848  0.74088  Biso   1.000  C
  C80      1.0000 0.77534  0.89235  0.73168  Biso   1.000  C
  C81      1.0000 0.30443  0.00725  0.62979  Biso   1.000  C
  C82      1.0000 0.16830  0.03406  0.67005  Biso   1.000  C
  C83      1.0000 0.32580  0.04755  0.57487  Biso   1.000  C
  C84      1.0000 0.25160  0.94486  0.60820  Biso   1.000  C
  C85      1.0000 0.68550  0.94001  0.28014  Biso   1.000  C
  C86      1.0000 0.76365  0.99437  0.26562  Biso   1.000  C
  C87      1.0000 0.69272  0.04884  0.28452  Biso   1.000  C
  C88      1.0000 0.54604  0.04842  0.31852  Biso   1.000  C
  C89      1.0000 0.46637  0.99434  0.33418  Biso   1.000  C
  C90      1.0000 0.53968  0.94026  0.31384  Biso   1.000  C
  C91      1.0000 0.76126  0.88152  0.25912  Biso   1.000  C
  C92      1.0000 0.77534  0.10765  0.26832  Biso   1.000  C
  C93      1.0000 0.30443  0.99275  0.37021  Biso   1.000  C
  C94      1.0000 0.16830  0.96594  0.32995  Biso   1.000  C
  C95      1.0000 0.32580  0.95245  0.42513  Biso   1.000  C
  C96      1.0000 0.25160  0.05514  0.39180  Biso   1.000  C
  O1       1.0000 0.17450  0.76470  0.33355  Biso   1.000  O
  O2       1.0000 0.40440  0.73739  0.38222  Biso   1.000  O
  O3       1.0000 0.18880  0.77392  0.65559  Biso   1.000  O
  O4       1.0000 0.42138  0.75016  0.60670  Biso   1.000  O
  O5       1.0000 0.14630  0.65894  0.25439  Biso   1.000  O
  O6       1.0000 0.33903  0.83047  0.23491  Biso   1.000  O
  O7       1.0000 0.99221  0.77200  0.21698  Biso   1.000  O
  O8       1.0000 0.17450  0.23530  0.66645  Biso   1.000  O
  O9       1.0000 0.40440  0.26261  0.61778  Biso   1.000  O
  O10      1.0000 0.18880  0.22608  0.34441  Biso   1.000  O
  O11      1.0000 0.42138  0.24984  0.39330  Biso   1.000  O
  O12      1.0000 0.14630  0.34106  0.74561  Biso   1.000  O
  O13      1.0000 0.33903  0.16953  0.76509  Biso   1.000  O
  O14      1.0000 0.99221  0.22800  0.78302  Biso   1.000  O
  O15      1.0000 0.82550  0.33355  0.23530  Biso   1.000  O
  O16      1.0000 0.59560  0.38222  0.26261  Biso   1.000  O
  O17      1.0000 0.81120  0.65559  0.22608  Biso   1.000  O
  O18      1.0000 0.57862  0.60670  0.24984  Biso   1.000  O
  O19      1.0000 0.85370  0.25439  0.34106  Biso   1.000  O
  O20      1.0000 0.66097  0.23491  0.16953  Biso   1.000  O
  O21      1.0000 0.00779  0.21698  0.22800  Biso   1.000  O
  O22      1.0000 0.82550  0.66645  0.76470  Biso   1.000  O
  O23      1.0000 0.59560  0.61778  0.73739  Biso   1.000  O
  O24      1.0000 0.81120  0.34441  0.77392  Biso   1.000  O
  O25      1.0000 0.57862  0.39330  0.75016  Biso   1.000  O
  O26      1.0000 0.85370  0.74561  0.65894  Biso   1.000  O
  O27      1.0000 0.66097  0.76509  0.83047  Biso   1.000  O
  O28      1.0000 0.00779  0.78302  0.77200  Biso   1.000  O
  O29      1.0000 0.32550  0.73530  0.83355  Biso   1.000  O
  O30      1.0000 0.09560  0.76261  0.88222  Biso   1.000  O
  O31      1.0000 0.31120  0.72608  0.15559  Biso   1.000  O
  O32      1.0000 0.07862  0.74984  0.10670  Biso   1.000  O
  O33      1.0000 0.35370  0.84106  0.75439  Biso   1.000  O
  O34      1.0000 0.16097  0.66953  0.73491  Biso   1.000  O
  O35      1.0000 0.50779  0.72800  0.71698  Biso   1.000  O
  O36      1.0000 0.32550  0.26470  0.16645  Biso   1.000  O
  O37      1.0000 0.09560  0.23739  0.11778  Biso   1.000  O
  O38      1.0000 0.31120  0.27392  0.84441  Biso   1.000  O
  O39      1.0000 0.07862  0.25016  0.89330  Biso   1.000  O
  O40      1.0000 0.35370  0.15894  0.24561  Biso   1.000  O
  O41      1.0000 0.16097  0.33047  0.26509  Biso   1.000  O
  O42      1.0000 0.50779  0.27200  0.28302  Biso   1.000  O
  O43      1.0000 0.67450  0.16645  0.73530  Biso   1.000  O
  O44      1.0000 0.90440  0.11778  0.76261  Biso   1.000  O
  O45      1.0000 0.68880  0.84441  0.72608  Biso   1.000  O
  O46      1.0000 0.92138  0.89330  0.74984  Biso   1.000  O
  O47      1.0000 0.64630  0.24561  0.84106  Biso   1.000  O
  O48      1.0000 0.83903  0.26509  0.66953  Biso   1.000  O
  O49      1.0000 0.49221  0.28302  0.72800  Biso   1.000  O
  O50      1.0000 0.67450  0.83355  0.26470  Biso   1.000  O
  O51      1.0000 0.90440  0.88222  0.23739  Biso   1.000  O
  O52      1.0000 0.68880  0.15559  0.27392  Biso   1.000  O
  O53      1.0000 0.92138  0.10670  0.25016  Biso   1.000  O
  O54      1.0000 0.64630  0.75439  0.15894  Biso   1.000  O
  O55      1.0000 0.83903  0.73491  0.33047  Biso   1.000  O
  O56      1.0000 0.49221  0.71698  0.27200  Biso   1.000  O
