data_image0
_cell_length_a       5.99
_cell_length_b       7.435
_cell_length_c       13.323
_cell_angle_alpha    102.89
_cell_angle_beta     101.55
_cell_angle_gamma    90.85

_symmetry_space_group_name_H-M    P 1
_symmetry_int_tables_number       1

loop_
  _symmetry_equiv_pos_as_xyz
  'x, y, z'

loop_
  _atom_site_label
  _atom_site_occupancy
  _atom_site_fract_x
  _atom_site_fract_y
  _atom_site_fract_z
  _atom_site_thermal_displace_type
  _atom_site_B_iso_or_equiv
  _atom_site_type_symbol
  Tb1      1.0000 0.23767  0.63759  0.11857  Biso   1.000  Tb
  Tb2      1.0000 0.19953  0.99985  0.75947  Biso   1.000  Tb
  H1       1.0000 0.86310  0.85970  0.38370  Biso   1.000  H
  H2       1.0000 0.57220  0.91950  0.48140  Biso   1.000  H
  H3       1.0000 0.72660  0.50350  0.87200  Biso   1.000  H
  H4       1.0000 0.75240  0.54140  0.71290  Biso   1.000  H
  H5       1.0000 0.67190  0.21970  0.16860  Biso   1.000  H
  H6       1.0000 0.69690  0.06730  0.00140  Biso   1.000  H
  H7       1.0000 0.98030  0.56690  0.44530  Biso   1.000  H
  H8       1.0000 0.43850  0.68710  0.53000  Biso   1.000  H
  H9       1.0000 0.59100  0.21630  0.73990  Biso   1.000  H
  H10      1.0000 0.49750  0.05000  0.67410  Biso   1.000  H
  H11      1.0000 0.86250  0.84170  0.21500  Biso   1.000  H
  H12      1.0000 0.94720  0.83620  0.12420  Biso   1.000  H
  C1       1.0000 0.00200  0.88100  0.54130  Biso   1.000  C
  C2       1.0000 0.84600  0.78920  0.43600  Biso   1.000  C
  C3       1.0000 0.60100  0.79200  0.45050  Biso   1.000  C
  C4       1.0000 0.44000  0.73200  0.34350  Biso   1.000  C
  C5       1.0000 0.05700  0.43170  0.86810  Biso   1.000  C
  C6       1.0000 0.86900  0.56840  0.87080  Biso   1.000  C
  C7       1.0000 0.83870  0.63810  0.77080  Biso   1.000  C
  C8       1.0000 0.70640  0.81660  0.77590  Biso   1.000  C
  C9       1.0000 0.72440  0.44660  0.10860  Biso   1.000  C
  C10      1.0000 0.59210  0.27410  0.11190  Biso   1.000  C
  C11      1.0000 0.55400  0.12930  0.00380  Biso   1.000  C
  C12      1.0000 0.37400  0.98450  0.00570  Biso   1.000  C
  O1       1.0000 0.17720  0.79820  0.58000  Biso   1.000  O
  O2       1.0000 0.96290  0.03610  0.58850  Biso   1.000  O
  O3       1.0000 0.89420  0.60190  0.39840  Biso   1.000  O
  O4       1.0000 0.57050  0.68310  0.52160  Biso   1.000  O
  O5       1.0000 0.29910  0.60360  0.31900  Biso   1.000  O
  O6       1.0000 0.46780  0.83060  0.27710  Biso   1.000  O
  O7       1.0000 0.03630  0.29600  0.79420  Biso   1.000  O
  O8       1.0000 0.23050  0.46820  0.94520  Biso   1.000  O
  O9       1.0000 0.93380  0.71370  0.96660  Biso   1.000  O
  O10      1.0000 0.05510  0.67380  0.74650  Biso   1.000  O
  O11      1.0000 0.50390  0.80370  0.78220  Biso   1.000  O
  O12      1.0000 0.80990  0.95790  0.76910  Biso   1.000  O
  O13      1.0000 0.62650  0.59030  0.11090  Biso   1.000  O
  O14      1.0000 0.92900  0.42930  0.10660  Biso   1.000  O
  O15      1.0000 0.37280  0.33060  0.13120  Biso   1.000  O
  O16      1.0000 0.50190  0.20000  0.91510  Biso   1.000  O
  O17      1.0000 0.20130  0.96400  0.93170  Biso   1.000  O
  O18      1.0000 0.39930  0.90270  0.07950  Biso   1.000  O
  O19      1.0000 0.47280  0.16280  0.69600  Biso   1.000  O
  O20      1.0000 0.98160  0.85280  0.19080  Biso   1.000  O
