data_MUBZUG
_audit_creation_date              2015-10-10
_audit_creation_method            'Materials Studio'
_symmetry_space_group_name_H-M    'P1'
_symmetry_Int_Tables_number       1
_symmetry_cell_setting            triclinic
loop_
_symmetry_equiv_pos_as_xyz
  x,y,z
_cell_length_a                    21.9830
_cell_length_b                    21.9830
_cell_length_c                    21.9830
_cell_angle_alpha                 90.0000
_cell_angle_beta                  90.0000
_cell_angle_gamma                 90.0000
loop_
_atom_site_label
_atom_site_type_symbol
_atom_site_fract_x
_atom_site_fract_y
_atom_site_fract_z
_atom_site_U_iso_or_equiv
_atom_site_adp_type
_atom_site_occupancy
X1     C     0.55777   1.00058  -0.37193   0.00000  Uiso   1.00
C2     C     0.50199   1.00010  -0.34059   0.00000  Uiso   1.00
X3     C     0.44609   0.99969  -0.37157   0.00000  Uiso   1.00
C4     C     0.44554   1.00002  -0.43608   0.00000  Uiso   1.00
C5     C     0.50138   1.00024  -0.46876   0.00000  Uiso   1.00
C6     C     0.55764   1.00040  -0.43663   0.00000  Uiso   1.00
C7     C     0.61217   1.00036  -0.47016   0.00000  Uiso   1.00
C8     C     0.61174   1.00008  -0.53360   0.00000  Uiso   1.00
C9     C     0.55675   1.00006  -0.56649   0.00000  Uiso   1.00
C10    C     0.50090   1.00029  -0.53378   0.00000  Uiso   1.00
C11    C     0.39055   1.00012  -0.46880   0.00000  Uiso   1.00
C12    C     0.39007   1.00048  -0.53223   0.00000  Uiso   1.00
C13    C     0.44459   1.00053  -0.56583   0.00000  Uiso   1.00
X14    C     0.44432   1.00080  -0.63051   0.00000  Uiso   1.00
C15    C     0.50004   1.00031  -0.66198   0.00000  Uiso   1.00
X16    C     0.55610   0.99981  -0.63112   0.00000  Uiso   1.00
H17    H     0.65590   1.00043  -0.44749   0.00000  Uiso   1.00
H18    H     0.65520   0.99998  -0.55677   0.00000  Uiso   1.00
H19    H     0.34715   1.00001  -0.44554   0.00000  Uiso   1.00
H20    H     0.34631   1.00061  -0.55483   0.00000  Uiso   1.00
H21    H     0.50197   1.00002  -0.29121   0.00000  Uiso   1.00
H22    H     0.49977   1.00031  -0.71140   0.00000  Uiso   1.00
X23    C    -0.55776   1.37200   0.00067   0.00000  Uiso   1.00
C24    C    -0.50204   1.34065   0.00014   0.00000  Uiso   1.00
X25    C    -0.44617   1.37161  -0.00030   0.00000  Uiso   1.00
C26    C    -0.44557   1.43610   0.00004   0.00000  Uiso   1.00
C27    C    -0.50138   1.46879   0.00031   0.00000  Uiso   1.00
C28    C    -0.55765   1.43668   0.00050   0.00000  Uiso   1.00
C29    C    -0.61219   1.47020   0.00051   0.00000  Uiso   1.00
C30    C    -0.61174   1.53363   0.00025   0.00000  Uiso   1.00
C31    C    -0.55673   1.56649   0.00019   0.00000  Uiso   1.00
C32    C    -0.50090   1.53377   0.00036   0.00000  Uiso   1.00
C33    C    -0.39056   1.46879   0.00010   0.00000  Uiso   1.00
C34    C    -0.39006   1.53220   0.00047   0.00000  Uiso   1.00
C35    C    -0.44458   1.56580   0.00057   0.00000  Uiso   1.00
X36    C    -0.44434   1.63045   0.00085   0.00000  Uiso   1.00
C37    C    -0.50000   1.66194   0.00042   0.00000  Uiso   1.00
X38    C    -0.55603   1.63110  -0.00004   0.00000  Uiso   1.00
H39    H    -0.65591   1.44753   0.00061   0.00000  Uiso   1.00
H40    H    -0.65519   1.55683   0.00018   0.00000  Uiso   1.00
H41    H    -0.34717   1.44550  -0.00005   0.00000  Uiso   1.00
H42    H    -0.34630   1.55481   0.00057   0.00000  Uiso   1.00
H43    H    -0.50202   1.29126   0.00005   0.00000  Uiso   1.00
H44    H    -0.49972   1.71136   0.00042   0.00000  Uiso   1.00
X45    C     0.00048   0.36959   0.44442   0.00000  Uiso   1.00
C46    C     0.00001   0.33807   0.50004   0.00000  Uiso   1.00
X47    C    -0.00034   0.36893   0.55605   0.00000  Uiso   1.00
C48    C     0.00003   0.43351   0.55676   0.00000  Uiso   1.00
C49    C     0.00025   0.46621   0.50095   0.00000  Uiso   1.00
C50    C     0.00036   0.43421   0.44465   0.00000  Uiso   1.00
C51    C     0.00033   0.46778   0.39012   0.00000  Uiso   1.00
C52    C     0.00012   0.53116   0.39062   0.00000  Uiso   1.00
C53    C     0.00014   0.56381   0.44564   0.00000  Uiso   1.00
C54    C     0.00034   0.53115   0.50144   0.00000  Uiso   1.00
C55    C     0.00017   0.46633   0.61179   0.00000  Uiso   1.00
C56    C     0.00055   0.52973   0.61224   0.00000  Uiso   1.00
C57    C     0.00061   0.56323   0.55769   0.00000  Uiso   1.00
X58    C     0.00090   0.62786   0.55779   0.00000  Uiso   1.00
C59    C     0.00045   0.65925   0.50210   0.00000  Uiso   1.00
X60    C    -0.00004   0.62826   0.44626   0.00000  Uiso   1.00
H61    H     0.00036   0.44519   0.34635   0.00000  Uiso   1.00
H62    H     0.00002   0.55444   0.34722   0.00000  Uiso   1.00
H63    H     0.00007   0.44314   0.65524   0.00000  Uiso   1.00
H64    H     0.00070   0.55239   0.65598   0.00000  Uiso   1.00
H65    H    -0.00009   0.28865   0.49975   0.00000  Uiso   1.00
H66    H     0.00046   0.70864   0.50209   0.00000  Uiso   1.00
O67    O    -0.15614   1.00176  -0.08142   0.00000  Uiso   1.00
O68    O     0.15624   0.99799  -0.08081   0.00000  Uiso   1.00
O69    O    -0.00238   1.08141  -0.15710   0.00000  Uiso   1.00
O70    O     0.00255   0.91781  -0.15692   0.00000  Uiso   1.00
O71    O     0.00211   0.84200  -0.08418   0.00000  Uiso   1.00
O72    O    -0.00211   1.15755  -0.08467   0.00000  Uiso   1.00
O73    O     0.08411   0.99806  -0.15667   0.00000  Uiso   1.00
O74    O    -0.08377   1.00131  -0.15702   0.00000  Uiso   1.00
Zr75   Zr    0.00010   0.99974  -0.10742   0.00000  Uiso   1.00
O76    O     0.05476   0.94418  -0.05500   0.00000  Uiso   1.00
O77    O    -0.05460   1.05563  -0.05534   0.00000  Uiso   1.00
X78    C    -0.14007   1.00253  -0.13814   0.00000  Uiso   1.00
X79    C     0.14031   0.99692  -0.13754   0.00000  Uiso   1.00
X80    C    -0.00342   1.13817  -0.14091   0.00000  Uiso   1.00
X81    C     0.00340   0.86108  -0.14051   0.00000  Uiso   1.00
H82    H     0.08062   1.08113  -0.08092   0.00000  Uiso   1.00
O83    O     0.05427   1.05557  -0.05495   0.00000  Uiso   1.00
H84    H    -0.08057   0.91855  -0.08091   0.00000  Uiso   1.00
O85    O    -0.05424   0.94418  -0.05497   0.00000  Uiso   1.00
O86    O     0.15620   1.00252   0.08131   0.00000  Uiso   1.00
O87    O    -0.15627   0.99766   0.08083   0.00000  Uiso   1.00
O88    O     0.08401   1.15805   0.00163   0.00000  Uiso   1.00
O89    O     0.08454   0.84238  -0.00149   0.00000  Uiso   1.00
O90    O    -0.08424   0.84204   0.00197   0.00000  Uiso   1.00
O91    O    -0.08446   1.15766  -0.00196   0.00000  Uiso   1.00
O92    O     0.00205   1.08195   0.15711   0.00000  Uiso   1.00
O93    O    -0.00241   0.91847   0.15718   0.00000  Uiso   1.00
O94    O     0.00159   1.15788   0.08449   0.00000  Uiso   1.00
O95    O    -0.00180   0.84238   0.08471   0.00000  Uiso   1.00
O96    O     0.15597   1.08178   0.00227   0.00000  Uiso   1.00
O97    O    -0.15613   1.08111  -0.00259   0.00000  Uiso   1.00
O98    O    -0.15607   0.91843   0.00217   0.00000  Uiso   1.00
O99    O     0.15616   0.91900  -0.00195   0.00000  Uiso   1.00
O100   O     0.08395   1.00198   0.15703   0.00000  Uiso   1.00
O101   O    -0.08418   0.99835   0.15674   0.00000  Uiso   1.00
Zr102  Zr    0.10555   1.00025   0.00020   0.00000  Uiso   1.00
Zr103  Zr   -0.10557   0.99981  -0.00017   0.00000  Uiso   1.00
Zr104  Zr   -0.00014   1.10924  -0.00005   0.00000  Uiso   1.00
Zr105  Zr    0.00010   0.89074   0.00018   0.00000  Uiso   1.00
Zr106  Zr   -0.00008   1.00017   0.10752   0.00000  Uiso   1.00
O107   O    -0.05460   0.94421   0.05527   0.00000  Uiso   1.00
O108   O     0.05453   1.05605   0.05535   0.00000  Uiso   1.00
X109   C     0.14024   1.00335   0.13804   0.00000  Uiso   1.00
X110   C    -0.14038   0.99688   0.13757   0.00000  Uiso   1.00
X111   C     0.14015   1.13866   0.00293   0.00000  Uiso   1.00
X112   C     0.14058   0.86209  -0.00277   0.00000  Uiso   1.00
X113   C    -0.14037   0.86155   0.00314   0.00000  Uiso   1.00
X114   C    -0.14049   1.13800  -0.00338   0.00000  Uiso   1.00
X115   C     0.00289   1.13869   0.14082   0.00000  Uiso   1.00
X116   C    -0.00323   0.86172   0.14093   0.00000  Uiso   1.00
H117   H    -0.08090   1.08109   0.08077   0.00000  Uiso   1.00
O118   O    -0.05447   1.05554   0.05487   0.00000  Uiso   1.00
H119   H     0.08073   0.91912   0.08116   0.00000  Uiso   1.00
O120   O     0.05433   0.94460   0.05514   0.00000  Uiso   1.00
C121   C     0.29230   1.00429   0.26465   0.00000  Uiso   1.00
C122   C     0.23269   0.99587   0.28642   0.00000  Uiso   1.00
C123   C     0.18270   0.99639   0.24603   0.00000  Uiso   1.00
X128   C     0.19158   1.00512   0.18310   0.00000  Uiso   1.00
C125   C     0.25167   1.01427   0.16222   0.00000  Uiso   1.00
C126   C     0.30111   1.01383   0.20236   0.00000  Uiso   1.00
C127   C     0.34512   1.00275   0.30487   0.00000  Uiso   1.00
X124   C     0.39102   1.00173   0.33592   0.00000  Uiso   1.00
H129   H     0.22484   0.98849   0.33449   0.00000  Uiso   1.00
H130   H     0.13738   0.98917   0.26392   0.00000  Uiso   1.00
H131   H     0.26092   1.02160   0.11440   0.00000  Uiso   1.00
H132   H     0.34656   1.02061   0.18452   0.00000  Uiso   1.00
C133   C    -0.29248   0.99602   0.26364   0.00000  Uiso   1.00
C134   C    -0.30115   0.98570   0.20149   0.00000  Uiso   1.00
C135   C    -0.25166   0.98518   0.16150   0.00000  Uiso   1.00
X140   C    -0.19172   0.99505   0.18246   0.00000  Uiso   1.00
C137   C    -0.18299   1.00450   0.24528   0.00000  Uiso   1.00
C138   C    -0.23303   1.00509   0.28551   0.00000  Uiso   1.00
C139   C    -0.34526   0.99770   0.30369   0.00000  Uiso   1.00
X136   C    -0.39101   0.99882   0.33483   0.00000  Uiso   1.00
H141   H    -0.34652   0.97839   0.18365   0.00000  Uiso   1.00
H142   H    -0.26073   0.97726   0.11373   0.00000  Uiso   1.00
H143   H    -0.13776   1.01228   0.26317   0.00000  Uiso   1.00
H144   H    -0.22536   1.01307   0.33352   0.00000  Uiso   1.00
C145   C    -0.29111   1.00350  -0.26592   0.00000  Uiso   1.00
C146   C    -0.23118   0.99678  -0.28735   0.00000  Uiso   1.00
C147   C    -0.18159   0.99715  -0.24652   0.00000  Uiso   1.00
X152   C    -0.19117   1.00406  -0.18345   0.00000  Uiso   1.00
C149   C    -0.25161   1.01139  -0.16286   0.00000  Uiso   1.00
C150   C    -0.30066   1.01109  -0.20347   0.00000  Uiso   1.00
C151   C    -0.34347   1.00224  -0.30670   0.00000  Uiso   1.00
X148   C    -0.38908   1.00137  -0.33815   0.00000  Uiso   1.00
H153   H    -0.22276   0.99091  -0.33554   0.00000  Uiso   1.00
H154   H    -0.13599   0.99138  -0.26420   0.00000  Uiso   1.00
H155   H    -0.26139   1.01722  -0.11494   0.00000  Uiso   1.00
H156   H    -0.34640   1.01651  -0.18589   0.00000  Uiso   1.00
C157   C     0.29196   0.99598  -0.26404   0.00000  Uiso   1.00
C158   C     0.23237   1.00430  -0.28581   0.00000  Uiso   1.00
C159   C     0.18250   1.00377  -0.24540   0.00000  Uiso   1.00
X164   C     0.19155   0.99513  -0.18250   0.00000  Uiso   1.00
C161   C     0.25163   0.98605  -0.16162   0.00000  Uiso   1.00
C162   C     0.30096   0.98651  -0.20179   0.00000  Uiso   1.00
C163   C     0.34454   0.99757  -0.30430   0.00000  Uiso   1.00
X160   C     0.39015   0.99866  -0.33558   0.00000  Uiso   1.00
H165   H     0.22447   1.01162  -0.33388   0.00000  Uiso   1.00
H166   H     0.13715   1.01092  -0.26323   0.00000  Uiso   1.00
H167   H     0.26092   0.97880  -0.11379   0.00000  Uiso   1.00
H168   H     0.34646   0.97980  -0.18404   0.00000  Uiso   1.00
C169   C     0.29134   1.26599   0.00375   0.00000  Uiso   1.00
C170   C     0.23155   1.28746  -0.00370   0.00000  Uiso   1.00
C171   C     0.18194   1.24672  -0.00328   0.00000  Uiso   1.00
X176   C     0.19138   1.18373   0.00442   0.00000  Uiso   1.00
C173   C     0.25168   1.16308   0.01246   0.00000  Uiso   1.00
C174   C     0.30079   1.20361   0.01211   0.00000  Uiso   1.00
C175   C     0.34365   1.30672   0.00242   0.00000  Uiso   1.00
X172   C     0.38917   1.33821   0.00150   0.00000  Uiso   1.00
H177   H     0.22325   1.33559  -0.01019   0.00000  Uiso   1.00
H178   H     0.13643   1.26442  -0.00966   0.00000  Uiso   1.00
H179   H     0.26130   1.11520   0.01889   0.00000  Uiso   1.00
H180   H     0.34646   1.18605   0.01808   0.00000  Uiso   1.00
C181   C     0.29284   0.73645  -0.00358   0.00000  Uiso   1.00
C182   C     0.30153   0.79868  -0.01345   0.00000  Uiso   1.00
C183   C     0.25200   0.83862  -0.01392   0.00000  Uiso   1.00
X188   C     0.19208   0.81747  -0.00447   0.00000  Uiso   1.00
C185   C     0.18338   0.75459   0.00461   0.00000  Uiso   1.00
C186   C     0.23342   0.71444   0.00516   0.00000  Uiso   1.00
C187   C     0.34553   0.69640  -0.00202   0.00000  Uiso   1.00
X184   C     0.39117   0.66519  -0.00098   0.00000  Uiso   1.00
H189   H     0.34691   0.81660  -0.02046   0.00000  Uiso   1.00
H190   H     0.26101   0.88645  -0.02151   0.00000  Uiso   1.00
H191   H     0.13816   0.73658   0.01210   0.00000  Uiso   1.00
H192   H     0.22578   0.66637   0.01280   0.00000  Uiso   1.00
C193   C    -0.29257   0.73535   0.00414   0.00000  Uiso   1.00
C194   C    -0.23301   0.71346  -0.00410   0.00000  Uiso   1.00
C195   C    -0.18302   0.75377  -0.00364   0.00000  Uiso   1.00
X200   C    -0.19185   0.81674   0.00485   0.00000  Uiso   1.00
C197   C    -0.25191   0.83777   0.01376   0.00000  Uiso   1.00
C198   C    -0.30137   0.79768   0.01338   0.00000  Uiso   1.00
C199   C    -0.34530   0.69514   0.00270   0.00000  Uiso   1.00
X196   C    -0.39111   0.66404   0.00172   0.00000  Uiso   1.00
H201   H    -0.22520   0.66535  -0.01127   0.00000  Uiso   1.00
H202   H    -0.13772   0.73578  -0.01071   0.00000  Uiso   1.00
H203   H    -0.26108   0.88565   0.02086   0.00000  Uiso   1.00
H204   H    -0.34683   0.81558   0.01999   0.00000  Uiso   1.00
C205   C    -0.29230   1.26403  -0.00418   0.00000  Uiso   1.00
C206   C    -0.23286   1.28582   0.00486   0.00000  Uiso   1.00
C207   C    -0.18296   1.24552   0.00428   0.00000  Uiso   1.00
X212   C    -0.19185   1.18271  -0.00513   0.00000  Uiso   1.00
C209   C    -0.25178   1.16178  -0.01489   0.00000  Uiso   1.00
C210   C    -0.30117   1.20188  -0.01439   0.00000  Uiso   1.00
C211   C    -0.34482   1.30424  -0.00252   0.00000  Uiso   1.00
X208   C    -0.39034   1.33559  -0.00138   0.00000  Uiso   1.00
H213   H    -0.22509   1.33382   0.01278   0.00000  Uiso   1.00
H214   H    -0.13771   1.26336   0.01202   0.00000  Uiso   1.00
H215   H    -0.26089   1.11401  -0.02274   0.00000  Uiso   1.00
H216   H    -0.34660   1.18415  -0.02163   0.00000  Uiso   1.00
C217   C     0.00386   1.26517   0.29254   0.00000  Uiso   1.00
C218   C    -0.00572   1.28685   0.23310   0.00000  Uiso   1.00
C219   C    -0.00518   1.24649   0.18316   0.00000  Uiso   1.00
X224   C     0.00472   1.18375   0.19201   0.00000  Uiso   1.00
C221   C     0.01504   1.16300   0.25194   0.00000  Uiso   1.00
C222   C     0.01457   1.20311   0.30131   0.00000  Uiso   1.00
C223   C     0.00228   1.30524   0.34528   0.00000  Uiso   1.00
X220   C     0.00130   1.33614   0.39117   0.00000  Uiso   1.00
H225   H    -0.01404   1.33479   0.22537   0.00000  Uiso   1.00
H226   H    -0.01336   1.26422   0.13794   0.00000  Uiso   1.00
H227   H     0.02331   1.11532   0.26110   0.00000  Uiso   1.00
H228   H     0.02224   1.18543   0.34669   0.00000  Uiso   1.00
C229   C    -0.00436   1.26407  -0.29271   0.00000  Uiso   1.00
C230   C    -0.01616   1.20219  -0.30127   0.00000  Uiso   1.00
C231   C    -0.01674   1.16225  -0.25181   0.00000  Uiso   1.00
X236   C    -0.00544   1.18304  -0.19209   0.00000  Uiso   1.00
C233   C     0.00544   1.24563  -0.18345   0.00000  Uiso   1.00
C234   C     0.00609   1.28581  -0.23346   0.00000  Uiso   1.00
C235   C    -0.00253   1.30395  -0.34543   0.00000  Uiso   1.00
X232   C    -0.00136   1.33496  -0.39115   0.00000  Uiso   1.00
H237   H    -0.02454   1.18453  -0.34653   0.00000  Uiso   1.00
H238   H    -0.02582   1.11466  -0.26073   0.00000  Uiso   1.00
H239   H     0.01439   1.26332  -0.13837   0.00000  Uiso   1.00
H240   H     0.01523   1.33364  -0.22596   0.00000  Uiso   1.00
C241   C     0.00430   0.73344  -0.29123   0.00000  Uiso   1.00
C242   C     0.01343   0.79566  -0.30074   0.00000  Uiso   1.00
C243   C     0.01386   0.83623  -0.25173   0.00000  Uiso   1.00
X248   C     0.00510   0.81577  -0.19147   0.00000  Uiso   1.00
C245   C    -0.00331   0.75290  -0.18193   0.00000  Uiso   1.00
C246   C    -0.00380   0.71210  -0.23147   0.00000  Uiso   1.00
C247   C     0.00280   0.69282  -0.34352   0.00000  Uiso   1.00
X244   C     0.00180   0.66153  -0.38913   0.00000  Uiso   1.00
H249   H     0.01992   0.81308  -0.34640   0.00000  Uiso   1.00
H250   H     0.02087   0.88401  -0.26143   0.00000  Uiso   1.00
H251   H    -0.01027   0.73538  -0.13643   0.00000  Uiso   1.00
H252   H    -0.01090   0.66406  -0.22318   0.00000  Uiso   1.00
C253   C    -0.00401   0.73538   0.29229   0.00000  Uiso   1.00
C254   C     0.00583   0.71376   0.23291   0.00000  Uiso   1.00
C255   C     0.00518   0.75411   0.18307   0.00000  Uiso   1.00
X260   C    -0.00510   0.81676   0.19202   0.00000  Uiso   1.00
C257   C    -0.01574   0.83746   0.25189   0.00000  Uiso   1.00
C258   C    -0.01516   0.79733   0.30118   0.00000  Uiso   1.00
C259   C    -0.00224   0.69530   0.34482   0.00000  Uiso   1.00
X256   C    -0.00108   0.66415   0.39042   0.00000  Uiso   1.00
H261   H     0.01446   0.66587   0.22518   0.00000  Uiso   1.00
H262   H     0.01361   0.73649   0.13786   0.00000  Uiso   1.00
H263   H    -0.02430   0.88510   0.26104   0.00000  Uiso   1.00
H264   H    -0.02304   0.81489   0.34657   0.00000  Uiso   1.00
loop_
_geom_bond_atom_site_label_1
_geom_bond_atom_site_label_2
_geom_bond_distance
_geom_bond_site_symmetry_2
_ccdc_geom_bond_type
X1     C2      1.406   .     A
X1     C6      1.422   .     A
X1     X148    1.385   1_655 A
C2     X3      1.405   .     A
C2     H21     1.086   .     S
X3     C4      1.418   .     A
X3     X160    1.462   .     S
C4     C5      1.422   .     A
C4     C11     1.407   .     A
C5     C6      1.424   .     A
C5     C10     1.429   .     A
C6     C7      1.407   .     A
C7     C8      1.395   .     A
C7     H17     1.083   .     S
C8     C9      1.409   .     A
C8     H18     1.083   .     S
C9     C10     1.423   .     A
C9     X16     1.421   .     A
C10    C13     1.424   .     A
C11    C12     1.394   .     A
C11    H19     1.083   .     S
C12    C13     1.408   .     A
C12    H20     1.083   .     S
C13    X14     1.422   .     A
X14    C15     1.407   .     A
X14    X124    1.385   1_554 A
C15    X16     1.407   .     A
C15    H22     1.086   .     S
X16    X136    1.383   1_654 A
X23    C24     1.406   .     A
X23    C28     1.422   .     A
X23    X172    1.383   1_455 A
C24    X25     1.404   .     A
C24    H43     1.086   .     S
X25    C26     1.418   .     A
X25    X208    1.461   .     S
C26    C27     1.422   .     A
C26    C33     1.407   .     A
C27    C28     1.424   .     A
C27    C32     1.429   .     A
C28    C29     1.407   .     A
C29    C30     1.394   .     A
C29    H39     1.083   .     S
C30    C31     1.409   .     A
C30    H40     1.083   .     S
C31    C32     1.422   .     A
C31    X38     1.420   .     A
C32    C35     1.424   .     A
C33    C34     1.394   .     A
C33    H41     1.083   .     S
C34    C35     1.408   .     A
C34    H42     1.083   .     S
C35    X36     1.421   .     A
X36    C37     1.406   .     A
X36    X196    1.384   1_565 A
C37    X38     1.406   .     A
C37    H44     1.086   .     S
X38    X184    1.382   1_465 A
X45    C46     1.406   .     A
X45    C50     1.420   .     A
X45    X220    1.382   1_545 A
C46    X47     1.406   .     A
C46    H65     1.086   .     S
X47    C48     1.420   .     A
X47    X232    1.380   1_546 A
C48    C49     1.422   .     A
C48    C55     1.409   .     A
C49    C50     1.424   .     A
C49    C54     1.428   .     A
C50    C51     1.408   .     A
C51    C52     1.393   .     A
C51    H61     1.083   .     S
C52    C53     1.407   .     A
C52    H62     1.083   .     S
C53    C54     1.421   .     A
C53    X60     1.417   .     A
C54    C57     1.424   .     A
C55    C56     1.394   .     A
C55    H63     1.083   .     S
C56    C57     1.407   .     A
C56    H64     1.083   .     S
C57    X58     1.421   .     A
X58    C59     1.405   .     A
X58    X244    1.382   1_556 A
C59    X60     1.404   .     A
C59    H66     1.086   .     S
X60    X256    1.459   .     S
O67    Zr103   2.104   .     S
O67    X78     1.296   .     A
O68    Zr102   2.101   .     S
O68    X79     1.295   .     A
O69    Zr75    2.102   .     S
O69    X80     1.298   .     A
O70    Zr75    2.105   .     S
O70    X81     1.298   .     A
O71    Zr105   2.142   .     S
O71    X81     1.308   .     A
O72    Zr104   2.143   .     S
O72    X80     1.308   .     A
O73    Zr75    2.141   .     S
O73    X79     1.305   .     A
O74    Zr75    2.142   .     S
O74    X78     1.306   .     A
Zr75   O76     2.065   .     S
Zr75   O77     2.065   .     S
Zr75   O85     2.061   .     S
Zr75   O83     2.063   .     S
O76    Zr102   2.059   .     S
O76    Zr105   2.073   .     S
O77    Zr103   2.057   .     S
O77    Zr104   2.074   .     S
X78    X152    1.502   .     S
X79    X164    1.499   .     S
X80    X236    1.497   .     S
X81    X248    1.499   .     S
H82    O83     0.989   .     S
O83    Zr102   2.054   .     S
O83    Zr104   2.069   .     S
H84    O85     0.989   .     S
O85    Zr103   2.054   .     S
O85    Zr105   2.068   .     S
O86    Zr102   2.103   .     S
O86    X109    1.296   .     A
O87    Zr103   2.101   .     S
O87    X110    1.295   .     A
O88    Zr104   2.139   .     S
O88    X111    1.306   .     A
O89    Zr105   2.139   .     S
O89    X112    1.306   .     A
O90    Zr105   2.141   .     S
O90    X113    1.307   .     A
O91    Zr104   2.138   .     S
O91    X114    1.306   .     A
O92    Zr106   2.103   .     S
O92    X115    1.298   .     A
O93    Zr106   2.102   .     S
O93    X116    1.298   .     A
O94    Zr104   2.145   .     S
O94    X115    1.308   .     A
O95    Zr105   2.141   .     S
O95    X116    1.307   .     A
O96    Zr102   2.108   .     S
O96    X111    1.298   .     A
O97    Zr103   2.105   .     S
O97    X114    1.297   .     A
O98    Zr103   2.106   .     S
O98    X113    1.297   .     A
O99    Zr102   2.105   .     S
O99    X112    1.297   .     A
O100   Zr106   2.144   .     S
O100   X109    1.306   .     A
O101   Zr106   2.142   .     S
O101   X110    1.306   .     A
Zr102  O108    2.057   .     S
Zr102  O120    2.055   .     S
Zr103  O107    2.058   .     S
Zr103  O118    2.056   .     S
Zr104  O108    2.072   .     S
Zr104  O118    2.068   .     S
Zr105  O107    2.072   .     S
Zr105  O120    2.069   .     S
Zr106  O107    2.066   .     S
Zr106  O108    2.065   .     S
Zr106  O120    2.061   .     S
Zr106  O118    2.062   .     S
X109   X128    1.502   .     S
X110   X140    1.500   .     S
X111   X176    1.500   .     S
X112   X188    1.498   .     S
X113   X200    1.501   .     S
X114   X212    1.498   .     S
X115   X224    1.500   .     S
X116   X260    1.497   .     S
H117   O118    0.989   .     S
H119   O120    0.989   .     S
C121   C122    1.407   .     A
C121   C126    1.399   .     A
C121   C127    1.460   .     S
C122   C123    1.413   .     A
C122   H129    1.083   .     S
C123   X128    1.410   .     A
C123   H130    1.083   .     S
X128   C125    1.413   .     A
C125   C126    1.400   .     A
C125   H131    1.083   .     S
C126   H132    1.084   .     S
C127   X124    1.218   .     T
X124   X14     1.385   1_556 A
C133   C134    1.398   .     A
C133   C138    1.407   .     A
C133   C139    1.457   .     S
C134   C135    1.399   .     A
C134   H141    1.084   .     S
C135   X140    1.413   .     A
C135   H142    1.083   .     S
X140   C137    1.410   .     A
C137   C138    1.411   .     A
C137   H143    1.083   .     S
C138   H144    1.083   .     S
C139   X136    1.217   .     T
X136   X16     1.383   1_456 A
C145   C146    1.407   .     A
C145   C150    1.399   .     A
C145   C151    1.459   .     S
C146   C147    1.412   .     A
C146   H153    1.083   .     S
C147   X152    1.410   .     A
C147   H154    1.083   .     S
X152   C149    1.413   .     A
C149   C150    1.400   .     A
C149   H155    1.083   .     S
C150   H156    1.084   .     S
C151   X148    1.218   .     T
X148   X1      1.385   1_455 A
C157   C158    1.407   .     A
C157   C162    1.398   .     A
C157   C163    1.456   .     S
C158   C159    1.411   .     A
C158   H165    1.083   .     S
C159   X164    1.410   .     A
C159   H166    1.083   .     S
X164   C161    1.412   .     A
C161   C162    1.399   .     A
C161   H167    1.083   .     S
C162   H168    1.084   .     S
C163   X160    1.216   .     T
C169   C170    1.406   .     A
C169   C174    1.399   .     A
C169   C175    1.458   .     S
C170   C171    1.411   .     A
C170   H177    1.083   .     S
C171   X176    1.410   .     A
C171   H178    1.083   .     S
X176   C173    1.412   .     A
C173   C174    1.400   .     A
C173   H179    1.083   .     S
C174   H180    1.084   .     S
C175   X172    1.217   .     T
X172   X23     1.383   1_655 A
C181   C182    1.398   .     A
C181   C186    1.406   .     A
C181   C187    1.455   .     S
C182   C183    1.399   .     A
C182   H189    1.084   .     S
C183   X188    1.412   .     A
C183   H190    1.083   .     S
X188   C185    1.410   .     A
C185   C186    1.410   .     A
C185   H191    1.083   .     S
C186   H192    1.083   .     S
C187   X184    1.216   .     T
X184   X38     1.382   1_645 A
C193   C194    1.407   .     A
C193   C198    1.399   .     A
C193   C199    1.458   .     S
C194   C195    1.412   .     A
C194   H201    1.083   .     S
C195   X200    1.410   .     A
C195   H202    1.083   .     S
X200   C197    1.413   .     A
C197   C198    1.400   .     A
C197   H203    1.083   .     S
C198   H204    1.084   .     S
C199   X196    1.217   .     T
X196   X36     1.384   1_545 A
C205   C206    1.406   .     A
C205   C210    1.398   .     A
C205   C211    1.455   .     S
C206   C207    1.410   .     A
C206   H213    1.083   .     S
C207   X212    1.410   .     A
C207   H214    1.083   .     S
X212   C209    1.412   .     A
C209   C210    1.399   .     A
C209   H215    1.083   .     S
C210   H216    1.084   .     S
C211   X208    1.215   .     T
C217   C218    1.407   .     A
C217   C222    1.398   .     A
C217   C223    1.456   .     S
C218   C219    1.412   .     A
C218   H225    1.083   .     S
C219   X224    1.410   .     A
C219   H226    1.083   .     S
X224   C221    1.412   .     A
C221   C222    1.398   .     A
C221   H227    1.083   .     S
C222   H228    1.084   .     S
C223   X220    1.216   .     T
X220   X45     1.382   1_565 A
C229   C230    1.397   .     A
C229   C234    1.406   .     A
C229   C235    1.454   .     S
C230   C231    1.398   .     A
C230   H237    1.084   .     S
C231   X236    1.412   .     A
C231   H238    1.083   .     S
X236   C233    1.409   .     A
C233   C234    1.410   .     A
C233   H239    1.083   .     S
C234   H240    1.083   .     S
C235   X232    1.215   .     T
X232   X47     1.380   1_564 A
C241   C242    1.398   .     A
C241   C246    1.406   .     A
C241   C247    1.456   .     S
C242   C243    1.399   .     A
C242   H249    1.084   .     S
C243   X248    1.412   .     A
C243   H250    1.083   .     S
X248   C245    1.410   .     A
C245   C246    1.411   .     A
C245   H251    1.083   .     S
C246   H252    1.083   .     S
C247   X244    1.216   .     T
X244   X58     1.382   1_554 A
C253   C254    1.406   .     A
C253   C258    1.397   .     A
C253   C259    1.453   .     S
C254   C255    1.410   .     A
C254   H261    1.083   .     S
C255   X260    1.409   .     A
C255   H262    1.083   .     S
X260   C257    1.412   .     A
C257   C258    1.397   .     A
C257   H263    1.083   .     S
C258   H264    1.084   .     S
C259   X256    1.214   .     T
