data_image0
_cell_length_a       13.838
_cell_length_b       12.784
_cell_length_c       16.885
_cell_angle_alpha    90
_cell_angle_beta     90
_cell_angle_gamma    90

_symmetry_space_group_name_H-M    "P 1"
_symmetry_int_tables_number       1

loop_
  _symmetry_equiv_pos_as_xyz
  'x, y, z'

loop_
  _atom_site_label
  _atom_site_occupancy
  _atom_site_fract_x
  _atom_site_fract_y
  _atom_site_fract_z
  _atom_site_thermal_displace_type
  _atom_site_B_iso_or_equiv
  _atom_site_type_symbol
  Zn1      1.0000 0.59354  0.97602  0.92413  Biso   1.000  Zn
  Zn2      1.0000 0.47753  0.43198  0.90213  Biso   1.000  Zn
  C1       1.0000 0.58960  0.97820  0.75460  Biso   1.000  C
  C2       1.0000 0.49380  0.92580  0.77790  Biso   1.000  C
  C3       1.0000 0.54810  0.20530  0.91240  Biso   1.000  C
  C4       1.0000 0.41780  0.22470  0.97660  Biso   1.000  C
  C5       1.0000 0.77990  0.02140  0.02220  Biso   1.000  C
  C6       1.0000 0.81200  0.97570  0.90540  Biso   1.000  C
  H1       1.0000 0.80520  0.95520  0.85280  Biso   1.000  H
  N1       1.0000 0.47890  0.27710  0.92740  Biso   1.000  N
  N2       1.0000 0.53260  0.11560  0.94910  Biso   1.000  N
  N3       1.0000 0.44730  0.12820  0.99060  Biso   1.000  N
  N4       1.0000 0.62780  0.22500  0.86550  Biso   1.000  N
  H2       1.0000 0.67100  0.17740  0.85880  Biso   1.000  H
  H3       1.0000 0.63430  0.28490  0.84290  Biso   1.000  H
  N5       1.0000 0.89590  0.98870  0.93980  Biso   1.000  N
  N6       1.0000 0.87560  0.01800  0.01760  Biso   1.000  N
  N7       1.0000 0.73700  0.99470  0.95340  Biso   1.000  N
  N8       1.0000 0.72980  0.05170  0.08730  Biso   1.000  N
  H4       1.0000 0.76020  0.07060  0.12940  Biso   1.000  H
  H5       1.0000 0.66770  0.05220  0.08650  Biso   1.000  H
  O1       1.0000 0.64380  0.00710  0.80940  Biso   1.000  O
  O2       1.0000 0.47840  0.91620  0.85030  Biso   1.000  O
  O3       1.0000 0.60630  0.99200  0.68230  Biso   1.000  O
  O4       1.0000 0.44160  0.89730  0.72090  Biso   1.000  O
  H6       1.0000 0.29220  0.20970  0.02970  Biso   1.000  H
  H7       1.0000 0.30630  0.31630  0.99600  Biso   1.000  H
  N9       1.0000 0.32700  0.25400  0.00400  Biso   1.000  N
  Zn3      1.0000 0.90646  0.02398  0.42413  Biso   1.000  Zn
  Zn4      1.0000 0.02247  0.56802  0.40213  Biso   1.000  Zn
  C7       1.0000 0.91040  0.02180  0.25460  Biso   1.000  C
  C8       1.0000 0.00620  0.07420  0.27790  Biso   1.000  C
  C9       1.0000 0.95190  0.79470  0.41240  Biso   1.000  C
  C10      1.0000 0.08220  0.77530  0.47660  Biso   1.000  C
  C11      1.0000 0.72010  0.97860  0.52220  Biso   1.000  C
  C12      1.0000 0.68800  0.02430  0.40540  Biso   1.000  C
  H8       1.0000 0.69480  0.04480  0.35280  Biso   1.000  H
  N10      1.0000 0.02110  0.72290  0.42740  Biso   1.000  N
  N11      1.0000 0.96740  0.88440  0.44910  Biso   1.000  N
  N12      1.0000 0.05270  0.87180  0.49060  Biso   1.000  N
  N13      1.0000 0.87220  0.77500  0.36550  Biso   1.000  N
  H9       1.0000 0.82900  0.82260  0.35880  Biso   1.000  H
  H10      1.0000 0.86570  0.71510  0.34290  Biso   1.000  H
  N14      1.0000 0.60410  0.01130  0.43980  Biso   1.000  N
  N15      1.0000 0.62440  0.98200  0.51760  Biso   1.000  N
  N16      1.0000 0.76300  0.00530  0.45340  Biso   1.000  N
  N17      1.0000 0.77020  0.94830  0.58730  Biso   1.000  N
  H11      1.0000 0.73980  0.92940  0.62940  Biso   1.000  H
  H12      1.0000 0.83230  0.94780  0.58650  Biso   1.000  H
  O5       1.0000 0.85620  0.99290  0.30940  Biso   1.000  O
  O6       1.0000 0.02160  0.08380  0.35030  Biso   1.000  O
  O7       1.0000 0.89370  0.00800  0.18230  Biso   1.000  O
  O8       1.0000 0.05840  0.10270  0.22090  Biso   1.000  O
  H13      1.0000 0.20780  0.79030  0.52970  Biso   1.000  H
  H14      1.0000 0.19370  0.68370  0.49600  Biso   1.000  H
  N18      1.0000 0.17300  0.74600  0.50400  Biso   1.000  N
  Zn5      1.0000 0.40646  0.47602  0.57587  Biso   1.000  Zn
  Zn6      1.0000 0.52247  0.93198  0.59787  Biso   1.000  Zn
  C13      1.0000 0.41040  0.47820  0.74540  Biso   1.000  C
  C14      1.0000 0.50620  0.42580  0.72210  Biso   1.000  C
  C15      1.0000 0.45190  0.70530  0.58760  Biso   1.000  C
  C16      1.0000 0.58220  0.72470  0.52340  Biso   1.000  C
  C17      1.0000 0.22010  0.52140  0.47780  Biso   1.000  C
  C18      1.0000 0.18800  0.47570  0.59460  Biso   1.000  C
  H15      1.0000 0.19480  0.45520  0.64720  Biso   1.000  H
  N19      1.0000 0.52110  0.77710  0.57260  Biso   1.000  N
  N20      1.0000 0.46740  0.61560  0.55090  Biso   1.000  N
  N21      1.0000 0.55270  0.62820  0.50940  Biso   1.000  N
  N22      1.0000 0.37220  0.72500  0.63450  Biso   1.000  N
  H16      1.0000 0.32900  0.67740  0.64120  Biso   1.000  H
  H17      1.0000 0.36570  0.78490  0.65710  Biso   1.000  H
  N23      1.0000 0.10410  0.48870  0.56020  Biso   1.000  N
  N24      1.0000 0.12440  0.51800  0.48240  Biso   1.000  N
  N25      1.0000 0.26300  0.49470  0.54660  Biso   1.000  N
  N26      1.0000 0.27020  0.55170  0.41270  Biso   1.000  N
  H18      1.0000 0.23980  0.57060  0.37060  Biso   1.000  H
  H19      1.0000 0.33230  0.55220  0.41350  Biso   1.000  H
  O9       1.0000 0.35620  0.50710  0.69060  Biso   1.000  O
  O10      1.0000 0.52160  0.41620  0.64970  Biso   1.000  O
  O11      1.0000 0.39370  0.49200  0.81770  Biso   1.000  O
  O12      1.0000 0.55840  0.39730  0.77910  Biso   1.000  O
  H20      1.0000 0.70780  0.70970  0.47030  Biso   1.000  H
  H21      1.0000 0.69370  0.81630  0.50400  Biso   1.000  H
  N27      1.0000 0.67300  0.75400  0.49600  Biso   1.000  N
  Zn7      1.0000 0.09354  0.52398  0.07587  Biso   1.000  Zn
  Zn8      1.0000 0.97753  0.06802  0.09787  Biso   1.000  Zn
  C19      1.0000 0.08960  0.52180  0.24540  Biso   1.000  C
  C20      1.0000 0.99380  0.57420  0.22210  Biso   1.000  C
  C21      1.0000 0.04810  0.29470  0.08760  Biso   1.000  C
  C22      1.0000 0.91780  0.27530  0.02340  Biso   1.000  C
  C23      1.0000 0.27990  0.47860  0.97780  Biso   1.000  C
  C24      1.0000 0.31200  0.52430  0.09460  Biso   1.000  C
  H22      1.0000 0.30520  0.54480  0.14720  Biso   1.000  H
  N28      1.0000 0.97890  0.22290  0.07260  Biso   1.000  N
  N29      1.0000 0.03260  0.38440  0.05090  Biso   1.000  N
  N30      1.0000 0.94730  0.37180  0.00940  Biso   1.000  N
  N31      1.0000 0.12780  0.27500  0.13450  Biso   1.000  N
  H23      1.0000 0.17100  0.32260  0.14120  Biso   1.000  H
  H24      1.0000 0.13430  0.21510  0.15710  Biso   1.000  H
  N32      1.0000 0.39590  0.51130  0.06020  Biso   1.000  N
  N33      1.0000 0.37560  0.48200  0.98240  Biso   1.000  N
  N34      1.0000 0.23700  0.50530  0.04660  Biso   1.000  N
  N35      1.0000 0.22980  0.44830  0.91270  Biso   1.000  N
  H25      1.0000 0.26020  0.42940  0.87060  Biso   1.000  H
  H26      1.0000 0.16770  0.44780  0.91350  Biso   1.000  H
  O13      1.0000 0.14380  0.49290  0.19060  Biso   1.000  O
  O14      1.0000 0.97840  0.58380  0.14970  Biso   1.000  O
  O15      1.0000 0.10630  0.50800  0.31770  Biso   1.000  O
  O16      1.0000 0.94160  0.60270  0.27910  Biso   1.000  O
  H27      1.0000 0.79220  0.29030  0.97030  Biso   1.000  H
  H28      1.0000 0.80630  0.18370  0.00400  Biso   1.000  H
  N36      1.0000 0.82700  0.24600  0.99600  Biso   1.000  N
  Zn9      1.0000 0.40646  0.02398  0.07587  Biso   1.000  Zn
  Zn10     1.0000 0.52247  0.56802  0.09787  Biso   1.000  Zn
  C25      1.0000 0.41040  0.02180  0.24540  Biso   1.000  C
  C26      1.0000 0.50620  0.07420  0.22210  Biso   1.000  C
  C27      1.0000 0.45190  0.79470  0.08760  Biso   1.000  C
  C28      1.0000 0.58220  0.77530  0.02340  Biso   1.000  C
  C29      1.0000 0.22010  0.97860  0.97780  Biso   1.000  C
  C30      1.0000 0.18800  0.02430  0.09460  Biso   1.000  C
  H29      1.0000 0.19480  0.04480  0.14720  Biso   1.000  H
  N37      1.0000 0.52110  0.72290  0.07260  Biso   1.000  N
  N38      1.0000 0.46740  0.88440  0.05090  Biso   1.000  N
  N39      1.0000 0.55270  0.87180  0.00940  Biso   1.000  N
  N40      1.0000 0.37220  0.77500  0.13450  Biso   1.000  N
  H30      1.0000 0.32900  0.82260  0.14120  Biso   1.000  H
  H31      1.0000 0.36570  0.71510  0.15710  Biso   1.000  H
  N41      1.0000 0.10410  0.01130  0.06020  Biso   1.000  N
  N42      1.0000 0.12440  0.98200  0.98240  Biso   1.000  N
  N43      1.0000 0.26300  0.00530  0.04660  Biso   1.000  N
  N44      1.0000 0.27020  0.94830  0.91270  Biso   1.000  N
  H32      1.0000 0.23980  0.92940  0.87060  Biso   1.000  H
  H33      1.0000 0.33230  0.94780  0.91350  Biso   1.000  H
  O17      1.0000 0.35620  0.99290  0.19060  Biso   1.000  O
  O18      1.0000 0.52160  0.08380  0.14970  Biso   1.000  O
  O19      1.0000 0.39370  0.00800  0.31770  Biso   1.000  O
  O20      1.0000 0.55840  0.10270  0.27910  Biso   1.000  O
  H34      1.0000 0.70780  0.79030  0.97030  Biso   1.000  H
  H35      1.0000 0.69370  0.68370  0.00400  Biso   1.000  H
  N45      1.0000 0.67300  0.74600  0.99600  Biso   1.000  N
  Zn11     1.0000 0.09354  0.97602  0.57587  Biso   1.000  Zn
  Zn12     1.0000 0.97753  0.43198  0.59787  Biso   1.000  Zn
  C31      1.0000 0.08960  0.97820  0.74540  Biso   1.000  C
  C32      1.0000 0.99380  0.92580  0.72210  Biso   1.000  C
  C33      1.0000 0.04810  0.20530  0.58760  Biso   1.000  C
  C34      1.0000 0.91780  0.22470  0.52340  Biso   1.000  C
  C35      1.0000 0.27990  0.02140  0.47780  Biso   1.000  C
  C36      1.0000 0.31200  0.97570  0.59460  Biso   1.000  C
  H36      1.0000 0.30520  0.95520  0.64720  Biso   1.000  H
  N46      1.0000 0.97890  0.27710  0.57260  Biso   1.000  N
  N47      1.0000 0.03260  0.11560  0.55090  Biso   1.000  N
  N48      1.0000 0.94730  0.12820  0.50940  Biso   1.000  N
  N49      1.0000 0.12780  0.22500  0.63450  Biso   1.000  N
  H37      1.0000 0.17100  0.17740  0.64120  Biso   1.000  H
  H38      1.0000 0.13430  0.28490  0.65710  Biso   1.000  H
  N50      1.0000 0.39590  0.98870  0.56020  Biso   1.000  N
  N51      1.0000 0.37560  0.01800  0.48240  Biso   1.000  N
  N52      1.0000 0.23700  0.99470  0.54660  Biso   1.000  N
  N53      1.0000 0.22980  0.05170  0.41270  Biso   1.000  N
  H39      1.0000 0.26020  0.07060  0.37060  Biso   1.000  H
  H40      1.0000 0.16770  0.05220  0.41350  Biso   1.000  H
  O21      1.0000 0.14380  0.00710  0.69060  Biso   1.000  O
  O22      1.0000 0.97840  0.91620  0.64970  Biso   1.000  O
  O23      1.0000 0.10630  0.99200  0.81770  Biso   1.000  O
  O24      1.0000 0.94160  0.89730  0.77910  Biso   1.000  O
  H41      1.0000 0.79220  0.20970  0.47030  Biso   1.000  H
  H42      1.0000 0.80630  0.31630  0.50400  Biso   1.000  H
  N54      1.0000 0.82700  0.25400  0.49600  Biso   1.000  N
  Zn13     1.0000 0.59354  0.52398  0.42413  Biso   1.000  Zn
  Zn14     1.0000 0.47753  0.06802  0.40213  Biso   1.000  Zn
  C37      1.0000 0.58960  0.52180  0.25460  Biso   1.000  C
  C38      1.0000 0.49380  0.57420  0.27790  Biso   1.000  C
  C39      1.0000 0.54810  0.29470  0.41240  Biso   1.000  C
  C40      1.0000 0.41780  0.27530  0.47660  Biso   1.000  C
  C41      1.0000 0.77990  0.47860  0.52220  Biso   1.000  C
  C42      1.0000 0.81200  0.52430  0.40540  Biso   1.000  C
  H43      1.0000 0.80520  0.54480  0.35280  Biso   1.000  H
  N55      1.0000 0.47890  0.22290  0.42740  Biso   1.000  N
  N56      1.0000 0.53260  0.38440  0.44910  Biso   1.000  N
  N57      1.0000 0.44730  0.37180  0.49060  Biso   1.000  N
  N58      1.0000 0.62780  0.27500  0.36550  Biso   1.000  N
  H44      1.0000 0.67100  0.32260  0.35880  Biso   1.000  H
  H45      1.0000 0.63430  0.21510  0.34290  Biso   1.000  H
  N59      1.0000 0.89590  0.51130  0.43980  Biso   1.000  N
  N60      1.0000 0.87560  0.48200  0.51760  Biso   1.000  N
  N61      1.0000 0.73700  0.50530  0.45340  Biso   1.000  N
  N62      1.0000 0.72980  0.44830  0.58730  Biso   1.000  N
  H46      1.0000 0.76020  0.42940  0.62940  Biso   1.000  H
  H47      1.0000 0.66770  0.44780  0.58650  Biso   1.000  H
  O25      1.0000 0.64380  0.49290  0.30940  Biso   1.000  O
  O26      1.0000 0.47840  0.58380  0.35030  Biso   1.000  O
  O27      1.0000 0.60630  0.50800  0.18230  Biso   1.000  O
  O28      1.0000 0.44160  0.60270  0.22090  Biso   1.000  O
  H48      1.0000 0.29220  0.29030  0.52970  Biso   1.000  H
  H49      1.0000 0.30630  0.18370  0.49600  Biso   1.000  H
  N63      1.0000 0.32700  0.24600  0.50400  Biso   1.000  N
  Zn15     1.0000 0.90646  0.47602  0.92413  Biso   1.000  Zn
  Zn16     1.0000 0.02247  0.93198  0.90213  Biso   1.000  Zn
  C43      1.0000 0.91040  0.47820  0.75460  Biso   1.000  C
  C44      1.0000 0.00620  0.42580  0.77790  Biso   1.000  C
  C45      1.0000 0.95190  0.70530  0.91240  Biso   1.000  C
  C46      1.0000 0.08220  0.72470  0.97660  Biso   1.000  C
  C47      1.0000 0.72010  0.52140  0.02220  Biso   1.000  C
  C48      1.0000 0.68800  0.47570  0.90540  Biso   1.000  C
  H50      1.0000 0.69480  0.45520  0.85280  Biso   1.000  H
  N64      1.0000 0.02110  0.77710  0.92740  Biso   1.000  N
  N65      1.0000 0.96740  0.61560  0.94910  Biso   1.000  N
  N66      1.0000 0.05270  0.62820  0.99060  Biso   1.000  N
  N67      1.0000 0.87220  0.72500  0.86550  Biso   1.000  N
  H51      1.0000 0.82900  0.67740  0.85880  Biso   1.000  H
  H52      1.0000 0.86570  0.78490  0.84290  Biso   1.000  H
  N68      1.0000 0.60410  0.48870  0.93980  Biso   1.000  N
  N69      1.0000 0.62440  0.51800  0.01760  Biso   1.000  N
  N70      1.0000 0.76300  0.49470  0.95340  Biso   1.000  N
  N71      1.0000 0.77020  0.55170  0.08730  Biso   1.000  N
  H53      1.0000 0.73980  0.57060  0.12940  Biso   1.000  H
  H54      1.0000 0.83230  0.55220  0.08650  Biso   1.000  H
  O29      1.0000 0.85620  0.50710  0.80940  Biso   1.000  O
  O30      1.0000 0.02160  0.41620  0.85030  Biso   1.000  O
  O31      1.0000 0.89370  0.49200  0.68230  Biso   1.000  O
  O32      1.0000 0.05840  0.39730  0.72090  Biso   1.000  O
  H55      1.0000 0.20780  0.70970  0.02970  Biso   1.000  H
  H56      1.0000 0.19370  0.81630  0.99600  Biso   1.000  H
  N72      1.0000 0.17300  0.75400  0.00400  Biso   1.000  N
